MODEL 1
REMARK VINA RESULT:     -11.3      0.000      0.000
REMARK  Name = 4823
REMARK  3 active torsions:
REMARK  status: ('A' for Active; 'I' for Inactive)
REMARK    1  A    between atoms: C_3  and  C_16
REMARK    2  A    between atoms: C_9  and  C_21
REMARK    3  A    between atoms: C_26  and  O_27
REMARK                            x       y       z     vdW  Elec       q    Type
REMARK                         _______ _______ _______ _____ _____    ______ ____
ROOT
ATOM      1  N   UNL     1      35.849 -20.148 -19.890  0.00  0.00    -0.315 N 
ATOM      2  N   UNL     1      33.701 -20.593 -20.242  0.00  0.00    -0.315 N 
ATOM      3  C   UNL     1      35.528 -22.546 -17.075  0.00  0.00    +0.016 C 
ATOM      4  C   UNL     1      35.501 -21.053 -18.922  0.00  0.00    +0.059 C 
ATOM      5  C   UNL     1      36.224 -21.648 -17.888  0.00  0.00    +0.017 C 
ATOM      6  C   UNL     1      34.154 -21.316 -19.163  0.00  0.00    +0.059 C 
ATOM      7  C   UNL     1      34.181 -22.832 -17.287  0.00  0.00    +0.003 C 
ATOM      8  C   UNL     1      33.475 -22.223 -18.332  0.00  0.00    +0.016 C 
ATOM      9  C   UNL     1      34.742 -19.905 -20.652  0.00  0.00    +0.168 C 
ATOM     10  H   UNL     1      36.739 -19.744 -20.013  0.00  0.00    +0.149 HD
ATOM     11  H   UNL     1      32.793 -20.592 -20.623  0.00  0.00    +0.149 HD
ENDROOT
BRANCH   3  16
ATOM     12  O   UNL     1      38.403 -25.277 -13.240  0.00  0.00    -0.273 OA
ATOM     13  N   UNL     1      37.515 -22.966 -15.778  0.00  0.00    -0.184 NA
ATOM     14  N   UNL     1      38.186 -23.602 -14.791  0.00  0.00    -0.206 N 
ATOM     15  C   UNL     1      35.489 -24.148 -15.011  0.00  0.00    +0.051 C 
ATOM     16  C   UNL     1      36.252 -23.219 -15.946  0.00  0.00    +0.076 C 
ATOM     17  C   UNL     1      36.424 -25.266 -14.579  0.00  0.00    +0.093 C 
ATOM     18  C   UNL     1      34.953 -23.365 -13.810  0.00  0.00    +0.007 C 
ATOM     19  C   UNL     1      37.745 -24.717 -14.117  0.00  0.00    +0.241 C 
ATOM     20  H   UNL     1      39.063 -23.236 -14.533  0.00  0.00    +0.177 HD
ENDBRANCH   3  16
BRANCH   9  21
ATOM     21  C   UNL     1      34.768 -18.990 -21.769  0.00  0.00    +0.015 C 
ATOM     22  C   UNL     1      35.242 -17.691 -21.594  0.00  0.00    +0.002 C 
ATOM     23  C   UNL     1      34.316 -19.405 -23.022  0.00  0.00    +0.002 C 
ATOM     24  C   UNL     1      35.268 -16.806 -22.673  0.00  0.00    +0.037 C 
ATOM     25  C   UNL     1      34.342 -18.522 -24.100  0.00  0.00    +0.037 C 
ATOM     26  C   UNL     1      34.818 -17.222 -23.925  0.00  0.00    +0.139 C 
BRANCH  26  27
ATOM     27  O   UNL     1      34.843 -16.360 -24.978  0.00  0.00    -0.471 OA
ATOM     28  C   UNL     1      33.771 -15.422 -25.075  0.00  0.00    +0.252 C 
ENDBRANCH  26  27
ENDBRANCH   9  21
TORSDOF 3
ENDMDL
MODEL 2
REMARK VINA RESULT:     -10.7      3.004      9.380
REMARK  Name = 4823
REMARK  3 active torsions:
REMARK  status: ('A' for Active; 'I' for Inactive)
REMARK    1  A    between atoms: C_3  and  C_16
REMARK    2  A    between atoms: C_9  and  C_21
REMARK    3  A    between atoms: C_26  and  O_27
REMARK                            x       y       z     vdW  Elec       q    Type
REMARK                         _______ _______ _______ _____ _____    ______ ____
ROOT
ATOM      1  N   UNL     1      32.671 -21.571 -18.458  0.00  0.00    -0.315 N 
ATOM      2  N   UNL     1      34.551 -22.447 -17.661  0.00  0.00    -0.315 N 
ATOM      3  C   UNL     1      34.885 -19.982 -20.977  0.00  0.00    +0.016 C 
ATOM      4  C   UNL     1      33.667 -21.098 -19.271  0.00  0.00    +0.059 C 
ATOM      5  C   UNL     1      33.652 -20.254 -20.382  0.00  0.00    +0.017 C 
ATOM      6  C   UNL     1      34.832 -21.660 -18.754  0.00  0.00    +0.059 C 
ATOM      7  C   UNL     1      36.071 -20.526 -20.485  0.00  0.00    +0.003 C 
ATOM      8  C   UNL     1      36.062 -21.371 -19.369  0.00  0.00    +0.016 C 
ATOM      9  C   UNL     1      33.248 -22.371 -17.512  0.00  0.00    +0.168 C 
ATOM     10  H   UNL     1      31.710 -21.370 -18.540  0.00  0.00    +0.149 HD
ATOM     11  H   UNL     1      35.189 -22.956 -17.111  0.00  0.00    +0.149 HD
ENDROOT
BRANCH   3  16
ATOM     12  O   UNL     1      34.776 -16.392 -25.163  0.00  0.00    -0.273 OA
ATOM     13  N   UNL     1      35.569 -17.952 -22.080  0.00  0.00    -0.184 NA
ATOM     14  N   UNL     1      35.580 -17.114 -23.142  0.00  0.00    -0.206 N 
ATOM     15  C   UNL     1      34.276 -19.524 -23.477  0.00  0.00    +0.051 C 
ATOM     16  C   UNL     1      34.934 -19.082 -22.177  0.00  0.00    +0.076 C 
ATOM     17  C   UNL     1      33.719 -18.293 -24.174  0.00  0.00    +0.093 C 
ATOM     18  C   UNL     1      35.287 -20.261 -24.356  0.00  0.00    +0.007 C 
ATOM     19  C   UNL     1      34.744 -17.194 -24.230  0.00  0.00    +0.241 C 
ATOM     20  H   UNL     1      36.243 -16.386 -23.134  0.00  0.00    +0.177 HD
ENDBRANCH   3  16
BRANCH   9  21
ATOM     21  C   UNL     1      32.471 -23.033 -16.492  0.00  0.00    +0.015 C 
ATOM     22  C   UNL     1      31.078 -22.983 -16.535  0.00  0.00    +0.002 C 
ATOM     23  C   UNL     1      33.112 -23.722 -15.463  0.00  0.00    +0.002 C 
ATOM     24  C   UNL     1      30.326 -23.623 -15.550  0.00  0.00    +0.037 C 
ATOM     25  C   UNL     1      32.361 -24.362 -14.477  0.00  0.00    +0.037 C 
ATOM     26  C   UNL     1      30.967 -24.312 -14.521  0.00  0.00    +0.139 C 
BRANCH  26  27
ATOM     27  O   UNL     1      30.234 -24.936 -13.560  0.00  0.00    -0.471 OA
ATOM     28  C   UNL     1      29.006 -25.538 -13.967  0.00  0.00    +0.252 C 
ENDBRANCH  26  27
ENDBRANCH   9  21
TORSDOF 3
ENDMDL
MODEL 3
REMARK VINA RESULT:     -10.6      2.119      2.718
REMARK  Name = 4823
REMARK  3 active torsions:
REMARK  status: ('A' for Active; 'I' for Inactive)
REMARK    1  A    between atoms: C_3  and  C_16
REMARK    2  A    between atoms: C_9  and  C_21
REMARK    3  A    between atoms: C_26  and  O_27
REMARK                            x       y       z     vdW  Elec       q    Type
REMARK                         _______ _______ _______ _____ _____    ______ ____
ROOT
ATOM      1  N   UNL     1      34.039 -20.527 -19.881  0.00  0.00    -0.315 N 
ATOM      2  N   UNL     1      36.245 -20.261 -19.884  0.00  0.00    -0.315 N 
ATOM      3  C   UNL     1      34.641 -22.601 -16.862  0.00  0.00    +0.016 C 
ATOM      4  C   UNL     1      34.494 -21.240 -18.802  0.00  0.00    +0.059 C 
ATOM      5  C   UNL     1      33.839 -22.004 -17.837  0.00  0.00    +0.017 C 
ATOM      6  C   UNL     1      35.875 -21.058 -18.825  0.00  0.00    +0.059 C 
ATOM      7  C   UNL     1      36.025 -22.441 -16.855  0.00  0.00    +0.003 C 
ATOM      8  C   UNL     1      36.662 -21.668 -17.835  0.00  0.00    +0.016 C 
ATOM      9  C   UNL     1      35.122 -19.962 -20.495  0.00  0.00    +0.168 C 
ATOM     10  H   UNL     1      33.100 -20.439 -20.163  0.00  0.00    +0.149 HD
ATOM     11  H   UNL     1      37.156 -19.977 -20.130  0.00  0.00    +0.149 HD
ENDROOT
BRANCH   3  16
ATOM     12  O   UNL     1      32.039 -25.288 -12.808  0.00  0.00    -0.273 OA
ATOM     13  N   UNL     1      32.735 -23.731 -15.916  0.00  0.00    -0.184 NA
ATOM     14  N   UNL     1      32.132 -24.445 -14.938  0.00  0.00    -0.206 N 
ATOM     15  C   UNL     1      34.828 -23.940 -14.626  0.00  0.00    +0.051 C 
ATOM     16  C   UNL     1      33.994 -23.435 -15.795  0.00  0.00    +0.076 C 
ATOM     17  C   UNL     1      33.946 -23.971 -13.388  0.00  0.00    +0.093 C 
ATOM     18  C   UNL     1      35.403 -25.321 -14.944  0.00  0.00    +0.007 C 
ATOM     19  C   UNL     1      32.636 -24.651 -13.675  0.00  0.00    +0.241 C 
ATOM     20  H   UNL     1      31.260 -24.851 -15.148  0.00  0.00    +0.177 HD
ENDBRANCH   3  16
BRANCH   9  21
ATOM     21  C   UNL     1      34.989 -19.138 -21.673  0.00  0.00    +0.015 C 
ATOM     22  C   UNL     1      35.434 -17.817 -21.653  0.00  0.00    +0.002 C 
ATOM     23  C   UNL     1      34.413 -19.664 -22.830  0.00  0.00    +0.002 C 
ATOM     24  C   UNL     1      35.306 -17.021 -22.792  0.00  0.00    +0.037 C 
ATOM     25  C   UNL     1      34.284 -18.869 -23.968  0.00  0.00    +0.037 C 
ATOM     26  C   UNL     1      34.731 -17.547 -23.949  0.00  0.00    +0.139 C 
BRANCH  26  27
ATOM     27  O   UNL     1      34.606 -16.771 -25.060  0.00  0.00    -0.471 OA
ATOM     28  C   UNL     1      33.821 -15.585 -24.939  0.00  0.00    +0.252 C 
ENDBRANCH  26  27
ENDBRANCH   9  21
TORSDOF 3
ENDMDL
MODEL 4
REMARK VINA RESULT:     -10.4      1.611      9.439
REMARK  Name = 4823
REMARK  3 active torsions:
REMARK  status: ('A' for Active; 'I' for Inactive)
REMARK    1  A    between atoms: C_3  and  C_16
REMARK    2  A    between atoms: C_9  and  C_21
REMARK    3  A    between atoms: C_26  and  O_27
REMARK                            x       y       z     vdW  Elec       q    Type
REMARK                         _______ _______ _______ _____ _____    ______ ____
ROOT
ATOM      1  N   UNL     1      36.301 -21.615 -18.055  0.00  0.00    -0.315 N 
ATOM      2  N   UNL     1      34.271 -22.360 -17.546  0.00  0.00    -0.315 N 
ATOM      3  C   UNL     1      34.595 -19.927 -20.887  0.00  0.00    +0.016 C 
ATOM      4  C   UNL     1      35.471 -21.093 -19.012  0.00  0.00    +0.059 C 
ATOM      5  C   UNL     1      35.706 -20.268 -20.112  0.00  0.00    +0.017 C 
ATOM      6  C   UNL     1      34.208 -21.572 -18.672  0.00  0.00    +0.059 C 
ATOM      7  C   UNL     1      33.317 -20.389 -20.576  0.00  0.00    +0.003 C 
ATOM      8  C   UNL     1      33.105 -21.217 -19.467  0.00  0.00    +0.016 C 
ATOM      9  C   UNL     1      35.539 -22.364 -17.203  0.00  0.00    +0.168 C 
ATOM     10  H   UNL     1      37.274 -21.476 -17.993  0.00  0.00    +0.149 HD
ATOM     11  H   UNL     1      33.526 -22.821 -17.096  0.00  0.00    +0.149 HD
ENDROOT
BRANCH   3  16
ATOM     12  O   UNL     1      34.984 -16.381 -25.094  0.00  0.00    -0.273 OA
ATOM     13  N   UNL     1      35.427 -17.922 -21.932  0.00  0.00    -0.184 NA
ATOM     14  N   UNL     1      35.564 -17.096 -22.994  0.00  0.00    -0.206 N 
ATOM     15  C   UNL     1      34.254 -19.485 -23.439  0.00  0.00    +0.051 C 
ATOM     16  C   UNL     1      34.784 -19.041 -22.083  0.00  0.00    +0.076 C 
ATOM     17  C   UNL     1      33.795 -18.251 -24.200  0.00  0.00    +0.093 C 
ATOM     18  C   UNL     1      35.335 -20.250 -24.204  0.00  0.00    +0.007 C 
ATOM     19  C   UNL     1      34.842 -17.173 -24.162  0.00  0.00    +0.241 C 
ATOM     20  H   UNL     1      36.236 -16.380 -22.925  0.00  0.00    +0.177 HD
ENDBRANCH   3  16
BRANCH   9  21
ATOM     21  C   UNL     1      36.110 -23.057 -16.073  0.00  0.00    +0.015 C 
ATOM     22  C   UNL     1      35.341 -23.969 -15.353  0.00  0.00    +0.002 C 
ATOM     23  C   UNL     1      37.432 -22.811 -15.701  0.00  0.00    +0.002 C 
ATOM     24  C   UNL     1      35.894 -24.639 -14.261  0.00  0.00    +0.037 C 
ATOM     25  C   UNL     1      37.985 -23.480 -14.609  0.00  0.00    +0.037 C 
ATOM     26  C   UNL     1      37.215 -24.394 -13.889  0.00  0.00    +0.139 C 
BRANCH  26  27
ATOM     27  O   UNL     1      37.754 -25.047 -12.824  0.00  0.00    -0.471 OA
ATOM     28  C   UNL     1      37.270 -26.363 -12.555  0.00  0.00    +0.252 C 
ENDBRANCH  26  27
ENDBRANCH   9  21
TORSDOF 3
ENDMDL
MODEL 5
REMARK VINA RESULT:     -10.2      8.391     14.318
REMARK  Name = 4823
REMARK  3 active torsions:
REMARK  status: ('A' for Active; 'I' for Inactive)
REMARK    1  A    between atoms: C_3  and  C_16
REMARK    2  A    between atoms: C_9  and  C_21
REMARK    3  A    between atoms: C_26  and  O_27
REMARK                            x       y       z     vdW  Elec       q    Type
REMARK                         _______ _______ _______ _____ _____    ______ ____
ROOT
ATOM      1  N   UNL     1      32.703 -11.556 -23.198  0.00  0.00    -0.315 N 
ATOM      2  N   UNL     1      34.793 -11.276 -23.898  0.00  0.00    -0.315 N 
ATOM      3  C   UNL     1      32.755  -7.883 -22.666  0.00  0.00    +0.016 C 
ATOM      4  C   UNL     1      32.949 -10.213 -23.084  0.00  0.00    +0.059 C 
ATOM      5  C   UNL     1      32.163  -9.147 -22.645  0.00  0.00    +0.017 C 
ATOM      6  C   UNL     1      34.261 -10.062 -23.527  0.00  0.00    +0.059 C 
ATOM      7  C   UNL     1      34.065  -7.696 -23.104  0.00  0.00    +0.003 C 
ATOM      8  C   UNL     1      34.836  -8.781 -23.540  0.00  0.00    +0.016 C 
ATOM      9  C   UNL     1      33.834 -12.148 -23.688  0.00  0.00    +0.168 C 
ATOM     10  H   UNL     1      31.862 -12.013 -22.967  0.00  0.00    +0.149 HD
ATOM     11  H   UNL     1      35.698 -11.451 -24.245  0.00  0.00    +0.149 HD
ENDROOT
BRANCH   3  16
ATOM     12  O   UNL     1      29.768  -3.415 -21.423  0.00  0.00    -0.273 OA
ATOM     13  N   UNL     1      30.672  -6.707 -22.381  0.00  0.00    -0.184 NA
ATOM     14  N   UNL     1      29.951  -5.624 -22.012  0.00  0.00    -0.206 N 
ATOM     15  C   UNL     1      32.667  -5.535 -21.523  0.00  0.00    +0.051 C 
ATOM     16  C   UNL     1      31.959  -6.697 -22.207  0.00  0.00    +0.076 C 
ATOM     17  C   UNL     1      31.955  -4.248 -21.908  0.00  0.00    +0.093 C 
ATOM     18  C   UNL     1      32.678  -5.742 -20.008  0.00  0.00    +0.007 C 
ATOM     19  C   UNL     1      30.468  -4.380 -21.732  0.00  0.00    +0.241 C 
ATOM     20  H   UNL     1      28.976  -5.735 -21.936  0.00  0.00    +0.177 HD
ENDBRANCH   3  16
BRANCH   9  21
ATOM     21  C   UNL     1      33.910 -13.569 -23.929  0.00  0.00    +0.015 C 
ATOM     22  C   UNL     1      34.609 -14.389 -23.044  0.00  0.00    +0.002 C 
ATOM     23  C   UNL     1      33.286 -14.121 -25.048  0.00  0.00    +0.002 C 
ATOM     24  C   UNL     1      34.682 -15.763 -23.277  0.00  0.00    +0.037 C 
ATOM     25  C   UNL     1      33.359 -15.494 -25.281  0.00  0.00    +0.037 C 
ATOM     26  C   UNL     1      34.058 -16.315 -24.395  0.00  0.00    +0.139 C 
BRANCH  26  27
ATOM     27  O   UNL     1      34.130 -17.654 -24.622  0.00  0.00    -0.471 OA
ATOM     28  C   UNL     1      34.611 -18.470 -23.555  0.00  0.00    +0.252 C 
ENDBRANCH  26  27
ENDBRANCH   9  21
TORSDOF 3
ENDMDL
MODEL 6
REMARK VINA RESULT:     -10.1      8.442     14.396
REMARK  Name = 4823
REMARK  3 active torsions:
REMARK  status: ('A' for Active; 'I' for Inactive)
REMARK    1  A    between atoms: C_3  and  C_16
REMARK    2  A    between atoms: C_9  and  C_21
REMARK    3  A    between atoms: C_26  and  O_27
REMARK                            x       y       z     vdW  Elec       q    Type
REMARK                         _______ _______ _______ _____ _____    ______ ____
ROOT
ATOM      1  N   UNL     1      33.283 -11.125 -23.619  0.00  0.00    -0.315 N 
ATOM      2  N   UNL     1      32.468 -12.092 -21.791  0.00  0.00    -0.315 N 
ATOM      3  C   UNL     1      32.175  -7.963 -22.020  0.00  0.00    +0.016 C 
ATOM      4  C   UNL     1      32.798 -10.100 -22.848  0.00  0.00    +0.059 C 
ATOM      5  C   UNL     1      32.757  -8.719 -23.040  0.00  0.00    +0.017 C 
ATOM      6  C   UNL     1      32.295 -10.729 -21.712  0.00  0.00    +0.059 C 
ATOM      7  C   UNL     1      31.661  -8.559 -20.870  0.00  0.00    +0.003 C 
ATOM      8  C   UNL     1      31.713  -9.949 -20.699  0.00  0.00    +0.016 C 
ATOM      9  C   UNL     1      33.062 -12.293 -22.945  0.00  0.00    +0.168 C 
ATOM     10  H   UNL     1      33.712 -11.034 -24.500  0.00  0.00    +0.149 HD
ATOM     11  H   UNL     1      32.203 -12.768 -21.126  0.00  0.00    +0.149 HD
ENDROOT
BRANCH   3  16
ATOM     12  O   UNL     1      31.484  -2.503 -22.387  0.00  0.00    -0.273 OA
ATOM     13  N   UNL     1      32.140  -5.739 -21.095  0.00  0.00    -0.184 NA
ATOM     14  N   UNL     1      32.031  -4.396 -21.215  0.00  0.00    -0.206 N 
ATOM     15  C   UNL     1      32.023  -5.855 -23.558  0.00  0.00    +0.051 C 
ATOM     16  C   UNL     1      32.103  -6.471 -22.167  0.00  0.00    +0.076 C 
ATOM     17  C   UNL     1      31.164  -4.604 -23.478  0.00  0.00    +0.093 C 
ATOM     18  C   UNL     1      33.428  -5.543 -24.078  0.00  0.00    +0.007 C 
ATOM     19  C   UNL     1      31.590  -3.728 -22.333  0.00  0.00    +0.241 C 
ATOM     20  H   UNL     1      32.288  -3.851 -20.436  0.00  0.00    +0.177 HD
ENDBRANCH   3  16
BRANCH   9  21
ATOM     21  C   UNL     1      33.458 -13.573 -23.484  0.00  0.00    +0.015 C 
ATOM     22  C   UNL     1      33.009 -13.967 -24.744  0.00  0.00    +0.002 C 
ATOM     23  C   UNL     1      34.288 -14.415 -22.743  0.00  0.00    +0.002 C 
ATOM     24  C   UNL     1      33.392 -15.203 -25.265  0.00  0.00    +0.037 C 
ATOM     25  C   UNL     1      34.670 -15.650 -23.264  0.00  0.00    +0.037 C 
ATOM     26  C   UNL     1      34.222 -16.045 -24.525  0.00  0.00    +0.139 C 
BRANCH  26  27
ATOM     27  O   UNL     1      34.595 -17.251 -25.033  0.00  0.00    -0.471 OA
ATOM     28  C   UNL     1      34.200 -18.413 -24.306  0.00  0.00    +0.252 C 
ENDBRANCH  26  27
ENDBRANCH   9  21
TORSDOF 3
ENDMDL
MODEL 7
REMARK VINA RESULT:     -10.1      7.449     13.727
REMARK  Name = 4823
REMARK  3 active torsions:
REMARK  status: ('A' for Active; 'I' for Inactive)
REMARK    1  A    between atoms: C_3  and  C_16
REMARK    2  A    between atoms: C_9  and  C_21
REMARK    3  A    between atoms: C_26  and  O_27
REMARK                            x       y       z     vdW  Elec       q    Type
REMARK                         _______ _______ _______ _____ _____    ______ ____
ROOT
ATOM      1  N   UNL     1      34.330 -12.486 -23.140  0.00  0.00    -0.315 N 
ATOM      2  N   UNL     1      32.477 -13.174 -22.125  0.00  0.00    -0.315 N 
ATOM      3  C   UNL     1      32.608  -9.202 -23.304  0.00  0.00    +0.016 C 
ATOM      4  C   UNL     1      33.513 -11.387 -23.088  0.00  0.00    +0.059 C 
ATOM      5  C   UNL     1      33.674 -10.074 -23.530  0.00  0.00    +0.017 C 
ATOM      6  C   UNL     1      32.362 -11.842 -22.449  0.00  0.00    +0.059 C 
ATOM      7  C   UNL     1      31.441  -9.624 -22.668  0.00  0.00    +0.003 C 
ATOM      8  C   UNL     1      31.301 -10.947 -22.232  0.00  0.00    +0.016 C 
ATOM      9  C   UNL     1      33.668 -13.527 -22.552  0.00  0.00    +0.168 C 
ATOM     10  H   UNL     1      35.233 -12.519 -23.531  0.00  0.00    +0.149 HD
ATOM     11  H   UNL     1      31.811 -13.739 -21.670  0.00  0.00    +0.149 HD
ENDROOT
BRANCH   3  16
ATOM     12  O   UNL     1      33.217  -4.118 -25.353  0.00  0.00    -0.273 OA
ATOM     13  N   UNL     1      31.939  -7.360 -24.705  0.00  0.00    -0.184 NA
ATOM     14  N   UNL     1      32.065  -6.089 -25.150  0.00  0.00    -0.206 N 
ATOM     15  C   UNL     1      33.719  -6.848 -23.074  0.00  0.00    +0.051 C 
ATOM     16  C   UNL     1      32.722  -7.776 -23.756  0.00  0.00    +0.076 C 
ATOM     17  C   UNL     1      34.255  -5.876 -24.112  0.00  0.00    +0.093 C 
ATOM     18  C   UNL     1      33.048  -6.116 -21.910  0.00  0.00    +0.007 C 
ATOM     19  C   UNL     1      33.135  -5.261 -24.906  0.00  0.00    +0.241 C 
ATOM     20  H   UNL     1      31.328  -5.726 -25.694  0.00  0.00    +0.177 HD
ENDBRANCH   3  16
BRANCH   9  21
ATOM     21  C   UNL     1      34.255 -14.841 -22.440  0.00  0.00    +0.015 C 
ATOM     22  C   UNL     1      34.617 -15.338 -21.189  0.00  0.00    +0.002 C 
ATOM     23  C   UNL     1      34.462 -15.612 -23.584  0.00  0.00    +0.002 C 
ATOM     24  C   UNL     1      35.185 -16.608 -21.080  0.00  0.00    +0.037 C 
ATOM     25  C   UNL     1      35.030 -16.881 -23.476  0.00  0.00    +0.037 C 
ATOM     26  C   UNL     1      35.391 -17.379 -22.223  0.00  0.00    +0.139 C 
BRANCH  26  27
ATOM     27  O   UNL     1      35.945 -18.618 -22.117  0.00  0.00    -0.471 OA
ATOM     28  C   UNL     1      35.556 -19.410 -20.995  0.00  0.00    +0.252 C 
ENDBRANCH  26  27
ENDBRANCH   9  21
TORSDOF 3
ENDMDL
MODEL 8
REMARK VINA RESULT:     -10.0      7.579     13.913
REMARK  Name = 4823
REMARK  3 active torsions:
REMARK  status: ('A' for Active; 'I' for Inactive)
REMARK    1  A    between atoms: C_3  and  C_16
REMARK    2  A    between atoms: C_9  and  C_21
REMARK    3  A    between atoms: C_26  and  O_27
REMARK                            x       y       z     vdW  Elec       q    Type
REMARK                         _______ _______ _______ _____ _____    ______ ____
ROOT
ATOM      1  N   UNL     1      34.258 -12.220 -23.311  0.00  0.00    -0.315 N 
ATOM      2  N   UNL     1      32.415 -12.958 -22.313  0.00  0.00    -0.315 N 
ATOM      3  C   UNL     1      32.595  -8.905 -23.163  0.00  0.00    +0.016 C 
ATOM      4  C   UNL     1      33.463 -11.115 -23.150  0.00  0.00    +0.059 C 
ATOM      5  C   UNL     1      33.640  -9.773 -23.486  0.00  0.00    +0.017 C 
ATOM      6  C   UNL     1      32.318 -11.602 -22.524  0.00  0.00    +0.059 C 
ATOM      7  C   UNL     1      31.435  -9.358 -22.537  0.00  0.00    +0.003 C 
ATOM      8  C   UNL     1      31.279 -10.710 -22.208  0.00  0.00    +0.016 C 
ATOM      9  C   UNL     1      33.589 -13.295 -22.796  0.00  0.00    +0.168 C 
ATOM     10  H   UNL     1      35.152 -12.236 -23.725  0.00  0.00    +0.149 HD
ATOM     11  H   UNL     1      31.749 -13.548 -21.891  0.00  0.00    +0.149 HD
ENDROOT
BRANCH   3  16
ATOM     12  O   UNL     1      32.705  -3.598 -24.662  0.00  0.00    -0.273 OA
ATOM     13  N   UNL     1      31.854  -6.618 -23.011  0.00  0.00    -0.184 NA
ATOM     14  N   UNL     1      31.938  -5.309 -23.343  0.00  0.00    -0.206 N 
ATOM     15  C   UNL     1      33.887  -6.977 -24.364  0.00  0.00    +0.051 C 
ATOM     16  C   UNL     1      32.726  -7.448 -23.498  0.00  0.00    +0.076 C 
ATOM     17  C   UNL     1      33.406  -5.814 -25.217  0.00  0.00    +0.093 C 
ATOM     18  C   UNL     1      35.074  -6.579 -23.485  0.00  0.00    +0.007 C 
ATOM     19  C   UNL     1      32.679  -4.796 -24.381  0.00  0.00    +0.241 C 
ATOM     20  H   UNL     1      31.426  -4.671 -22.796  0.00  0.00    +0.177 HD
ENDBRANCH   3  16
BRANCH   9  21
ATOM     21  C   UNL     1      34.154 -14.623 -22.807  0.00  0.00    +0.015 C 
ATOM     22  C   UNL     1      34.201 -15.351 -23.995  0.00  0.00    +0.002 C 
ATOM     23  C   UNL     1      34.651 -15.179 -21.628  0.00  0.00    +0.002 C 
ATOM     24  C   UNL     1      34.747 -16.635 -24.006  0.00  0.00    +0.037 C 
ATOM     25  C   UNL     1      35.197 -16.462 -21.638  0.00  0.00    +0.037 C 
ATOM     26  C   UNL     1      35.245 -17.190 -22.827  0.00  0.00    +0.139 C 
BRANCH  26  27
ATOM     27  O   UNL     1      35.777 -18.443 -22.837  0.00  0.00    -0.471 OA
ATOM     28  C   UNL     1      34.862 -19.538 -22.862  0.00  0.00    +0.252 C 
ENDBRANCH  26  27
ENDBRANCH   9  21
TORSDOF 3
ENDMDL
MODEL 9
REMARK VINA RESULT:     -10.0      5.055     11.426
REMARK  Name = 4823
REMARK  3 active torsions:
REMARK  status: ('A' for Active; 'I' for Inactive)
REMARK    1  A    between atoms: C_3  and  C_16
REMARK    2  A    between atoms: C_9  and  C_21
REMARK    3  A    between atoms: C_26  and  O_27
REMARK                            x       y       z     vdW  Elec       q    Type
REMARK                         _______ _______ _______ _____ _____    ______ ____
ROOT
ATOM      1  N   UNL     1      34.615 -15.808 -21.154  0.00  0.00    -0.315 N 
ATOM      2  N   UNL     1      34.752 -16.748 -23.163  0.00  0.00    -0.315 N 
ATOM      3  C   UNL     1      33.427 -12.823 -23.012  0.00  0.00    +0.016 C 
ATOM      4  C   UNL     1      34.206 -14.843 -22.037  0.00  0.00    +0.059 C 
ATOM      5  C   UNL     1      33.774 -13.529 -21.859  0.00  0.00    +0.017 C 
ATOM      6  C   UNL     1      34.299 -15.454 -23.285  0.00  0.00    +0.059 C 
ATOM      7  C   UNL     1      33.509 -13.403 -24.277  0.00  0.00    +0.003 C 
ATOM      8  C   UNL     1      33.946 -14.725 -24.432  0.00  0.00    +0.016 C 
ATOM      9  C   UNL     1      34.931 -16.926 -21.874  0.00  0.00    +0.168 C 
ATOM     10  H   UNL     1      34.673 -15.712 -20.175  0.00  0.00    +0.149 HD
ATOM     11  H   UNL     1      34.908 -17.398 -23.886  0.00  0.00    +0.149 HD
ENDROOT
BRANCH   3  16
ATOM     12  O   UNL     1      31.265  -7.761 -22.652  0.00  0.00    -0.273 OA
ATOM     13  N   UNL     1      32.216 -11.085 -21.865  0.00  0.00    -0.184 NA
ATOM     14  N   UNL     1      31.748  -9.820 -21.765  0.00  0.00    -0.206 N 
ATOM     15  C   UNL     1      33.372 -10.376 -23.927  0.00  0.00    +0.051 C 
ATOM     16  C   UNL     1      32.953 -11.405 -22.886  0.00  0.00    +0.076 C 
ATOM     17  C   UNL     1      32.230  -9.389 -24.111  0.00  0.00    +0.093 C 
ATOM     18  C   UNL     1      34.659  -9.675 -23.489  0.00  0.00    +0.007 C 
ATOM     19  C   UNL     1      31.725  -8.896 -22.783  0.00  0.00    +0.241 C 
ATOM     20  H   UNL     1      31.395  -9.537 -20.891  0.00  0.00    +0.177 HD
ENDBRANCH   3  16
BRANCH   9  21
ATOM     21  C   UNL     1      35.400 -18.136 -21.241  0.00  0.00    +0.015 C 
ATOM     22  C   UNL     1      34.486 -19.097 -20.812  0.00  0.00    +0.002 C 
ATOM     23  C   UNL     1      36.768 -18.341 -21.058  0.00  0.00    +0.002 C 
ATOM     24  C   UNL     1      34.939 -20.267 -20.201  0.00  0.00    +0.037 C 
ATOM     25  C   UNL     1      37.221 -19.510 -20.446  0.00  0.00    +0.037 C 
ATOM     26  C   UNL     1      36.306 -20.473 -20.018  0.00  0.00    +0.139 C 
BRANCH  26  27
ATOM     27  O   UNL     1      36.748 -21.613 -19.421  0.00  0.00    -0.471 OA
ATOM     28  C   UNL     1      36.480 -21.764 -18.028  0.00  0.00    +0.252 C 
ENDBRANCH  26  27
ENDBRANCH   9  21
TORSDOF 3
ENDMDL
