MODEL 1
REMARK VINA RESULT:     -11.4      0.000      0.000
REMARK  Name = 11992146
REMARK  2 active torsions:
REMARK  status: ('A' for Active; 'I' for Inactive)
REMARK    1  A    between atoms: C_2  and  C_14
REMARK    2  A    between atoms: C_5  and  C_20
REMARK                            x       y       z     vdW  Elec       q    Type
REMARK                         _______ _______ _______ _____ _____    ______ ____
ROOT
ATOM      1  N   UNL     1      32.219 -22.437 -17.612  0.00  0.00    -0.244 NA
ATOM      2  C   UNL     1      33.984 -23.430 -15.687  0.00  0.00    +0.016 C 
ATOM      3  C   UNL     1      34.470 -22.708 -16.771  0.00  0.00    +0.020 C 
ATOM      4  C   UNL     1      32.619 -23.657 -15.563  0.00  0.00    +0.022 C 
ATOM      5  C   UNL     1      33.553 -22.237 -17.698  0.00  0.00    +0.084 C 
ATOM      6  C   UNL     1      31.785 -23.144 -16.545  0.00  0.00    +0.099 C 
ENDROOT
BRANCH   2  14
ATOM      7  O   UNL     1      37.398 -27.248 -13.399  0.00  0.00    -0.270 OA
ATOM      8  N   UNL     1      35.184 -23.248 -13.545  0.00  0.00    -0.316 N 
ATOM      9  N   UNL     1      37.929 -25.705 -11.763  0.00  0.00    -0.300 N 
ATOM     10  C   UNL     1      36.065 -23.975 -12.796  0.00  0.00    +0.031 C 
ATOM     11  C   UNL     1      36.609 -23.595 -11.472  0.00  0.00    +0.063 C 
ATOM     12  C   UNL     1      36.353 -25.146 -13.467  0.00  0.00    +0.064 C 
ATOM     13  C   UNL     1      37.952 -24.314 -11.294  0.00  0.00    +0.096 C 
ATOM     14  C   UNL     1      34.895 -23.944 -14.692  0.00  0.00    +0.048 C 
ATOM     15  C   UNL     1      35.603 -25.130 -14.668  0.00  0.00    +0.020 C 
ATOM     16  C   UNL     1      37.258 -26.131 -12.909  0.00  0.00    +0.247 C 
ATOM     17  H   UNL     1      34.817 -22.367 -13.300  0.00  0.00    +0.152 HD
ATOM     18  H   UNL     1      38.418 -26.378 -11.236  0.00  0.00    +0.150 HD
ENDBRANCH   2  14
BRANCH   5  20
ATOM     19  F   UNL     1      36.253 -22.074 -18.461  0.00  0.00    -0.204 F 
ATOM     20  C   UNL     1      33.983 -21.479 -18.849  0.00  0.00    +0.045 C 
ATOM     21  C   UNL     1      35.336 -21.424 -19.191  0.00  0.00    +0.142 C 
ATOM     22  C   UNL     1      33.043 -20.796 -19.623  0.00  0.00    +0.004 C 
ATOM     23  C   UNL     1      35.746 -20.686 -20.303  0.00  0.00    +0.030 C 
ATOM     24  C   UNL     1      33.453 -20.060 -20.734  0.00  0.00    +0.000 C 
ATOM     25  C   UNL     1      34.805 -20.004 -21.074  0.00  0.00    +0.002 C 
ENDBRANCH   5  20
TORSDOF 2
ENDMDL
MODEL 2
REMARK VINA RESULT:     -11.1     11.114     14.689
REMARK  Name = 11992146
REMARK  2 active torsions:
REMARK  status: ('A' for Active; 'I' for Inactive)
REMARK    1  A    between atoms: C_2  and  C_14
REMARK    2  A    between atoms: C_5  and  C_20
REMARK                            x       y       z     vdW  Elec       q    Type
REMARK                         _______ _______ _______ _____ _____    ______ ____
ROOT
ATOM      1  N   UNL     1      32.087  -8.757 -22.001  0.00  0.00    -0.244 NA
ATOM      2  C   UNL     1      32.883 -11.365 -22.610  0.00  0.00    +0.016 C 
ATOM      3  C   UNL     1      33.430 -10.291 -23.302  0.00  0.00    +0.020 C 
ATOM      4  C   UNL     1      31.939 -11.139 -21.615  0.00  0.00    +0.022 C 
ATOM      5  C   UNL     1      33.002  -9.017 -22.962  0.00  0.00    +0.084 C 
ATOM      6  C   UNL     1      31.578  -9.827 -21.351  0.00  0.00    +0.099 C 
ENDROOT
BRANCH   2  14
ATOM      7  O   UNL     1      33.259 -15.956 -25.811  0.00  0.00    -0.270 OA
ATOM      8  N   UNL     1      33.950 -13.503 -22.013  0.00  0.00    -0.316 N 
ATOM      9  N   UNL     1      34.627 -16.893 -24.202  0.00  0.00    -0.300 N 
ATOM     10  C   UNL     1      34.204 -14.717 -22.583  0.00  0.00    +0.031 C 
ATOM     11  C   UNL     1      34.871 -15.867 -21.930  0.00  0.00    +0.063 C 
ATOM     12  C   UNL     1      33.716 -14.710 -23.873  0.00  0.00    +0.064 C 
ATOM     13  C   UNL     1      35.496 -16.734 -23.029  0.00  0.00    +0.096 C 
ATOM     14  C   UNL     1      33.293 -12.713 -22.924  0.00  0.00    +0.048 C 
ATOM     15  C   UNL     1      33.129 -13.440 -24.087  0.00  0.00    +0.020 C 
ATOM     16  C   UNL     1      33.832 -15.875 -24.728  0.00  0.00    +0.247 C 
ATOM     17  H   UNL     1      34.197 -13.237 -21.097  0.00  0.00    +0.152 HD
ATOM     18  H   UNL     1      34.604 -17.773 -24.644  0.00  0.00    +0.150 HD
ENDBRANCH   2  14
BRANCH   5  20
ATOM     19  F   UNL     1      31.480  -7.546 -24.810  0.00  0.00    -0.204 F 
ATOM     20  C   UNL     1      33.525  -7.852 -23.636  0.00  0.00    +0.045 C 
ATOM     21  C   UNL     1      32.734  -7.152 -24.549  0.00  0.00    +0.142 C 
ATOM     22  C   UNL     1      34.828  -7.425 -23.376  0.00  0.00    +0.004 C 
ATOM     23  C   UNL     1      33.246  -6.029 -25.200  0.00  0.00    +0.030 C 
ATOM     24  C   UNL     1      35.340  -6.303 -24.027  0.00  0.00    +0.000 C 
ATOM     25  C   UNL     1      34.549  -5.604 -24.939  0.00  0.00    +0.002 C 
ENDBRANCH   5  20
TORSDOF 2
ENDMDL
MODEL 3
REMARK VINA RESULT:     -11.1      0.990      1.409
REMARK  Name = 11992146
REMARK  2 active torsions:
REMARK  status: ('A' for Active; 'I' for Inactive)
REMARK    1  A    between atoms: C_2  and  C_14
REMARK    2  A    between atoms: C_5  and  C_20
REMARK                            x       y       z     vdW  Elec       q    Type
REMARK                         _______ _______ _______ _____ _____    ______ ____
ROOT
ATOM      1  N   UNL     1      32.547 -22.390 -17.870  0.00  0.00    -0.244 NA
ATOM      2  C   UNL     1      34.222 -23.345 -15.848  0.00  0.00    +0.016 C 
ATOM      3  C   UNL     1      34.753 -22.617 -16.906  0.00  0.00    +0.020 C 
ATOM      4  C   UNL     1      32.856 -23.598 -15.799  0.00  0.00    +0.022 C 
ATOM      5  C   UNL     1      33.880 -22.165 -17.883  0.00  0.00    +0.084 C 
ATOM      6  C   UNL     1      32.068 -23.102 -16.827  0.00  0.00    +0.099 C 
ENDROOT
BRANCH   2  14
ATOM      7  O   UNL     1      37.310 -27.205 -13.197  0.00  0.00    -0.270 OA
ATOM      8  N   UNL     1      35.428 -23.070 -13.719  0.00  0.00    -0.316 N 
ATOM      9  N   UNL     1      37.961 -25.570 -11.700  0.00  0.00    -0.300 N 
ATOM     10  C   UNL     1      36.245 -23.796 -12.901  0.00  0.00    +0.031 C 
ATOM     11  C   UNL     1      36.816 -23.344 -11.611  0.00  0.00    +0.063 C 
ATOM     12  C   UNL     1      36.439 -25.040 -13.463  0.00  0.00    +0.064 C 
ATOM     13  C   UNL     1      38.095 -24.150 -11.356  0.00  0.00    +0.096 C 
ATOM     14  C   UNL     1      35.086 -23.840 -14.803  0.00  0.00    +0.048 C 
ATOM     15  C   UNL     1      35.695 -25.072 -14.667  0.00  0.00    +0.020 C 
ATOM     16  C   UNL     1      37.260 -26.041 -12.810  0.00  0.00    +0.247 C 
ATOM     17  H   UNL     1      35.132 -22.144 -13.557  0.00  0.00    +0.152 HD
ATOM     18  H   UNL     1      38.393 -26.231 -11.111  0.00  0.00    +0.150 HD
ENDBRANCH   2  14
BRANCH   5  20
ATOM     19  F   UNL     1      32.204 -20.454 -19.352  0.00  0.00    -0.204 F 
ATOM     20  C   UNL     1      34.358 -21.402 -19.012  0.00  0.00    +0.045 C 
ATOM     21  C   UNL     1      33.490 -20.564 -19.715  0.00  0.00    +0.142 C 
ATOM     22  C   UNL     1      35.695 -21.501 -19.403  0.00  0.00    +0.004 C 
ATOM     23  C   UNL     1      33.956 -19.831 -20.807  0.00  0.00    +0.030 C 
ATOM     24  C   UNL     1      36.161 -20.769 -20.494  0.00  0.00    +0.000 C 
ATOM     25  C   UNL     1      35.292 -19.934 -21.197  0.00  0.00    +0.002 C 
ENDBRANCH   5  20
TORSDOF 2
ENDMDL
MODEL 4
REMARK VINA RESULT:     -10.9      1.370      1.726
REMARK  Name = 11992146
REMARK  2 active torsions:
REMARK  status: ('A' for Active; 'I' for Inactive)
REMARK    1  A    between atoms: C_2  and  C_14
REMARK    2  A    between atoms: C_5  and  C_20
REMARK                            x       y       z     vdW  Elec       q    Type
REMARK                         _______ _______ _______ _____ _____    ______ ____
ROOT
ATOM      1  N   UNL     1      32.694 -22.410 -17.970  0.00  0.00    -0.244 NA
ATOM      2  C   UNL     1      34.444 -23.207 -15.943  0.00  0.00    +0.016 C 
ATOM      3  C   UNL     1      34.910 -22.437 -17.002  0.00  0.00    +0.020 C 
ATOM      4  C   UNL     1      33.106 -23.580 -15.895  0.00  0.00    +0.022 C 
ATOM      5  C   UNL     1      34.002 -22.068 -17.982  0.00  0.00    +0.084 C 
ATOM      6  C   UNL     1      32.279 -23.160 -16.925  0.00  0.00    +0.099 C 
ENDROOT
BRANCH   2  14
ATOM      7  O   UNL     1      37.936 -22.409 -11.627  0.00  0.00    -0.270 OA
ATOM      8  N   UNL     1      35.719 -24.931 -14.732  0.00  0.00    -0.316 N 
ATOM      9  N   UNL     1      38.096 -24.704 -11.409  0.00  0.00    -0.300 N 
ATOM     10  C   UNL     1      36.576 -25.019 -13.673  0.00  0.00    +0.031 C 
ATOM     11  C   UNL     1      37.232 -26.252 -13.179  0.00  0.00    +0.063 C 
ATOM     12  C   UNL     1      36.754 -23.758 -13.143  0.00  0.00    +0.064 C 
ATOM     13  C   UNL     1      37.569 -26.043 -11.698  0.00  0.00    +0.096 C 
ATOM     14  C   UNL     1      35.347 -23.620 -14.895  0.00  0.00    +0.048 C 
ATOM     15  C   UNL     1      35.980 -22.867 -13.925  0.00  0.00    +0.020 C 
ATOM     16  C   UNL     1      37.627 -23.535 -12.007  0.00  0.00    +0.247 C 
ATOM     17  H   UNL     1      35.416 -25.687 -15.287  0.00  0.00    +0.152 HD
ATOM     18  H   UNL     1      38.826 -24.627 -10.752  0.00  0.00    +0.150 HD
ENDBRANCH   2  14
BRANCH   5  20
ATOM     19  F   UNL     1      36.698 -21.795 -18.724  0.00  0.00    -0.204 F 
ATOM     20  C   UNL     1      34.412 -21.268 -19.112  0.00  0.00    +0.045 C 
ATOM     21  C   UNL     1      35.764 -21.159 -19.444  0.00  0.00    +0.142 C 
ATOM     22  C   UNL     1      33.454 -20.599 -19.875  0.00  0.00    +0.004 C 
ATOM     23  C   UNL     1      36.155 -20.382 -20.535  0.00  0.00    +0.030 C 
ATOM     24  C   UNL     1      33.844 -19.822 -20.965  0.00  0.00    +0.000 C 
ATOM     25  C   UNL     1      35.195 -19.713 -21.296  0.00  0.00    +0.002 C 
ENDBRANCH   5  20
TORSDOF 2
ENDMDL
MODEL 5
REMARK VINA RESULT:     -10.8      5.973     10.668
REMARK  Name = 11992146
REMARK  2 active torsions:
REMARK  status: ('A' for Active; 'I' for Inactive)
REMARK    1  A    between atoms: C_2  and  C_14
REMARK    2  A    between atoms: C_5  and  C_20
REMARK                            x       y       z     vdW  Elec       q    Type
REMARK                         _______ _______ _______ _____ _____    ______ ____
ROOT
ATOM      1  N   UNL     1      36.957 -20.192 -20.255  0.00  0.00    -0.244 NA
ATOM      2  C   UNL     1      35.793 -18.058 -21.632  0.00  0.00    +0.016 C 
ATOM      3  C   UNL     1      34.999 -18.920 -20.885  0.00  0.00    +0.020 C 
ATOM      4  C   UNL     1      37.166 -18.259 -21.693  0.00  0.00    +0.022 C 
ATOM      5  C   UNL     1      35.625 -19.963 -20.221  0.00  0.00    +0.084 C 
ATOM      6  C   UNL     1      37.695 -19.333 -20.992  0.00  0.00    +0.099 C 
ENDROOT
BRANCH   2  14
ATOM      7  O   UNL     1      33.423 -15.535 -26.046  0.00  0.00    -0.270 OA
ATOM      8  N   UNL     1      35.097 -15.701 -21.793  0.00  0.00    -0.316 N 
ATOM      9  N   UNL     1      33.111 -13.660 -24.731  0.00  0.00    -0.300 N 
ATOM     10  C   UNL     1      34.493 -14.868 -22.691  0.00  0.00    +0.031 C 
ATOM     11  C   UNL     1      34.225 -13.424 -22.500  0.00  0.00    +0.063 C 
ATOM     12  C   UNL     1      34.190 -15.589 -23.827  0.00  0.00    +0.064 C 
ATOM     13  C   UNL     1      33.044 -13.044 -23.401  0.00  0.00    +0.096 C 
ATOM     14  C   UNL     1      35.193 -16.955 -22.344  0.00  0.00    +0.048 C 
ATOM     15  C   UNL     1      34.642 -16.913 -23.610  0.00  0.00    +0.020 C 
ATOM     16  C   UNL     1      33.547 -14.964 -24.966  0.00  0.00    +0.247 C 
ATOM     17  H   UNL     1      35.412 -15.443 -20.896  0.00  0.00    +0.152 HD
ATOM     18  H   UNL     1      32.830 -13.120 -25.506  0.00  0.00    +0.150 HD
ENDBRANCH   2  14
BRANCH   5  20
ATOM     19  F   UNL     1      32.833 -20.192 -20.435  0.00  0.00    -0.204 F 
ATOM     20  C   UNL     1      34.867 -20.899 -19.425  0.00  0.00    +0.045 C 
ATOM     21  C   UNL     1      33.479 -20.979 -19.562  0.00  0.00    +0.142 C 
ATOM     22  C   UNL     1      35.522 -21.728 -18.512  0.00  0.00    +0.004 C 
ATOM     23  C   UNL     1      32.751 -21.883 -18.788  0.00  0.00    +0.030 C 
ATOM     24  C   UNL     1      34.794 -22.631 -17.738  0.00  0.00    +0.000 C 
ATOM     25  C   UNL     1      33.408 -22.709 -17.876  0.00  0.00    +0.002 C 
ENDBRANCH   5  20
TORSDOF 2
ENDMDL
MODEL 6
REMARK VINA RESULT:     -10.6     10.956     14.326
REMARK  Name = 11992146
REMARK  2 active torsions:
REMARK  status: ('A' for Active; 'I' for Inactive)
REMARK    1  A    between atoms: C_2  and  C_14
REMARK    2  A    between atoms: C_5  and  C_20
REMARK                            x       y       z     vdW  Elec       q    Type
REMARK                         _______ _______ _______ _____ _____    ______ ____
ROOT
ATOM      1  N   UNL     1      31.302  -9.451 -20.535  0.00  0.00    -0.244 NA
ATOM      2  C   UNL     1      32.382 -11.743 -21.713  0.00  0.00    +0.016 C 
ATOM      3  C   UNL     1      32.442 -10.523 -22.378  0.00  0.00    +0.020 C 
ATOM      4  C   UNL     1      31.783 -11.819 -20.462  0.00  0.00    +0.022 C 
ATOM      5  C   UNL     1      31.892  -9.417 -21.751  0.00  0.00    +0.084 C 
ATOM      6  C   UNL     1      31.262 -10.654 -19.921  0.00  0.00    +0.099 C 
ENDROOT
BRANCH   2  14
ATOM      7  O   UNL     1      33.233 -15.412 -25.870  0.00  0.00    -0.270 OA
ATOM      8  N   UNL     1      33.698 -13.822 -21.607  0.00  0.00    -0.316 N 
ATOM      9  N   UNL     1      34.726 -16.525 -24.502  0.00  0.00    -0.300 N 
ATOM     10  C   UNL     1      34.082 -14.837 -22.436  0.00  0.00    +0.031 C 
ATOM     11  C   UNL     1      34.887 -16.020 -22.054  0.00  0.00    +0.063 C 
ATOM     12  C   UNL     1      33.575 -14.594 -23.695  0.00  0.00    +0.064 C 
ATOM     13  C   UNL     1      35.589 -16.536 -23.315  0.00  0.00    +0.096 C 
ATOM     14  C   UNL     1      32.939 -12.927 -22.321  0.00  0.00    +0.048 C 
ATOM     15  C   UNL     1      32.841 -13.385 -23.621  0.00  0.00    +0.020 C 
ATOM     16  C   UNL     1      33.810 -15.513 -24.792  0.00  0.00    +0.247 C 
ATOM     17  H   UNL     1      33.928 -13.744 -20.652  0.00  0.00    +0.152 HD
ATOM     18  H   UNL     1      34.797 -17.278 -25.133  0.00  0.00    +0.150 HD
ENDBRANCH   2  14
BRANCH   5  20
ATOM     19  F   UNL     1      33.772  -7.450 -21.048  0.00  0.00    -0.204 F 
ATOM     20  C   UNL     1      31.917  -8.117 -22.379  0.00  0.00    +0.045 C 
ATOM     21  C   UNL     1      32.869  -7.169 -21.998  0.00  0.00    +0.142 C 
ATOM     22  C   UNL     1      30.986  -7.805 -23.371  0.00  0.00    +0.004 C 
ATOM     23  C   UNL     1      32.887  -5.913 -22.606  0.00  0.00    +0.030 C 
ATOM     24  C   UNL     1      31.004  -6.550 -23.979  0.00  0.00    +0.000 C 
ATOM     25  C   UNL     1      31.954  -5.604 -23.596  0.00  0.00    +0.002 C 
ENDBRANCH   5  20
TORSDOF 2
ENDMDL
MODEL 7
REMARK VINA RESULT:     -10.6      2.993      7.528
REMARK  Name = 11992146
REMARK  2 active torsions:
REMARK  status: ('A' for Active; 'I' for Inactive)
REMARK    1  A    between atoms: C_2  and  C_14
REMARK    2  A    between atoms: C_5  and  C_20
REMARK                            x       y       z     vdW  Elec       q    Type
REMARK                         _______ _______ _______ _____ _____    ______ ____
ROOT
ATOM      1  N   UNL     1      33.668 -24.667 -13.748  0.00  0.00    -0.244 NA
ATOM      2  C   UNL     1      33.966 -23.202 -16.108  0.00  0.00    +0.016 C 
ATOM      3  C   UNL     1      35.087 -23.655 -15.423  0.00  0.00    +0.020 C 
ATOM      4  C   UNL     1      32.696 -23.478 -15.616  0.00  0.00    +0.022 C 
ATOM      5  C   UNL     1      34.886 -24.378 -14.258  0.00  0.00    +0.084 C 
ATOM      6  C   UNL     1      32.602 -24.209 -14.441  0.00  0.00    +0.099 C 
ENDROOT
BRANCH   2  14
ATOM      7  O   UNL     1      32.165 -20.515 -20.690  0.00  0.00    -0.270 OA
ATOM      8  N   UNL     1      35.354 -22.148 -17.848  0.00  0.00    -0.316 N 
ATOM      9  N   UNL     1      34.351 -19.900 -21.117  0.00  0.00    -0.300 N 
ATOM     10  C   UNL     1      35.189 -21.432 -18.999  0.00  0.00    +0.031 C 
ATOM     11  C   UNL     1      36.269 -20.940 -19.885  0.00  0.00    +0.063 C 
ATOM     12  C   UNL     1      33.838 -21.257 -19.219  0.00  0.00    +0.064 C 
ATOM     13  C   UNL     1      35.731 -19.724 -20.648  0.00  0.00    +0.096 C 
ATOM     14  C   UNL     1      34.119 -22.444 -17.327  0.00  0.00    +0.048 C 
ATOM     15  C   UNL     1      33.158 -21.907 -18.162  0.00  0.00    +0.020 C 
ATOM     16  C   UNL     1      33.353 -20.537 -20.380  0.00  0.00    +0.247 C 
ATOM     17  H   UNL     1      36.219 -22.410 -17.456  0.00  0.00    +0.152 HD
ATOM     18  H   UNL     1      34.116 -19.547 -22.006  0.00  0.00    +0.150 HD
ENDBRANCH   2  14
BRANCH   5  20
ATOM     19  F   UNL     1      36.368 -26.622 -15.073  0.00  0.00    -0.204 F 
ATOM     20  C   UNL     1      36.002 -24.882 -13.493  0.00  0.00    +0.045 C 
ATOM     21  C   UNL     1      36.710 -26.001 -13.935  0.00  0.00    +0.142 C 
ATOM     22  C   UNL     1      36.375 -24.249 -12.306  0.00  0.00    +0.004 C 
ATOM     23  C   UNL     1      37.786 -26.487 -13.190  0.00  0.00    +0.030 C 
ATOM     24  C   UNL     1      37.450 -24.733 -11.562  0.00  0.00    +0.000 C 
ATOM     25  C   UNL     1      38.156 -25.853 -12.004  0.00  0.00    +0.002 C 
ENDBRANCH   5  20
TORSDOF 2
ENDMDL
MODEL 8
REMARK VINA RESULT:     -10.4      9.468     13.376
REMARK  Name = 11992146
REMARK  2 active torsions:
REMARK  status: ('A' for Active; 'I' for Inactive)
REMARK    1  A    between atoms: C_2  and  C_14
REMARK    2  A    between atoms: C_5  and  C_20
REMARK                            x       y       z     vdW  Elec       q    Type
REMARK                         _______ _______ _______ _____ _____    ______ ____
ROOT
ATOM      1  N   UNL     1      34.048 -16.010 -25.083  0.00  0.00    -0.244 NA
ATOM      2  C   UNL     1      33.317 -13.653 -23.775  0.00  0.00    +0.016 C 
ATOM      3  C   UNL     1      33.846 -14.715 -23.051  0.00  0.00    +0.020 C 
ATOM      4  C   UNL     1      33.152 -13.766 -25.150  0.00  0.00    +0.022 C 
ATOM      5  C   UNL     1      34.193 -15.862 -23.747  0.00  0.00    +0.084 C 
ATOM      6  C   UNL     1      33.530 -14.956 -25.752  0.00  0.00    +0.099 C 
ENDROOT
BRANCH   2  14
ATOM      7  O   UNL     1      30.699 -10.603 -19.861  0.00  0.00    -0.270 OA
ATOM      8  N   UNL     1      33.308 -11.199 -23.570  0.00  0.00    -0.316 N 
ATOM      9  N   UNL     1      31.752  -8.727 -20.705  0.00  0.00    -0.300 N 
ATOM     10  C   UNL     1      32.808 -10.240 -22.737  0.00  0.00    +0.031 C 
ATOM     11  C   UNL     1      32.955  -8.775 -22.901  0.00  0.00    +0.063 C 
ATOM     12  C   UNL     1      32.116 -10.859 -21.717  0.00  0.00    +0.064 C 
ATOM     13  C   UNL     1      32.820  -8.132 -21.516  0.00  0.00    +0.096 C 
ATOM     14  C   UNL     1      32.938 -12.434 -23.100  0.00  0.00    +0.048 C 
ATOM     15  C   UNL     1      32.191 -12.253 -21.952  0.00  0.00    +0.020 C 
ATOM     16  C   UNL     1      31.460 -10.091 -20.677  0.00  0.00    +0.247 C 
ATOM     17  H   UNL     1      33.848 -11.030 -24.377  0.00  0.00    +0.152 HD
ATOM     18  H   UNL     1      31.207  -8.126 -20.145  0.00  0.00    +0.150 HD
ENDBRANCH   2  14
BRANCH   5  20
ATOM     19  F   UNL     1      33.808 -18.489 -24.668  0.00  0.00    -0.204 F 
ATOM     20  C   UNL     1      34.749 -17.006 -23.064  0.00  0.00    +0.045 C 
ATOM     21  C   UNL     1      34.531 -18.295 -23.556  0.00  0.00    +0.142 C 
ATOM     22  C   UNL     1      35.507 -16.825 -21.906  0.00  0.00    +0.004 C 
ATOM     23  C   UNL     1      35.068 -19.398 -22.890  0.00  0.00    +0.030 C 
ATOM     24  C   UNL     1      36.043 -17.927 -21.240  0.00  0.00    +0.000 C 
ATOM     25  C   UNL     1      35.824 -19.213 -21.732  0.00  0.00    +0.002 C 
ENDBRANCH   5  20
TORSDOF 2
ENDMDL
MODEL 9
REMARK VINA RESULT:     -10.4      2.507      4.502
REMARK  Name = 11992146
REMARK  2 active torsions:
REMARK  status: ('A' for Active; 'I' for Inactive)
REMARK    1  A    between atoms: C_2  and  C_14
REMARK    2  A    between atoms: C_5  and  C_20
REMARK                            x       y       z     vdW  Elec       q    Type
REMARK                         _______ _______ _______ _____ _____    ______ ____
ROOT
ATOM      1  N   UNL     1      32.319 -22.616 -17.328  0.00  0.00    -0.244 NA
ATOM      2  C   UNL     1      34.411 -23.614 -15.767  0.00  0.00    +0.016 C 
ATOM      3  C   UNL     1      33.094 -23.775 -15.352  0.00  0.00    +0.020 C 
ATOM      4  C   UNL     1      34.684 -22.955 -16.960  0.00  0.00    +0.022 C 
ATOM      5  C   UNL     1      32.093 -23.262 -16.162  0.00  0.00    +0.084 C 
ATOM      6  C   UNL     1      33.611 -22.479 -17.697  0.00  0.00    +0.099 C 
ENDROOT
BRANCH   2  14
ATOM      7  O   UNL     1      36.682 -26.071 -11.266  0.00  0.00    -0.270 OA
ATOM      8  N   UNL     1      36.806 -23.991 -15.337  0.00  0.00    -0.316 N 
ATOM      9  N   UNL     1      38.734 -25.979 -12.324  0.00  0.00    -0.300 N 
ATOM     10  C   UNL     1      37.600 -24.566 -14.387  0.00  0.00    +0.031 C 
ATOM     11  C   UNL     1      39.080 -24.611 -14.394  0.00  0.00    +0.063 C 
ATOM     12  C   UNL     1      36.795 -25.086 -13.395  0.00  0.00    +0.064 C 
ATOM     13  C   UNL     1      39.518 -25.817 -13.555  0.00  0.00    +0.096 C 
ATOM     14  C   UNL     1      35.492 -24.129 -14.962  0.00  0.00    +0.048 C 
ATOM     15  C   UNL     1      35.456 -24.801 -13.756  0.00  0.00    +0.020 C 
ATOM     16  C   UNL     1      37.360 -25.754 -12.239  0.00  0.00    +0.247 C 
ATOM     17  H   UNL     1      37.125 -23.549 -16.158  0.00  0.00    +0.152 HD
ATOM     18  H   UNL     1      39.208 -26.263 -11.509  0.00  0.00    +0.150 HD
ENDBRANCH   2  14
BRANCH   5  20
ATOM     19  F   UNL     1      31.153 -25.380 -14.572  0.00  0.00    -0.204 F 
ATOM     20  C   UNL     1      30.702 -23.392 -15.796  0.00  0.00    +0.045 C 
ATOM     21  C   UNL     1      30.279 -24.462 -15.006  0.00  0.00    +0.142 C 
ATOM     22  C   UNL     1      29.776 -22.445 -16.237  0.00  0.00    +0.004 C 
ATOM     23  C   UNL     1      28.932 -24.584 -14.658  0.00  0.00    +0.030 C 
ATOM     24  C   UNL     1      28.431 -22.567 -15.890  0.00  0.00    +0.000 C 
ATOM     25  C   UNL     1      28.009 -23.637 -15.101  0.00  0.00    +0.002 C 
ENDBRANCH   5  20
TORSDOF 2
ENDMDL
