MODEL 1
REMARK VINA RESULT:     -11.5      0.000      0.000
REMARK  Name = 71183216
REMARK  5 active torsions:
REMARK  status: ('A' for Active; 'I' for Inactive)
REMARK    1  A    between atoms: N_3  and  C_24
REMARK    2  A    between atoms: C_10  and  C_13
REMARK    3  A    between atoms: C_18  and  O_19
REMARK    4  A    between atoms: O_19  and  C_23
REMARK    5  A    between atoms: C_24  and  C_27
REMARK                            x       y       z     vdW  Elec       q    Type
REMARK                         _______ _______ _______ _____ _____    ______ ____
ROOT
ATOM      1  O   UNL     1      34.708 -16.125 -25.157  0.00  0.00    -0.473 OA
ATOM      2  O   UNL     1      35.661 -14.693 -21.620  0.00  0.00    -0.270 OA
ATOM      3  N   UNL     1      33.983 -14.215 -23.170  0.00  0.00    -0.259 N 
ATOM      4  C   UNL     1      32.941 -14.743 -24.046  0.00  0.00    +0.142 C 
ATOM      5  C   UNL     1      34.758 -16.506 -22.769  0.00  0.00    +0.087 C 
ATOM      6  C   UNL     1      33.533 -15.322 -25.326  0.00  0.00    +0.227 C 
ATOM      7  C   UNL     1      34.845 -15.057 -22.463  0.00  0.00    +0.253 C 
ATOM      8  C   UNL     1      34.658 -16.973 -24.086  0.00  0.00    +0.143 C 
ATOM      9  C   UNL     1      34.814 -17.418 -21.710  0.00  0.00    +0.008 C 
ATOM     10  C   UNL     1      34.760 -18.787 -21.971  0.00  0.00    +0.000 C 
ATOM     11  C   UNL     1      34.627 -18.343 -24.344  0.00  0.00    +0.037 C 
ATOM     12  C   UNL     1      34.666 -19.249 -23.285  0.00  0.00    +0.003 C 
ENDROOT
BRANCH  10  13
ATOM     13  C   UNL     1      34.807 -19.733 -20.877  0.00  0.00    +0.000 C 
ATOM     14  C   UNL     1      33.629 -20.308 -20.399  0.00  0.00    +0.003 C 
ATOM     15  C   UNL     1      36.032 -20.069 -20.298  0.00  0.00    +0.003 C 
ATOM     16  C   UNL     1      33.676 -21.218 -19.343  0.00  0.00    +0.037 C 
ATOM     17  C   UNL     1      36.078 -20.980 -19.243  0.00  0.00    +0.037 C 
ATOM     18  C   UNL     1      34.900 -21.554 -18.765  0.00  0.00    +0.147 C 
BRANCH  18  19
ATOM     19  O   UNL     1      34.945 -22.441 -17.734  0.00  0.00    -0.404 OA
BRANCH  19  23
ATOM     20  F   UNL     1      32.686 -22.477 -17.373  0.00  0.00    -0.133 F 
ATOM     21  F   UNL     1      33.966 -23.895 -16.311  0.00  0.00    -0.133 F 
ATOM     22  F   UNL     1      33.623 -24.164 -18.453  0.00  0.00    -0.133 F 
ATOM     23  C   UNL     1      33.794 -23.241 -17.482  0.00  0.00    +0.575 C 
ENDBRANCH  19  23
ENDBRANCH  18  19
ENDBRANCH  10  13
BRANCH   3  24
ATOM     24  C   UNL     1      34.071 -12.771 -23.028  0.00  0.00    +0.194 C 
BRANCH  24  27
ATOM     25  N   UNL     1      32.618 -12.761 -21.088  0.00  0.00    -0.217 NA
ATOM     26  N   UNL     1      32.233 -11.198 -22.882  0.00  0.00    -0.195 NA
ATOM     27  C   UNL     1      32.896 -12.206 -22.283  0.00  0.00    +0.028 C 
ATOM     28  C   UNL     1      31.556 -12.230 -20.447  0.00  0.00    +0.164 C 
ATOM     29  C   UNL     1      31.183 -10.715 -22.185  0.00  0.00    +0.107 C 
ATOM     30  C   UNL     1      30.794 -11.196 -20.952  0.00  0.00    +0.022 C 
ENDBRANCH  24  27
ENDBRANCH   3  24
TORSDOF 5
ENDMDL
MODEL 2
REMARK VINA RESULT:     -10.7      5.671      9.942
REMARK  Name = 71183216
REMARK  5 active torsions:
REMARK  status: ('A' for Active; 'I' for Inactive)
REMARK    1  A    between atoms: N_3  and  C_24
REMARK    2  A    between atoms: C_10  and  C_13
REMARK    3  A    between atoms: C_18  and  O_19
REMARK    4  A    between atoms: O_19  and  C_23
REMARK    5  A    between atoms: C_24  and  C_27
REMARK                            x       y       z     vdW  Elec       q    Type
REMARK                         _______ _______ _______ _____ _____    ______ ____
ROOT
ATOM      1  O   UNL     1      36.058 -23.619 -15.352  0.00  0.00    -0.473 OA
ATOM      2  O   UNL     1      32.896 -24.176 -17.625  0.00  0.00    -0.270 OA
ATOM      3  N   UNL     1      33.207 -23.635 -15.376  0.00  0.00    -0.259 N 
ATOM      4  C   UNL     1      33.894 -22.786 -14.405  0.00  0.00    +0.142 C 
ATOM      5  C   UNL     1      34.671 -22.750 -17.133  0.00  0.00    +0.087 C 
ATOM      6  C   UNL     1      35.326 -23.256 -14.174  0.00  0.00    +0.227 C 
ATOM      7  C   UNL     1      33.510 -23.585 -16.739  0.00  0.00    +0.253 C 
ATOM      8  C   UNL     1      35.870 -22.775 -16.410  0.00  0.00    +0.143 C 
ATOM      9  C   UNL     1      34.563 -21.950 -18.276  0.00  0.00    +0.008 C 
ATOM     10  C   UNL     1      35.648 -21.175 -18.683  0.00  0.00    +0.000 C 
ATOM     11  C   UNL     1      36.960 -22.015 -16.834  0.00  0.00    +0.037 C 
ATOM     12  C   UNL     1      36.844 -21.206 -17.964  0.00  0.00    +0.003 C 
ENDROOT
BRANCH  10  13
ATOM     13  C   UNL     1      35.537 -20.339 -19.859  0.00  0.00    +0.000 C 
ATOM     14  C   UNL     1      34.351 -20.321 -20.593  0.00  0.00    +0.003 C 
ATOM     15  C   UNL     1      36.617 -19.553 -20.260  0.00  0.00    +0.003 C 
ATOM     16  C   UNL     1      34.245 -19.516 -21.727  0.00  0.00    +0.037 C 
ATOM     17  C   UNL     1      36.511 -18.748 -21.395  0.00  0.00    +0.037 C 
ATOM     18  C   UNL     1      35.325 -18.730 -22.129  0.00  0.00    +0.147 C 
BRANCH  18  19
ATOM     19  O   UNL     1      35.222 -17.946 -23.236  0.00  0.00    -0.404 OA
BRANCH  19  23
ATOM     20  F   UNL     1      33.900 -16.195 -23.882  0.00  0.00    -0.133 F 
ATOM     21  F   UNL     1      35.992 -15.828 -23.368  0.00  0.00    -0.133 F 
ATOM     22  F   UNL     1      34.571 -16.308 -21.779  0.00  0.00    -0.133 F 
ATOM     23  C   UNL     1      34.903 -16.569 -23.061  0.00  0.00    +0.575 C 
ENDBRANCH  19  23
ENDBRANCH  18  19
ENDBRANCH  10  13
BRANCH   3  24
ATOM     24  C   UNL     1      32.164 -24.515 -14.876  0.00  0.00    +0.194 C 
BRANCH  24  27
ATOM     25  N   UNL     1      29.937 -24.664 -15.821  0.00  0.00    -0.217 NA
ATOM     26  N   UNL     1      30.554 -22.742 -14.504  0.00  0.00    -0.195 NA
ATOM     27  C   UNL     1      30.794 -23.936 -15.080  0.00  0.00    +0.028 C 
ATOM     28  C   UNL     1      28.715 -24.114 -15.984  0.00  0.00    +0.164 C 
ATOM     29  C   UNL     1      29.314 -22.251 -14.708  0.00  0.00    +0.107 C 
ATOM     30  C   UNL     1      28.344 -22.899 -15.446  0.00  0.00    +0.022 C 
ENDBRANCH  24  27
ENDBRANCH   3  24
TORSDOF 5
ENDMDL
MODEL 3
REMARK VINA RESULT:     -10.5      4.046      6.704
REMARK  Name = 71183216
REMARK  5 active torsions:
REMARK  status: ('A' for Active; 'I' for Inactive)
REMARK    1  A    between atoms: N_3  and  C_24
REMARK    2  A    between atoms: C_10  and  C_13
REMARK    3  A    between atoms: C_18  and  O_19
REMARK    4  A    between atoms: O_19  and  C_23
REMARK    5  A    between atoms: C_24  and  C_27
REMARK                            x       y       z     vdW  Elec       q    Type
REMARK                         _______ _______ _______ _____ _____    ______ ____
ROOT
ATOM      1  O   UNL     1      31.197  -9.640 -20.588  0.00  0.00    -0.473 OA
ATOM      2  O   UNL     1      32.325 -10.076 -24.330  0.00  0.00    -0.270 OA
ATOM      3  N   UNL     1      32.776  -8.500 -22.669  0.00  0.00    -0.259 N 
ATOM      4  C   UNL     1      33.169  -8.263 -21.282  0.00  0.00    +0.142 C 
ATOM      5  C   UNL     1      32.548 -10.888 -22.159  0.00  0.00    +0.087 C 
ATOM      6  C   UNL     1      31.999  -8.481 -20.329  0.00  0.00    +0.227 C 
ATOM      7  C   UNL     1      32.540  -9.789 -23.155  0.00  0.00    +0.253 C 
ATOM      8  C   UNL     1      31.914 -10.756 -20.917  0.00  0.00    +0.143 C 
ATOM      9  C   UNL     1      33.177 -12.091 -22.495  0.00  0.00    +0.008 C 
ATOM     10  C   UNL     1      33.178 -13.150 -21.587  0.00  0.00    +0.000 C 
ATOM     11  C   UNL     1      31.898 -11.825 -20.021  0.00  0.00    +0.037 C 
ATOM     12  C   UNL     1      32.540 -13.017 -20.352  0.00  0.00    +0.003 C 
ENDROOT
BRANCH  10  13
ATOM     13  C   UNL     1      33.836 -14.393 -21.927  0.00  0.00    +0.000 C 
ATOM     14  C   UNL     1      33.957 -14.775 -23.263  0.00  0.00    +0.003 C 
ATOM     15  C   UNL     1      34.347 -15.209 -20.919  0.00  0.00    +0.003 C 
ATOM     16  C   UNL     1      34.591 -15.974 -23.591  0.00  0.00    +0.037 C 
ATOM     17  C   UNL     1      34.981 -16.408 -21.246  0.00  0.00    +0.037 C 
ATOM     18  C   UNL     1      35.102 -16.791 -22.582  0.00  0.00    +0.147 C 
BRANCH  18  19
ATOM     19  O   UNL     1      35.719 -17.961 -22.902  0.00  0.00    -0.404 OA
BRANCH  19  23
ATOM     20  F   UNL     1      34.623 -19.556 -21.682  0.00  0.00    -0.133 F 
ATOM     21  F   UNL     1      35.656 -20.132 -23.520  0.00  0.00    -0.133 F 
ATOM     22  F   UNL     1      33.809 -18.971 -23.652  0.00  0.00    -0.133 F 
ATOM     23  C   UNL     1      34.936 -19.150 -22.931  0.00  0.00    +0.575 C 
ENDBRANCH  19  23
ENDBRANCH  18  19
ENDBRANCH  10  13
BRANCH   3  24
ATOM     24  C   UNL     1      32.674  -7.344 -23.544  0.00  0.00    +0.194 C 
BRANCH  24  27
ATOM     25  N   UNL     1      32.655  -5.047 -22.769  0.00  0.00    -0.217 NA
ATOM     26  N   UNL     1      30.706  -6.432 -22.460  0.00  0.00    -0.195 NA
ATOM     27  C   UNL     1      31.965  -6.198 -22.880  0.00  0.00    +0.028 C 
ATOM     28  C   UNL     1      31.988  -4.040 -22.168  0.00  0.00    +0.164 C 
ATOM     29  C   UNL     1      30.100  -5.382 -21.868  0.00  0.00    +0.107 C 
ATOM     30  C   UNL     1      30.697  -4.150 -21.693  0.00  0.00    +0.022 C 
ENDBRANCH  24  27
ENDBRANCH   3  24
TORSDOF 5
ENDMDL
MODEL 4
REMARK VINA RESULT:     -10.5      5.508      9.575
REMARK  Name = 71183216
REMARK  5 active torsions:
REMARK  status: ('A' for Active; 'I' for Inactive)
REMARK    1  A    between atoms: N_3  and  C_24
REMARK    2  A    between atoms: C_10  and  C_13
REMARK    3  A    between atoms: C_18  and  O_19
REMARK    4  A    between atoms: O_19  and  C_23
REMARK    5  A    between atoms: C_24  and  C_27
REMARK                            x       y       z     vdW  Elec       q    Type
REMARK                         _______ _______ _______ _____ _____    ______ ____
ROOT
ATOM      1  O   UNL     1      36.814 -22.418 -17.077  0.00  0.00    -0.473 OA
ATOM      2  O   UNL     1      33.712 -23.570 -19.203  0.00  0.00    -0.270 OA
ATOM      3  N   UNL     1      34.033 -23.029 -16.955  0.00  0.00    -0.259 N 
ATOM      4  C   UNL     1      34.583 -22.079 -15.992  0.00  0.00    +0.142 C 
ATOM      5  C   UNL     1      35.177 -21.817 -18.753  0.00  0.00    +0.087 C 
ATOM      6  C   UNL     1      36.092 -22.244 -15.851  0.00  0.00    +0.227 C 
ATOM      7  C   UNL     1      34.239 -22.885 -18.329  0.00  0.00    +0.253 C 
ATOM      8  C   UNL     1      36.396 -21.607 -18.094  0.00  0.00    +0.143 C 
ATOM      9  C   UNL     1      34.841 -21.030 -19.860  0.00  0.00    +0.008 C 
ATOM     10  C   UNL     1      35.716 -20.036 -20.294  0.00  0.00    +0.000 C 
ATOM     11  C   UNL     1      37.278 -20.626 -18.545  0.00  0.00    +0.037 C 
ATOM     12  C   UNL     1      36.932 -19.833 -19.639  0.00  0.00    +0.003 C 
ENDROOT
BRANCH  10  13
ATOM     13  C   UNL     1      35.366 -19.214 -21.433  0.00  0.00    +0.000 C 
ATOM     14  C   UNL     1      35.703 -17.860 -21.447  0.00  0.00    +0.003 C 
ATOM     15  C   UNL     1      34.689 -19.775 -22.516  0.00  0.00    +0.003 C 
ATOM     16  C   UNL     1      35.365 -17.068 -22.544  0.00  0.00    +0.037 C 
ATOM     17  C   UNL     1      34.350 -18.983 -23.613  0.00  0.00    +0.037 C 
ATOM     18  C   UNL     1      34.687 -17.630 -23.627  0.00  0.00    +0.147 C 
BRANCH  18  19
ATOM     19  O   UNL     1      34.356 -16.856 -24.697  0.00  0.00    -0.404 OA
BRANCH  19  23
ATOM     20  F   UNL     1      33.353 -15.309 -23.343  0.00  0.00    -0.133 F 
ATOM     21  F   UNL     1      33.343 -15.009 -25.508  0.00  0.00    -0.133 F 
ATOM     22  F   UNL     1      35.213 -14.756 -24.404  0.00  0.00    -0.133 F 
ATOM     23  C   UNL     1      34.075 -15.479 -24.472  0.00  0.00    +0.575 C 
ENDBRANCH  19  23
ENDBRANCH  18  19
ENDBRANCH  10  13
BRANCH   3  24
ATOM     24  C   UNL     1      33.225 -24.120 -16.434  0.00  0.00    +0.194 C 
BRANCH  24  27
ATOM     25  N   UNL     1      31.839 -23.896 -14.458  0.00  0.00    -0.217 NA
ATOM     26  N   UNL     1      31.102 -22.957 -16.552  0.00  0.00    -0.195 NA
ATOM     27  C   UNL     1      31.973 -23.625 -15.770  0.00  0.00    +0.028 C 
ATOM     28  C   UNL     1      30.702 -23.437 -13.894  0.00  0.00    +0.164 C 
ATOM     29  C   UNL     1      29.988 -22.526 -15.924  0.00  0.00    +0.107 C 
ATOM     30  C   UNL     1      29.732 -22.739 -14.584  0.00  0.00    +0.022 C 
ENDBRANCH  24  27
ENDBRANCH   3  24
TORSDOF 5
ENDMDL
MODEL 5
REMARK VINA RESULT:     -10.5      4.105      6.899
REMARK  Name = 71183216
REMARK  5 active torsions:
REMARK  status: ('A' for Active; 'I' for Inactive)
REMARK    1  A    between atoms: N_3  and  C_24
REMARK    2  A    between atoms: C_10  and  C_13
REMARK    3  A    between atoms: C_18  and  O_19
REMARK    4  A    between atoms: O_19  and  C_23
REMARK    5  A    between atoms: C_24  and  C_27
REMARK                            x       y       z     vdW  Elec       q    Type
REMARK                         _______ _______ _______ _____ _____    ______ ____
ROOT
ATOM      1  O   UNL     1      31.014  -9.719 -19.459  0.00  0.00    -0.473 OA
ATOM      2  O   UNL     1      31.668  -9.880 -23.335  0.00  0.00    -0.270 OA
ATOM      3  N   UNL     1      32.239  -8.369 -21.651  0.00  0.00    -0.259 N 
ATOM      4  C   UNL     1      32.795  -8.180 -20.313  0.00  0.00    +0.142 C 
ATOM      5  C   UNL     1      32.219 -10.790 -21.263  0.00  0.00    +0.087 C 
ATOM      6  C   UNL     1      31.775  -8.524 -19.235  0.00  0.00    +0.227 C 
ATOM      7  C   UNL     1      32.017  -9.642 -22.181  0.00  0.00    +0.253 C 
ATOM      8  C   UNL     1      31.746 -10.766 -19.944  0.00  0.00    +0.143 C 
ATOM      9  C   UNL     1      32.868 -11.929 -21.749  0.00  0.00    +0.008 C 
ATOM     10  C   UNL     1      33.049 -13.032 -20.914  0.00  0.00    +0.000 C 
ATOM     11  C   UNL     1      31.909 -11.879 -19.120  0.00  0.00    +0.037 C 
ATOM     12  C   UNL     1      32.572 -13.007 -19.602  0.00  0.00    +0.003 C 
ENDROOT
BRANCH  10  13
ATOM     13  C   UNL     1      33.729 -14.209 -21.411  0.00  0.00    +0.000 C 
ATOM     14  C   UNL     1      34.272 -15.131 -20.516  0.00  0.00    +0.003 C 
ATOM     15  C   UNL     1      33.844 -14.420 -22.785  0.00  0.00    +0.003 C 
ATOM     16  C   UNL     1      34.929 -16.265 -20.995  0.00  0.00    +0.037 C 
ATOM     17  C   UNL     1      34.501 -15.553 -23.264  0.00  0.00    +0.037 C 
ATOM     18  C   UNL     1      35.044 -16.475 -22.370  0.00  0.00    +0.147 C 
BRANCH  18  19
ATOM     19  O   UNL     1      35.686 -17.581 -22.837  0.00  0.00    -0.404 OA
BRANCH  19  23
ATOM     20  F   UNL     1      33.874 -18.626 -23.762  0.00  0.00    -0.133 F 
ATOM     21  F   UNL     1      34.494 -19.149 -21.733  0.00  0.00    -0.133 F 
ATOM     22  F   UNL     1      35.721 -19.791 -23.424  0.00  0.00    -0.133 F 
ATOM     23  C   UNL     1      34.945 -18.791 -22.957  0.00  0.00    +0.575 C 
ENDBRANCH  19  23
ENDBRANCH  18  19
ENDBRANCH  10  13
BRANCH   3  24
ATOM     24  C   UNL     1      31.956  -7.176 -22.433  0.00  0.00    +0.194 C 
BRANCH  24  27
ATOM     25  N   UNL     1      34.352  -7.101 -22.787  0.00  0.00    -0.217 NA
ATOM     26  N   UNL     1      32.873  -6.047 -24.371  0.00  0.00    -0.195 NA
ATOM     27  C   UNL     1      33.139  -6.746 -23.251  0.00  0.00    +0.028 C 
ATOM     28  C   UNL     1      35.392  -6.699 -23.547  0.00  0.00    +0.164 C 
ATOM     29  C   UNL     1      33.959  -5.677 -25.082  0.00  0.00    +0.107 C 
ATOM     30  C   UNL     1      35.255  -5.977 -24.715  0.00  0.00    +0.022 C 
ENDBRANCH  24  27
ENDBRANCH   3  24
TORSDOF 5
ENDMDL
MODEL 6
REMARK VINA RESULT:     -10.4      6.397     11.196
REMARK  Name = 71183216
REMARK  5 active torsions:
REMARK  status: ('A' for Active; 'I' for Inactive)
REMARK    1  A    between atoms: N_3  and  C_24
REMARK    2  A    between atoms: C_10  and  C_13
REMARK    3  A    between atoms: C_18  and  O_19
REMARK    4  A    between atoms: O_19  and  C_23
REMARK    5  A    between atoms: C_24  and  C_27
REMARK                            x       y       z     vdW  Elec       q    Type
REMARK                         _______ _______ _______ _____ _____    ______ ____
ROOT
ATOM      1  O   UNL     1      34.117 -24.207 -14.962  0.00  0.00    -0.473 OA
ATOM      2  O   UNL     1      37.336 -21.961 -14.722  0.00  0.00    -0.270 OA
ATOM      3  N   UNL     1      36.945 -24.259 -14.607  0.00  0.00    -0.259 N 
ATOM      4  C   UNL     1      36.294 -25.420 -15.208  0.00  0.00    +0.142 C 
ATOM      5  C   UNL     1      35.699 -22.809 -16.143  0.00  0.00    +0.087 C 
ATOM      6  C   UNL     1      34.808 -25.460 -14.869  0.00  0.00    +0.227 C 
ATOM      7  C   UNL     1      36.736 -22.966 -15.095  0.00  0.00    +0.253 C 
ATOM      8  C   UNL     1      34.460 -23.458 -16.053  0.00  0.00    +0.143 C 
ATOM      9  C   UNL     1      35.963 -21.964 -17.226  0.00  0.00    +0.008 C 
ATOM     10  C   UNL     1      34.996 -21.779 -18.213  0.00  0.00    +0.000 C 
ATOM     11  C   UNL     1      33.487 -23.253 -17.031  0.00  0.00    +0.037 C 
ATOM     12  C   UNL     1      33.761 -22.423 -18.117  0.00  0.00    +0.003 C 
ENDROOT
BRANCH  10  13
ATOM     13  C   UNL     1      35.271 -20.913 -19.340  0.00  0.00    +0.000 C 
ATOM     14  C   UNL     1      36.540 -20.358 -19.501  0.00  0.00    +0.003 C 
ATOM     15  C   UNL     1      34.264 -20.630 -20.263  0.00  0.00    +0.003 C 
ATOM     16  C   UNL     1      36.804 -19.522 -20.586  0.00  0.00    +0.037 C 
ATOM     17  C   UNL     1      34.527 -19.794 -21.348  0.00  0.00    +0.037 C 
ATOM     18  C   UNL     1      35.797 -19.239 -21.509  0.00  0.00    +0.147 C 
BRANCH  18  19
ATOM     19  O   UNL     1      36.054 -18.422 -22.567  0.00  0.00    -0.404 OA
BRANCH  19  23
ATOM     20  F   UNL     1      34.211 -17.474 -23.533  0.00  0.00    -0.133 F 
ATOM     21  F   UNL     1      36.024 -16.281 -23.281  0.00  0.00    -0.133 F 
ATOM     22  F   UNL     1      34.831 -16.795 -21.523  0.00  0.00    -0.133 F 
ATOM     23  C   UNL     1      35.264 -17.248 -22.719  0.00  0.00    +0.575 C 
ENDBRANCH  19  23
ENDBRANCH  18  19
ENDBRANCH  10  13
BRANCH   3  24
ATOM     24  C   UNL     1      37.854 -24.499 -13.498  0.00  0.00    +0.194 C 
BRANCH  24  27
ATOM     25  N   UNL     1      36.411 -25.363 -11.753  0.00  0.00    -0.217 NA
ATOM     26  N   UNL     1      37.394 -23.174 -11.521  0.00  0.00    -0.195 NA
ATOM     27  C   UNL     1      37.175 -24.335 -12.169  0.00  0.00    +0.028 C 
ATOM     28  C   UNL     1      35.816 -25.181 -10.555  0.00  0.00    +0.164 C 
ATOM     29  C   UNL     1      36.769 -23.061 -10.331  0.00  0.00    +0.107 C 
ATOM     30  C   UNL     1      35.960 -24.041  -9.793  0.00  0.00    +0.022 C 
ENDBRANCH  24  27
ENDBRANCH   3  24
TORSDOF 5
ENDMDL
MODEL 7
REMARK VINA RESULT:     -10.4      1.881      2.513
REMARK  Name = 71183216
REMARK  5 active torsions:
REMARK  status: ('A' for Active; 'I' for Inactive)
REMARK    1  A    between atoms: N_3  and  C_24
REMARK    2  A    between atoms: C_10  and  C_13
REMARK    3  A    between atoms: C_18  and  O_19
REMARK    4  A    between atoms: O_19  and  C_23
REMARK    5  A    between atoms: C_24  and  C_27
REMARK                            x       y       z     vdW  Elec       q    Type
REMARK                         _______ _______ _______ _____ _____    ______ ____
ROOT
ATOM      1  O   UNL     1      34.248 -14.035 -24.019  0.00  0.00    -0.473 OA
ATOM      2  O   UNL     1      34.704 -13.562 -20.141  0.00  0.00    -0.270 OA
ATOM      3  N   UNL     1      32.954 -13.165 -21.633  0.00  0.00    -0.259 N 
ATOM      4  C   UNL     1      32.134 -13.687 -22.724  0.00  0.00    +0.142 C 
ATOM      5  C   UNL     1      34.430 -15.110 -21.860  0.00  0.00    +0.087 C 
ATOM      6  C   UNL     1      32.876 -13.623 -24.054  0.00  0.00    +0.227 C 
ATOM      7  C   UNL     1      34.045 -13.878 -21.129  0.00  0.00    +0.253 C 
ATOM      8  C   UNL     1      34.480 -15.147 -23.259  0.00  0.00    +0.143 C 
ATOM      9  C   UNL     1      34.782 -16.244 -21.120  0.00  0.00    +0.008 C 
ATOM     10  C   UNL     1      35.173 -17.408 -21.781  0.00  0.00    +0.000 C 
ATOM     11  C   UNL     1      34.892 -16.307 -23.916  0.00  0.00    +0.037 C 
ATOM     12  C   UNL     1      35.227 -17.440 -23.176  0.00  0.00    +0.003 C 
ENDROOT
BRANCH  10  13
ATOM     13  C   UNL     1      35.528 -18.586 -21.020  0.00  0.00    +0.000 C 
ATOM     14  C   UNL     1      34.540 -19.491 -20.632  0.00  0.00    +0.003 C 
ATOM     15  C   UNL     1      36.860 -18.815 -20.671  0.00  0.00    +0.003 C 
ATOM     16  C   UNL     1      34.884 -20.626 -19.896  0.00  0.00    +0.037 C 
ATOM     17  C   UNL     1      37.203 -19.949 -19.935  0.00  0.00    +0.037 C 
ATOM     18  C   UNL     1      36.215 -20.854 -19.547  0.00  0.00    +0.147 C 
BRANCH  18  19
ATOM     19  O   UNL     1      36.550 -21.960 -18.828  0.00  0.00    -0.404 OA
BRANCH  19  23
ATOM     20  F   UNL     1      37.616 -22.618 -16.914  0.00  0.00    -0.133 F 
ATOM     21  F   UNL     1      35.459 -22.270 -16.876  0.00  0.00    -0.133 F 
ATOM     22  F   UNL     1      36.812 -20.562 -17.037  0.00  0.00    -0.133 F 
ATOM     23  C   UNL     1      36.626 -21.846 -17.411  0.00  0.00    +0.575 C 
ENDBRANCH  19  23
ENDBRANCH  18  19
ENDBRANCH  10  13
BRANCH   3  24
ATOM     24  C   UNL     1      32.571 -11.885 -21.060  0.00  0.00    +0.194 C 
BRANCH  24  27
ATOM     25  N   UNL     1      31.215 -10.206 -22.163  0.00  0.00    -0.217 NA
ATOM     26  N   UNL     1      33.476 -10.594 -22.901  0.00  0.00    -0.195 NA
ATOM     27  C   UNL     1      32.410 -10.825 -22.111  0.00  0.00    +0.028 C 
ATOM     28  C   UNL     1      31.105  -9.259 -23.118  0.00  0.00    +0.164 C 
ATOM     29  C   UNL     1      33.297  -9.635 -23.833  0.00  0.00    +0.107 C 
ATOM     30  C   UNL     1      32.122  -8.928 -23.990  0.00  0.00    +0.022 C 
ENDBRANCH  24  27
ENDBRANCH   3  24
TORSDOF 5
ENDMDL
MODEL 8
REMARK VINA RESULT:     -10.3      6.420     11.512
REMARK  Name = 71183216
REMARK  5 active torsions:
REMARK  status: ('A' for Active; 'I' for Inactive)
REMARK    1  A    between atoms: N_3  and  C_24
REMARK    2  A    between atoms: C_10  and  C_13
REMARK    3  A    between atoms: C_18  and  O_19
REMARK    4  A    between atoms: O_19  and  C_23
REMARK    5  A    between atoms: C_24  and  C_27
REMARK                            x       y       z     vdW  Elec       q    Type
REMARK                         _______ _______ _______ _____ _____    ______ ____
ROOT
ATOM      1  O   UNL     1      33.353 -24.084 -14.093  0.00  0.00    -0.473 OA
ATOM      2  O   UNL     1      36.710 -22.064 -14.440  0.00  0.00    -0.270 OA
ATOM      3  N   UNL     1      36.195 -24.299 -14.009  0.00  0.00    -0.259 N 
ATOM      4  C   UNL     1      35.416 -25.472 -14.398  0.00  0.00    +0.142 C 
ATOM      5  C   UNL     1      34.884 -22.950 -15.583  0.00  0.00    +0.087 C 
ATOM      6  C   UNL     1      33.974 -25.365 -13.915  0.00  0.00    +0.227 C 
ATOM      7  C   UNL     1      36.014 -23.059 -14.628  0.00  0.00    +0.253 C 
ATOM      8  C   UNL     1      33.626 -23.493 -15.294  0.00  0.00    +0.143 C 
ATOM      9  C   UNL     1      35.085 -22.256 -16.781  0.00  0.00    +0.008 C 
ATOM     10  C   UNL     1      34.032 -22.117 -17.685  0.00  0.00    +0.000 C 
ATOM     11  C   UNL     1      32.570 -23.332 -16.191  0.00  0.00    +0.037 C 
ATOM     12  C   UNL     1      32.778 -22.654 -17.392  0.00  0.00    +0.003 C 
ENDROOT
BRANCH  10  13
ATOM     13  C   UNL     1      34.239 -21.408 -18.930  0.00  0.00    +0.000 C 
ATOM     14  C   UNL     1      35.524 -21.292 -19.462  0.00  0.00    +0.003 C 
ATOM     15  C   UNL     1      33.154 -20.839 -19.596  0.00  0.00    +0.003 C 
ATOM     16  C   UNL     1      35.723 -20.607 -20.661  0.00  0.00    +0.037 C 
ATOM     17  C   UNL     1      33.353 -20.155 -20.795  0.00  0.00    +0.037 C 
ATOM     18  C   UNL     1      34.637 -20.038 -21.327  0.00  0.00    +0.147 C 
BRANCH  18  19
ATOM     19  O   UNL     1      34.832 -19.369 -22.496  0.00  0.00    -0.404 OA
BRANCH  19  23
ATOM     20  F   UNL     1      35.283 -17.420 -21.387  0.00  0.00    -0.133 F 
ATOM     21  F   UNL     1      35.310 -17.442 -23.572  0.00  0.00    -0.133 F 
ATOM     22  F   UNL     1      36.919 -18.433 -22.474  0.00  0.00    -0.133 F 
ATOM     23  C   UNL     1      35.596 -18.168 -22.466  0.00  0.00    +0.575 C 
ENDBRANCH  19  23
ENDBRANCH  18  19
ENDBRANCH  10  13
BRANCH   3  24
ATOM     24  C   UNL     1      37.199 -24.475 -12.972  0.00  0.00    +0.194 C 
BRANCH  24  27
ATOM     25  N   UNL     1      39.095 -24.319 -14.474  0.00  0.00    -0.217 NA
ATOM     26  N   UNL     1      38.885 -26.216 -13.001  0.00  0.00    -0.195 NA
ATOM     27  C   UNL     1      38.478 -25.041 -13.519  0.00  0.00    +0.028 C 
ATOM     28  C   UNL     1      40.241 -24.857 -14.943  0.00  0.00    +0.164 C 
ATOM     29  C   UNL     1      40.037 -26.695 -13.514  0.00  0.00    +0.107 C 
ATOM     30  C   UNL     1      40.765 -26.053 -14.496  0.00  0.00    +0.022 C 
ENDBRANCH  24  27
ENDBRANCH   3  24
TORSDOF 5
ENDMDL
MODEL 9
REMARK VINA RESULT:     -10.0      4.272      6.937
REMARK  Name = 71183216
REMARK  5 active torsions:
REMARK  status: ('A' for Active; 'I' for Inactive)
REMARK    1  A    between atoms: N_3  and  C_24
REMARK    2  A    between atoms: C_10  and  C_13
REMARK    3  A    between atoms: C_18  and  O_19
REMARK    4  A    between atoms: O_19  and  C_23
REMARK    5  A    between atoms: C_24  and  C_27
REMARK                            x       y       z     vdW  Elec       q    Type
REMARK                         _______ _______ _______ _____ _____    ______ ____
ROOT
ATOM      1  O   UNL     1      31.190  -9.157 -22.470  0.00  0.00    -0.473 OA
ATOM      2  O   UNL     1      34.641  -9.262 -24.354  0.00  0.00    -0.270 OA
ATOM      3  N   UNL     1      33.832  -8.088 -22.506  0.00  0.00    -0.259 N 
ATOM      4  C   UNL     1      33.121  -8.152 -21.232  0.00  0.00    +0.142 C 
ATOM      5  C   UNL     1      33.201 -10.418 -22.936  0.00  0.00    +0.087 C 
ATOM      6  C   UNL     1      31.614  -8.251 -21.443  0.00  0.00    +0.227 C 
ATOM      7  C   UNL     1      33.959  -9.207 -23.333  0.00  0.00    +0.253 C 
ATOM      8  C   UNL     1      31.875 -10.340 -22.491  0.00  0.00    +0.143 C 
ATOM      9  C   UNL     1      33.825 -11.665 -23.045  0.00  0.00    +0.008 C 
ATOM     10  C   UNL     1      33.126 -12.822 -22.702  0.00  0.00    +0.000 C 
ATOM     11  C   UNL     1      31.172 -11.501 -22.170  0.00  0.00    +0.037 C 
ATOM     12  C   UNL     1      31.803 -12.741 -22.264  0.00  0.00    +0.003 C 
ENDROOT
BRANCH  10  13
ATOM     13  C   UNL     1      33.773 -14.113 -22.804  0.00  0.00    +0.000 C 
ATOM     14  C   UNL     1      33.828 -14.770 -24.033  0.00  0.00    +0.003 C 
ATOM     15  C   UNL     1      34.338 -14.701 -21.673  0.00  0.00    +0.003 C 
ATOM     16  C   UNL     1      34.450 -16.015 -24.131  0.00  0.00    +0.037 C 
ATOM     17  C   UNL     1      34.960 -15.946 -21.770  0.00  0.00    +0.037 C 
ATOM     18  C   UNL     1      35.015 -16.603 -22.999  0.00  0.00    +0.147 C 
BRANCH  18  19
ATOM     19  O   UNL     1      35.621 -17.818 -23.095  0.00  0.00    -0.404 OA
BRANCH  19  23
ATOM     20  F   UNL     1      35.457 -20.069 -23.471  0.00  0.00    -0.133 F 
ATOM     21  F   UNL     1      33.692 -18.806 -23.727  0.00  0.00    -0.133 F 
ATOM     22  F   UNL     1      34.437 -19.203 -21.711  0.00  0.00    -0.133 F 
ATOM     23  C   UNL     1      34.812 -18.985 -22.990  0.00  0.00    +0.575 C 
ENDBRANCH  19  23
ENDBRANCH  18  19
ENDBRANCH  10  13
BRANCH   3  24
ATOM     24  C   UNL     1      34.440  -6.819 -22.871  0.00  0.00    +0.194 C 
BRANCH  24  27
ATOM     25  N   UNL     1      32.602  -5.263 -23.140  0.00  0.00    -0.217 NA
ATOM     26  N   UNL     1      33.771  -6.084 -25.082  0.00  0.00    -0.195 NA
ATOM     27  C   UNL     1      33.545  -6.001 -23.756  0.00  0.00    +0.028 C 
ATOM     28  C   UNL     1      31.815  -4.540 -23.966  0.00  0.00    +0.164 C 
ATOM     29  C   UNL     1      32.948  -5.336 -25.847  0.00  0.00    +0.107 C 
ATOM     30  C   UNL     1      31.943  -4.538 -25.339  0.00  0.00    +0.022 C 
ENDBRANCH  24  27
ENDBRANCH   3  24
TORSDOF 5
ENDMDL
