MODEL 1
REMARK VINA RESULT:     -11.6      0.000      0.000
REMARK  Name = 60854
REMARK  3 active torsions:
REMARK  status: ('A' for Active; 'I' for Inactive)
REMARK    1  A    between atoms: N_2  and  C_17
REMARK    2  A    between atoms: C_17  and  C_18
REMARK    3  A    between atoms: C_18  and  C_22
REMARK                            x       y       z     vdW  Elec       q    Type
REMARK                         _______ _______ _______ _____ _____    ______ ____
ROOT
ATOM      1  S   UNL     1      32.552  -9.483 -23.465  0.00  0.00    +0.014 S 
ATOM      2  N   UNL     1      34.540 -15.771 -23.583  0.00  0.00    +0.389 N 
ATOM      3  N   UNL     1      33.480 -13.152 -23.163  0.00  0.00    -0.297 N 
ATOM      4  N   UNL     1      33.161 -10.924 -24.008  0.00  0.00    -0.194 NA
ATOM      5  C   UNL     1      34.465 -15.208 -22.229  0.00  0.00    -0.055 C 
ATOM      6  C   UNL     1      33.410 -15.291 -24.387  0.00  0.00    -0.055 C 
ATOM      7  C   UNL     1      34.514 -13.678 -22.266  0.00  0.00    +0.069 C 
ATOM      8  C   UNL     1      33.425 -13.764 -24.497  0.00  0.00    +0.069 C 
ATOM      9  C   UNL     1      33.055 -11.825 -23.030  0.00  0.00    +0.140 A 
ATOM     10  C   UNL     1      32.473 -11.383 -21.792  0.00  0.00    +0.040 A 
ATOM     11  C   UNL     1      32.127 -10.034 -21.891  0.00  0.00    +0.050 A 
ATOM     12  C   UNL     1      32.216 -12.057 -20.578  0.00  0.00    +0.003 C 
ATOM     13  C   UNL     1      31.536  -9.333 -20.828  0.00  0.00    +0.008 C 
ATOM     14  C   UNL     1      31.627 -11.368 -19.513  0.00  0.00    +0.000 C 
ATOM     15  C   UNL     1      31.292 -10.024 -19.638  0.00  0.00    +0.001 C 
ATOM     16  H   UNL     1      35.409 -15.465 -24.019  0.00  0.00    -0.080 HD
ENDROOT
BRANCH   2  17
ATOM     17  C   UNL     1      34.546 -17.233 -23.530  0.00  0.00    -0.072 C 
BRANCH  17  18
ATOM     18  C   UNL     1      35.868 -17.754 -22.966  0.00  0.00    +0.004 C 
BRANCH  18  22
ATOM     19 CL   UNL     1      38.339 -18.725 -21.410  0.00  0.00    -0.083 Cl
ATOM     20  O   UNL     1      32.629 -22.295 -18.271  0.00  0.00    -0.274 OA
ATOM     21  N   UNL     1      34.732 -21.444 -18.888  0.00  0.00    -0.284 N 
ATOM     22  C   UNL     1      35.643 -18.748 -21.854  0.00  0.00    -0.014 C 
ATOM     23  C   UNL     1      34.126 -20.065 -20.592  0.00  0.00    +0.000 C 
ATOM     24  C   UNL     1      34.332 -19.155 -21.610  0.00  0.00    -0.006 C 
ATOM     25  C   UNL     1      35.196 -20.548 -19.844  0.00  0.00    +0.048 C 
ATOM     26  C   UNL     1      36.718 -19.236 -21.100  0.00  0.00    +0.055 C 
ATOM     27  C   UNL     1      32.855 -20.680 -20.100  0.00  0.00    +0.113 C 
ATOM     28  C   UNL     1      36.500 -20.155 -20.072  0.00  0.00    +0.025 C 
ATOM     29  C   UNL     1      33.342 -21.587 -18.965  0.00  0.00    +0.231 C 
ATOM     30  H   UNL     1      35.305 -21.915 -18.241  0.00  0.00    +0.155 HD
ENDBRANCH  18  22
ENDBRANCH  17  18
ENDBRANCH   2  17
TORSDOF 3
ENDMDL
MODEL 2
REMARK VINA RESULT:     -11.2      4.995     10.330
REMARK  Name = 60854
REMARK  3 active torsions:
REMARK  status: ('A' for Active; 'I' for Inactive)
REMARK    1  A    between atoms: N_2  and  C_17
REMARK    2  A    between atoms: C_17  and  C_18
REMARK    3  A    between atoms: C_18  and  C_22
REMARK                            x       y       z     vdW  Elec       q    Type
REMARK                         _______ _______ _______ _____ _____    ______ ____
ROOT
ATOM      1  S   UNL     1      35.814 -24.570 -14.242  0.00  0.00    +0.014 S 
ATOM      2  N   UNL     1      34.701 -21.265 -19.840  0.00  0.00    +0.389 N 
ATOM      3  N   UNL     1      34.813 -22.522 -17.278  0.00  0.00    -0.297 N 
ATOM      4  N   UNL     1      36.058 -23.866 -15.720  0.00  0.00    -0.194 NA
ATOM      5  C   UNL     1      33.475 -21.760 -19.201  0.00  0.00    -0.055 C 
ATOM      6  C   UNL     1      35.637 -20.783 -18.818  0.00  0.00    -0.055 C 
ATOM      7  C   UNL     1      33.782 -22.915 -18.244  0.00  0.00    +0.069 C 
ATOM      8  C   UNL     1      36.017 -21.906 -17.849  0.00  0.00    +0.069 C 
ATOM      9  C   UNL     1      34.942 -23.226 -16.075  0.00  0.00    +0.140 A 
ATOM     10  C   UNL     1      33.836 -23.281 -15.158  0.00  0.00    +0.040 A 
ATOM     11  C   UNL     1      34.192 -24.033 -14.037  0.00  0.00    +0.050 A 
ATOM     12  C   UNL     1      32.537 -22.731 -15.215  0.00  0.00    +0.003 C 
ATOM     13  C   UNL     1      33.305 -24.255 -12.972  0.00  0.00    +0.008 C 
ATOM     14  C   UNL     1      31.645 -22.946 -14.159  0.00  0.00    +0.000 C 
ATOM     15  C   UNL     1      32.026 -23.699 -13.053  0.00  0.00    +0.001 C 
ATOM     16  H   UNL     1      35.137 -22.031 -20.353  0.00  0.00    -0.080 HD
ENDROOT
BRANCH   2  17
ATOM     17  C   UNL     1      34.388 -20.198 -20.792  0.00  0.00    -0.072 C 
BRANCH  17  18
ATOM     18  C   UNL     1      35.599 -19.294 -21.018  0.00  0.00    +0.004 C 
BRANCH  18  22
ATOM     19 CL   UNL     1      35.054 -19.718 -24.016  0.00  0.00    -0.083 Cl
ATOM     20  O   UNL     1      34.112 -12.425 -22.956  0.00  0.00    -0.274 OA
ATOM     21  N   UNL     1      34.282 -14.606 -23.815  0.00  0.00    -0.284 N 
ATOM     22  C   UNL     1      35.238 -18.080 -21.837  0.00  0.00    -0.014 C 
ATOM     23  C   UNL     1      34.848 -15.742 -21.927  0.00  0.00    +0.000 C 
ATOM     24  C   UNL     1      35.178 -16.854 -21.178  0.00  0.00    -0.006 C 
ATOM     25  C   UNL     1      34.587 -15.857 -23.290  0.00  0.00    +0.048 C 
ATOM     26  C   UNL     1      34.976 -18.193 -23.209  0.00  0.00    +0.055 C 
ATOM     27  C   UNL     1      34.706 -14.313 -21.511  0.00  0.00    +0.113 C 
ATOM     28  C   UNL     1      34.643 -17.063 -23.959  0.00  0.00    +0.025 C 
ATOM     29  C   UNL     1      34.328 -13.619 -22.824  0.00  0.00    +0.231 C 
ATOM     30  H   UNL     1      34.062 -14.437 -24.760  0.00  0.00    +0.155 HD
ENDBRANCH  18  22
ENDBRANCH  17  18
ENDBRANCH   2  17
TORSDOF 3
ENDMDL
MODEL 3
REMARK VINA RESULT:     -11.2      1.516      2.250
REMARK  Name = 60854
REMARK  3 active torsions:
REMARK  status: ('A' for Active; 'I' for Inactive)
REMARK    1  A    between atoms: N_2  and  C_17
REMARK    2  A    between atoms: C_17  and  C_18
REMARK    3  A    between atoms: C_18  and  C_22
REMARK                            x       y       z     vdW  Elec       q    Type
REMARK                         _______ _______ _______ _____ _____    ______ ____
ROOT
ATOM      1  S   UNL     1      30.531 -10.747 -20.709  0.00  0.00    +0.014 S 
ATOM      2  N   UNL     1      34.519 -15.853 -21.947  0.00  0.00    +0.389 N 
ATOM      3  N   UNL     1      33.063 -13.413 -21.657  0.00  0.00    -0.297 N 
ATOM      4  N   UNL     1      31.252 -12.234 -20.601  0.00  0.00    -0.194 NA
ATOM      5  C   UNL     1      34.387 -14.927 -23.079  0.00  0.00    -0.055 C 
ATOM      6  C   UNL     1      34.579 -15.098 -20.690  0.00  0.00    -0.055 C 
ATOM      7  C   UNL     1      33.112 -14.089 -22.958  0.00  0.00    +0.069 C 
ATOM      8  C   UNL     1      33.309 -14.267 -20.489  0.00  0.00    +0.069 C 
ATOM      9  C   UNL     1      32.246 -12.289 -21.490  0.00  0.00    +0.140 A 
ATOM     10  C   UNL     1      32.465 -11.121 -22.300  0.00  0.00    +0.040 A 
ATOM     11  C   UNL     1      31.539 -10.133 -21.960  0.00  0.00    +0.050 A 
ATOM     12  C   UNL     1      33.406 -10.841 -23.315  0.00  0.00    +0.003 C 
ATOM     13  C   UNL     1      31.517  -8.879 -22.592  0.00  0.00    +0.008 C 
ATOM     14  C   UNL     1      33.392  -9.596 -23.951  0.00  0.00    +0.000 C 
ATOM     15  C   UNL     1      32.459  -8.629 -23.592  0.00  0.00    +0.001 C 
ATOM     16  H   UNL     1      33.704 -16.466 -21.926  0.00  0.00    -0.080 HD
ENDROOT
BRANCH   2  17
ATOM     17  C   UNL     1      35.713 -16.685 -22.102  0.00  0.00    -0.072 C 
BRANCH  17  18
ATOM     18  C   UNL     1      35.346 -18.075 -22.624  0.00  0.00    +0.004 C 
BRANCH  18  22
ATOM     19 CL   UNL     1      38.049 -18.815 -21.354  0.00  0.00    -0.083 Cl
ATOM     20  O   UNL     1      33.073 -22.960 -17.712  0.00  0.00    -0.274 OA
ATOM     21  N   UNL     1      35.007 -21.901 -18.527  0.00  0.00    -0.284 N 
ATOM     22  C   UNL     1      35.336 -19.097 -21.514  0.00  0.00    -0.014 C 
ATOM     23  C   UNL     1      34.094 -20.570 -20.129  0.00  0.00    +0.000 C 
ATOM     24  C   UNL     1      34.104 -19.633 -21.145  0.00  0.00    -0.006 C 
ATOM     25  C   UNL     1      35.279 -20.953 -19.507  0.00  0.00    +0.048 C 
ATOM     26  C   UNL     1      36.527 -19.486 -20.887  0.00  0.00    +0.055 C 
ATOM     27  C   UNL     1      32.948 -21.312 -19.521  0.00  0.00    +0.113 C 
ATOM     28  C   UNL     1      36.508 -20.433 -19.861  0.00  0.00    +0.025 C 
ATOM     29  C   UNL     1      33.637 -22.179 -18.462  0.00  0.00    +0.231 C 
ATOM     30  H   UNL     1      35.688 -22.321 -17.953  0.00  0.00    +0.155 HD
ENDBRANCH  18  22
ENDBRANCH  17  18
ENDBRANCH   2  17
TORSDOF 3
ENDMDL
MODEL 4
REMARK VINA RESULT:     -11.0      1.245      1.609
REMARK  Name = 60854
REMARK  3 active torsions:
REMARK  status: ('A' for Active; 'I' for Inactive)
REMARK    1  A    between atoms: N_2  and  C_17
REMARK    2  A    between atoms: C_17  and  C_18
REMARK    3  A    between atoms: C_18  and  C_22
REMARK                            x       y       z     vdW  Elec       q    Type
REMARK                         _______ _______ _______ _____ _____    ______ ____
ROOT
ATOM      1  S   UNL     1      33.019 -10.842 -23.997  0.00  0.00    +0.014 S 
ATOM      2  N   UNL     1      35.381 -16.937 -23.113  0.00  0.00    +0.389 N 
ATOM      3  N   UNL     1      34.104 -14.383 -23.158  0.00  0.00    -0.297 N 
ATOM      4  N   UNL     1      33.803 -12.274 -24.275  0.00  0.00    -0.194 NA
ATOM      5  C   UNL     1      35.033 -16.258 -21.859  0.00  0.00    -0.055 C 
ATOM      6  C   UNL     1      34.384 -16.624 -24.143  0.00  0.00    -0.055 C 
ATOM      7  C   UNL     1      34.994 -14.739 -22.048  0.00  0.00    +0.069 C 
ATOM      8  C   UNL     1      34.324 -15.118 -24.410  0.00  0.00    +0.069 C 
ATOM      9  C   UNL     1      33.581 -13.087 -23.239  0.00  0.00    +0.140 A 
ATOM     10  C   UNL     1      32.763 -12.579 -22.172  0.00  0.00    +0.040 A 
ATOM     11  C   UNL     1      32.358 -11.276 -22.469  0.00  0.00    +0.050 A 
ATOM     12  C   UNL     1      32.338 -13.155 -20.955  0.00  0.00    +0.003 C 
ATOM     13  C   UNL     1      31.545 -10.529 -21.602  0.00  0.00    +0.008 C 
ATOM     14  C   UNL     1      31.529 -12.419 -20.084  0.00  0.00    +0.000 C 
ATOM     15  C   UNL     1      31.139 -11.123 -20.405  0.00  0.00    +0.001 C 
ATOM     16  H   UNL     1      36.293 -16.604 -23.425  0.00  0.00    -0.080 HD
ENDROOT
BRANCH   2  17
ATOM     17  C   UNL     1      35.469 -18.383 -22.906  0.00  0.00    -0.072 C 
BRANCH  17  18
ATOM     18  C   UNL     1      34.288 -18.889 -22.078  0.00  0.00    +0.004 C 
BRANCH  18  22
ATOM     19 CL   UNL     1      37.257 -18.730 -21.289  0.00  0.00    -0.083 Cl
ATOM     20  O   UNL     1      34.320 -23.633 -16.542  0.00  0.00    -0.274 OA
ATOM     21  N   UNL     1      35.715 -22.189 -17.764  0.00  0.00    -0.284 N 
ATOM     22  C   UNL     1      34.748 -19.748 -20.926  0.00  0.00    -0.014 C 
ATOM     23  C   UNL     1      34.216 -21.338 -19.248  0.00  0.00    +0.000 C 
ATOM     24  C   UNL     1      33.795 -20.551 -20.302  0.00  0.00    -0.006 C 
ATOM     25  C   UNL     1      35.546 -21.318 -18.834  0.00  0.00    +0.048 C 
ATOM     26  C   UNL     1      36.085 -19.730 -20.508  0.00  0.00    +0.055 C 
ATOM     27  C   UNL     1      33.442 -22.290 -18.394  0.00  0.00    +0.113 C 
ATOM     28  C   UNL     1      36.501 -20.528 -19.441  0.00  0.00    +0.025 C 
ATOM     29  C   UNL     1      34.510 -22.816 -17.430  0.00  0.00    +0.231 C 
ATOM     30  H   UNL     1      36.571 -22.345 -17.303  0.00  0.00    +0.155 HD
ENDBRANCH  18  22
ENDBRANCH  17  18
ENDBRANCH   2  17
TORSDOF 3
ENDMDL
MODEL 5
REMARK VINA RESULT:     -10.6      6.076     11.538
REMARK  Name = 60854
REMARK  3 active torsions:
REMARK  status: ('A' for Active; 'I' for Inactive)
REMARK    1  A    between atoms: N_2  and  C_17
REMARK    2  A    between atoms: C_17  and  C_18
REMARK    3  A    between atoms: C_18  and  C_22
REMARK                            x       y       z     vdW  Elec       q    Type
REMARK                         _______ _______ _______ _____ _____    ______ ____
ROOT
ATOM      1  S   UNL     1      35.305 -24.641 -11.698  0.00  0.00    +0.014 S 
ATOM      2  N   UNL     1      34.263 -22.049 -17.673  0.00  0.00    +0.389 N 
ATOM      3  N   UNL     1      35.061 -23.357 -15.263  0.00  0.00    -0.297 N 
ATOM      4  N   UNL     1      34.557 -23.898 -12.975  0.00  0.00    -0.194 NA
ATOM      5  C   UNL     1      35.685 -22.169 -17.329  0.00  0.00    -0.055 C 
ATOM      6  C   UNL     1      33.531 -23.226 -17.191  0.00  0.00    -0.055 C 
ATOM      7  C   UNL     1      35.877 -22.270 -15.814  0.00  0.00    +0.069 C 
ATOM      8  C   UNL     1      33.651 -23.361 -15.671  0.00  0.00    +0.069 C 
ATOM      9  C   UNL     1      35.388 -23.908 -14.019  0.00  0.00    +0.140 A 
ATOM     10  C   UNL     1      36.673 -24.522 -13.826  0.00  0.00    +0.040 A 
ATOM     11  C   UNL     1      36.775 -24.999 -12.517  0.00  0.00    +0.050 A 
ATOM     12  C   UNL     1      37.771 -24.703 -14.695  0.00  0.00    +0.003 C 
ATOM     13  C   UNL     1      37.926 -25.648 -12.045  0.00  0.00    +0.008 C 
ATOM     14  C   UNL     1      38.923 -25.349 -14.234  0.00  0.00    +0.000 C 
ATOM     15  C   UNL     1      38.998 -25.814 -12.926  0.00  0.00    +0.001 C 
ATOM     16  H   UNL     1      33.884 -21.217 -17.221  0.00  0.00    -0.080 HD
ENDROOT
BRANCH   2  17
ATOM     17  C   UNL     1      34.097 -21.899 -19.119  0.00  0.00    -0.072 C 
BRANCH  17  18
ATOM     18  C   UNL     1      35.453 -21.806 -19.819  0.00  0.00    +0.004 C 
BRANCH  18  22
ATOM     19 CL   UNL     1      37.480 -19.692 -18.877  0.00  0.00    -0.083 Cl
ATOM     20  O   UNL     1      34.409 -16.755 -24.972  0.00  0.00    -0.274 OA
ATOM     21  N   UNL     1      35.671 -17.212 -23.041  0.00  0.00    -0.284 N 
ATOM     22  C   UNL     1      35.569 -20.542 -20.635  0.00  0.00    -0.014 C 
ATOM     23  C   UNL     1      34.856 -19.266 -22.503  0.00  0.00    +0.000 C 
ATOM     24  C   UNL     1      34.750 -20.423 -21.756  0.00  0.00    -0.006 C 
ATOM     25  C   UNL     1      35.752 -18.265 -22.138  0.00  0.00    +0.048 C 
ATOM     26  C   UNL     1      36.470 -19.533 -20.269  0.00  0.00    +0.055 C 
ATOM     27  C   UNL     1      34.122 -18.853 -23.739  0.00  0.00    +0.113 C 
ATOM     28  C   UNL     1      36.570 -18.367 -21.031  0.00  0.00    +0.025 C 
ATOM     29  C   UNL     1      34.721 -17.474 -24.035  0.00  0.00    +0.231 C 
ATOM     30  H   UNL     1      36.209 -16.390 -22.989  0.00  0.00    +0.155 HD
ENDBRANCH  18  22
ENDBRANCH  17  18
ENDBRANCH   2  17
TORSDOF 3
ENDMDL
MODEL 6
REMARK VINA RESULT:     -10.5      3.991      6.266
REMARK  Name = 60854
REMARK  3 active torsions:
REMARK  status: ('A' for Active; 'I' for Inactive)
REMARK    1  A    between atoms: N_2  and  C_17
REMARK    2  A    between atoms: C_17  and  C_18
REMARK    3  A    between atoms: C_18  and  C_22
REMARK                            x       y       z     vdW  Elec       q    Type
REMARK                         _______ _______ _______ _____ _____    ______ ____
ROOT
ATOM      1  S   UNL     1      34.094 -16.299 -24.742  0.00  0.00    +0.014 S 
ATOM      2  N   UNL     1      36.304 -20.571 -20.228  0.00  0.00    +0.389 N 
ATOM      3  N   UNL     1      35.301 -18.447 -21.853  0.00  0.00    -0.297 N 
ATOM      4  N   UNL     1      34.557 -17.715 -24.019  0.00  0.00    -0.194 NA
ATOM      5  C   UNL     1      36.685 -19.181 -19.952  0.00  0.00    -0.055 C 
ATOM      6  C   UNL     1      34.932 -20.618 -20.747  0.00  0.00    -0.055 C 
ATOM      7  C   UNL     1      36.620 -18.330 -21.223  0.00  0.00    +0.069 C 
ATOM      8  C   UNL     1      34.808 -19.817 -22.045  0.00  0.00    +0.069 C 
ATOM      9  C   UNL     1      34.869 -17.461 -22.747  0.00  0.00    +0.140 A 
ATOM     10  C   UNL     1      34.744 -16.099 -22.302  0.00  0.00    +0.040 A 
ATOM     11  C   UNL     1      34.301 -15.299 -23.357  0.00  0.00    +0.050 A 
ATOM     12  C   UNL     1      34.986 -15.491 -21.051  0.00  0.00    +0.003 C 
ATOM     13  C   UNL     1      34.088 -13.919 -23.211  0.00  0.00    +0.008 C 
ATOM     14  C   UNL     1      34.778 -14.116 -20.895  0.00  0.00    +0.000 C 
ATOM     15  C   UNL     1      34.335 -13.343 -21.963  0.00  0.00    +0.001 C 
ATOM     16  H   UNL     1      36.936 -20.953 -20.932  0.00  0.00    -0.080 HD
ENDROOT
BRANCH   2  17
ATOM     17  C   UNL     1      36.422 -21.385 -19.018  0.00  0.00    -0.072 C 
BRANCH  17  18
ATOM     18  C   UNL     1      35.064 -21.952 -18.605  0.00  0.00    +0.004 C 
BRANCH  18  22
ATOM     19 CL   UNL     1      32.355 -22.703 -17.356  0.00  0.00    -0.083 Cl
ATOM     20  O   UNL     1      37.275 -23.670 -11.873  0.00  0.00    -0.274 OA
ATOM     21  N   UNL     1      35.356 -23.530 -13.224  0.00  0.00    -0.284 N 
ATOM     22  C   UNL     1      35.062 -22.387 -17.161  0.00  0.00    -0.014 C 
ATOM     23  C   UNL     1      36.284 -22.816 -15.173  0.00  0.00    +0.000 C 
ATOM     24  C   UNL     1      36.286 -22.418 -16.496  0.00  0.00    -0.006 C 
ATOM     25  C   UNL     1      35.095 -23.171 -14.541  0.00  0.00    +0.048 C 
ATOM     26  C   UNL     1      33.867 -22.744 -16.522  0.00  0.00    +0.055 C 
ATOM     27  C   UNL     1      37.420 -22.948 -14.211  0.00  0.00    +0.113 C 
ATOM     28  C   UNL     1      33.874 -23.146 -15.184  0.00  0.00    +0.025 C 
ATOM     29  C   UNL     1      36.721 -23.428 -12.934  0.00  0.00    +0.231 C 
ATOM     30  H   UNL     1      34.670 -23.819 -12.579  0.00  0.00    +0.155 HD
ENDBRANCH  18  22
ENDBRANCH  17  18
ENDBRANCH   2  17
TORSDOF 3
ENDMDL
MODEL 7
REMARK VINA RESULT:     -10.5      3.389      5.773
REMARK  Name = 60854
REMARK  3 active torsions:
REMARK  status: ('A' for Active; 'I' for Inactive)
REMARK    1  A    between atoms: N_2  and  C_17
REMARK    2  A    between atoms: C_17  and  C_18
REMARK    3  A    between atoms: C_18  and  C_22
REMARK                            x       y       z     vdW  Elec       q    Type
REMARK                         _______ _______ _______ _____ _____    ______ ____
ROOT
ATOM      1  S   UNL     1      34.170 -16.287 -24.769  0.00  0.00    +0.014 S 
ATOM      2  N   UNL     1      36.196 -20.514 -20.128  0.00  0.00    +0.389 N 
ATOM      3  N   UNL     1      35.263 -18.405 -21.812  0.00  0.00    -0.297 N 
ATOM      4  N   UNL     1      34.600 -17.697 -24.013  0.00  0.00    -0.194 NA
ATOM      5  C   UNL     1      36.575 -19.122 -19.855  0.00  0.00    -0.055 C 
ATOM      6  C   UNL     1      34.843 -20.561 -20.694  0.00  0.00    -0.055 C 
ATOM      7  C   UNL     1      36.559 -18.286 -21.138  0.00  0.00    +0.069 C 
ATOM      8  C   UNL     1      34.770 -19.775 -22.006  0.00  0.00    +0.069 C 
ATOM      9  C   UNL     1      34.868 -17.428 -22.734  0.00  0.00    +0.140 A 
ATOM     10  C   UNL     1      34.735 -16.061 -22.310  0.00  0.00    +0.040 A 
ATOM     11  C   UNL     1      34.333 -15.271 -23.390  0.00  0.00    +0.050 A 
ATOM     12  C   UNL     1      34.935 -15.438 -21.059  0.00  0.00    +0.003 C 
ATOM     13  C   UNL     1      34.123 -13.889 -23.269  0.00  0.00    +0.008 C 
ATOM     14  C   UNL     1      34.729 -14.061 -20.928  0.00  0.00    +0.000 C 
ATOM     15  C   UNL     1      34.329 -13.298 -22.020  0.00  0.00    +0.001 C 
ATOM     16  H   UNL     1      36.851 -20.907 -20.803  0.00  0.00    -0.080 HD
ENDROOT
BRANCH   2  17
ATOM     17  C   UNL     1      36.268 -21.313 -18.904  0.00  0.00    -0.072 C 
BRANCH  17  18
ATOM     18  C   UNL     1      35.204 -22.410 -18.905  0.00  0.00    +0.004 C 
BRANCH  18  22
ATOM     19 CL   UNL     1      37.116 -22.344 -16.496  0.00  0.00    -0.083 Cl
ATOM     20  O   UNL     1      30.401 -23.477 -13.524  0.00  0.00    -0.274 OA
ATOM     21  N   UNL     1      32.691 -23.137 -13.936  0.00  0.00    -0.284 N 
ATOM     22  C   UNL     1      34.601 -22.598 -17.535  0.00  0.00    -0.014 C 
ATOM     23  C   UNL     1      32.672 -22.961 -16.203  0.00  0.00    +0.000 C 
ATOM     24  C   UNL     1      33.223 -22.789 -17.458  0.00  0.00    -0.006 C 
ATOM     25  C   UNL     1      33.476 -22.942 -15.066  0.00  0.00    +0.048 C 
ATOM     26  C   UNL     1      35.408 -22.581 -16.389  0.00  0.00    +0.055 C 
ATOM     27  C   UNL     1      31.248 -23.184 -15.805  0.00  0.00    +0.113 C 
ATOM     28  C   UNL     1      34.842 -22.755 -15.124  0.00  0.00    +0.025 C 
ATOM     29  C   UNL     1      31.343 -23.291 -14.279  0.00  0.00    +0.231 C 
ATOM     30  H   UNL     1      33.037 -23.163 -13.015  0.00  0.00    +0.155 HD
ENDBRANCH  18  22
ENDBRANCH  17  18
ENDBRANCH   2  17
TORSDOF 3
ENDMDL
MODEL 8
REMARK VINA RESULT:     -10.5      5.744     11.211
REMARK  Name = 60854
REMARK  3 active torsions:
REMARK  status: ('A' for Active; 'I' for Inactive)
REMARK    1  A    between atoms: N_2  and  C_17
REMARK    2  A    between atoms: C_17  and  C_18
REMARK    3  A    between atoms: C_18  and  C_22
REMARK                            x       y       z     vdW  Elec       q    Type
REMARK                         _______ _______ _______ _____ _____    ______ ____
ROOT
ATOM      1  S   UNL     1      33.775 -15.272 -24.945  0.00  0.00    +0.014 S 
ATOM      2  N   UNL     1      31.714 -10.066 -21.459  0.00  0.00    +0.389 N 
ATOM      3  N   UNL     1      32.833 -12.425 -22.616  0.00  0.00    -0.297 N 
ATOM      4  N   UNL     1      33.109 -13.804 -24.567  0.00  0.00    -0.194 NA
ATOM      5  C   UNL     1      31.901 -11.275 -20.647  0.00  0.00    -0.055 C 
ATOM      6  C   UNL     1      32.783  -9.966 -22.460  0.00  0.00    -0.055 C 
ATOM      7  C   UNL     1      31.866 -12.533 -21.519  0.00  0.00    +0.069 C 
ATOM      8  C   UNL     1      32.776 -11.180 -23.392  0.00  0.00    +0.069 C 
ATOM      9  C   UNL     1      33.281 -13.583 -23.263  0.00  0.00    +0.140 A 
ATOM     10  C   UNL     1      33.963 -14.601 -22.511  0.00  0.00    +0.040 A 
ATOM     11  C   UNL     1      34.315 -15.654 -23.357  0.00  0.00    +0.050 A 
ATOM     12  C   UNL     1      34.307 -14.692 -21.144  0.00  0.00    +0.003 C 
ATOM     13  C   UNL     1      34.996 -16.791 -22.894  0.00  0.00    +0.008 C 
ATOM     14  C   UNL     1      34.985 -15.821 -20.673  0.00  0.00    +0.000 C 
ATOM     15  C   UNL     1      35.324 -16.856 -21.538  0.00  0.00    +0.001 C 
ATOM     16  H   UNL     1      30.817 -10.128 -21.939  0.00  0.00    -0.080 HD
ENDROOT
BRANCH   2  17
ATOM     17  C   UNL     1      31.696  -8.875 -20.608  0.00  0.00    -0.072 C 
BRANCH  17  18
ATOM     18  C   UNL     1      32.930  -8.008 -20.855  0.00  0.00    +0.004 C 
BRANCH  18  22
ATOM     19 CL   UNL     1      34.656  -7.192 -23.267  0.00  0.00    -0.083 Cl
ATOM     20  O   UNL     1      29.594  -1.786 -22.675  0.00  0.00    -0.274 OA
ATOM     21  N   UNL     1      31.372  -3.195 -23.293  0.00  0.00    -0.284 N 
ATOM     22  C   UNL     1      32.572  -6.725 -21.563  0.00  0.00    -0.014 C 
ATOM     23  C   UNL     1      31.159  -4.826 -21.722  0.00  0.00    +0.000 C 
ATOM     24  C   UNL     1      31.486  -6.001 -21.074  0.00  0.00    -0.006 C 
ATOM     25  C   UNL     1      31.895  -4.394 -22.822  0.00  0.00    +0.048 C 
ATOM     26  C   UNL     1      33.312  -6.287 -22.670  0.00  0.00    +0.055 C 
ATOM     27  C   UNL     1      30.065  -3.847 -21.437  0.00  0.00    +0.113 C 
ATOM     28  C   UNL     1      32.973  -5.098 -23.319  0.00  0.00    +0.025 C 
ATOM     29  C   UNL     1      30.274  -2.789 -22.526  0.00  0.00    +0.231 C 
ATOM     30  H   UNL     1      31.727  -2.696 -24.063  0.00  0.00    +0.155 HD
ENDBRANCH  18  22
ENDBRANCH  17  18
ENDBRANCH   2  17
TORSDOF 3
ENDMDL
MODEL 9
REMARK VINA RESULT:     -10.2      5.555     10.964
REMARK  Name = 60854
REMARK  3 active torsions:
REMARK  status: ('A' for Active; 'I' for Inactive)
REMARK    1  A    between atoms: N_2  and  C_17
REMARK    2  A    between atoms: C_17  and  C_18
REMARK    3  A    between atoms: C_18  and  C_22
REMARK                            x       y       z     vdW  Elec       q    Type
REMARK                         _______ _______ _______ _____ _____    ______ ____
ROOT
ATOM      1  S   UNL     1      34.282 -24.390 -13.430  0.00  0.00    +0.014 S 
ATOM      2  N   UNL     1      35.961 -20.776 -18.686  0.00  0.00    +0.389 N 
ATOM      3  N   UNL     1      35.632 -22.505 -16.437  0.00  0.00    -0.297 N 
ATOM      4  N   UNL     1      34.165 -23.413 -14.762  0.00  0.00    -0.194 NA
ATOM      5  C   UNL     1      37.072 -21.003 -17.755  0.00  0.00    -0.055 C 
ATOM      6  C   UNL     1      35.148 -21.993 -18.798  0.00  0.00    -0.055 C 
ATOM      7  C   UNL     1      36.556 -21.369 -16.361  0.00  0.00    +0.069 C 
ATOM      8  C   UNL     1      34.566 -22.391 -17.440  0.00  0.00    +0.069 C 
ATOM      9  C   UNL     1      35.380 -23.273 -15.294  0.00  0.00    +0.140 A 
ATOM     10  C   UNL     1      36.464 -23.955 -14.640  0.00  0.00    +0.040 A 
ATOM     11  C   UNL     1      35.979 -24.653 -13.531  0.00  0.00    +0.050 A 
ATOM     12  C   UNL     1      37.845 -24.022 -14.926  0.00  0.00    +0.003 C 
ATOM     13  C   UNL     1      36.817 -25.413 -12.701  0.00  0.00    +0.008 C 
ATOM     14  C   UNL     1      38.688 -24.777 -14.104  0.00  0.00    +0.000 C 
ATOM     15  C   UNL     1      38.179 -25.462 -13.007  0.00  0.00    +0.001 C 
ATOM     16  H   UNL     1      35.377 -20.021 -18.325  0.00  0.00    -0.080 HD
ENDROOT
BRANCH   2  17
ATOM     17  C   UNL     1      36.466 -20.375 -19.999  0.00  0.00    -0.072 C 
BRANCH  17  18
ATOM     18  C   UNL     1      35.356 -20.417 -21.049  0.00  0.00    +0.004 C 
BRANCH  18  22
ATOM     19 CL   UNL     1      35.068 -20.349 -24.111  0.00  0.00    -0.083 Cl
ATOM     20  O   UNL     1      34.528 -13.239 -22.024  0.00  0.00    -0.274 OA
ATOM     21  N   UNL     1      34.629 -15.277 -23.192  0.00  0.00    -0.284 N 
ATOM     22  C   UNL     1      35.157 -19.070 -21.699  0.00  0.00    -0.014 C 
ATOM     23  C   UNL     1      34.937 -16.720 -21.461  0.00  0.00    +0.000 C 
ATOM     24  C   UNL     1      35.119 -17.953 -20.866  0.00  0.00    -0.006 C 
ATOM     25  C   UNL     1      34.798 -16.612 -22.842  0.00  0.00    +0.048 C 
ATOM     26  C   UNL     1      35.019 -18.958 -23.089  0.00  0.00    +0.055 C 
ATOM     27  C   UNL     1      34.854 -15.361 -20.843  0.00  0.00    +0.113 C 
ATOM     28  C   UNL     1      34.834 -17.707 -23.681  0.00  0.00    +0.025 C 
ATOM     29  C   UNL     1      34.649 -14.454 -22.061  0.00  0.00    +0.231 C 
ATOM     30  H   UNL     1      34.512 -14.953 -24.114  0.00  0.00    +0.155 HD
ENDBRANCH  18  22
ENDBRANCH  17  18
ENDBRANCH   2  17
TORSDOF 3
ENDMDL
