MODEL 1
REMARK VINA RESULT:     -11.7      0.000      0.000
REMARK  Name = 4413
REMARK  6 active torsions:
REMARK  status: ('A' for Active; 'I' for Inactive)
REMARK    1  A    between atoms: O_1  and  C_9
REMARK    2  A    between atoms: O_1  and  C_19
REMARK    3  A    between atoms: C_6  and  C_14
REMARK    4  A    between atoms: C_19  and  C_20
REMARK    5  A    between atoms: C_23  and  N_26
REMARK    6  A    between atoms: N_26  and  C_29
REMARK                            x       y       z     vdW  Elec       q    Type
REMARK                         _______ _______ _______ _____ _____    ______ ____
ROOT
ATOM      1  O   UNL     1      32.799 -22.666 -17.838  0.00  0.00    -0.421 OA
ENDROOT
BRANCH   1   9
ATOM      2  C   UNL     1      33.868 -23.674 -13.936  0.00  0.00    +0.000 C 
ATOM      3  C   UNL     1      34.855 -23.222 -14.845  0.00  0.00    +0.003 C 
ATOM      4  C   UNL     1      34.245 -24.009 -12.625  0.00  0.00    +0.003 C 
ATOM      5  C   UNL     1      34.477 -22.887 -16.156  0.00  0.00    +0.038 C 
ATOM      6  C   UNL     1      35.574 -23.900 -12.217  0.00  0.00    +0.031 C 
ATOM      7  C   UNL     1      36.187 -23.118 -14.417  0.00  0.00    +0.000 C 
ATOM      8  C   UNL     1      32.534 -23.778 -14.364  0.00  0.00    +0.003 C 
ATOM      9  C   UNL     1      33.148 -22.996 -16.565  0.00  0.00    +0.149 C 
ATOM     10  C   UNL     1      36.544 -23.456 -13.111  0.00  0.00    +0.003 C 
ATOM     11  C   UNL     1      32.179 -23.440 -15.670  0.00  0.00    +0.038 C 
BRANCH   6  14
ATOM     12  N   UNL     1      36.912 -23.525 -10.158  0.00  0.00    -0.343 N 
ATOM     13  N   UNL     1      35.371 -25.280 -10.260  0.00  0.00    -0.285 NA
ATOM     14  C   UNL     1      35.948 -24.252 -10.856  0.00  0.00    +0.117 C 
ATOM     15  H   UNL     1      37.149 -23.781  -9.238  0.00  0.00    +0.144 HD
ATOM     16  H   UNL     1      37.355 -22.757 -10.586  0.00  0.00    +0.144 HD
ATOM     17  H   UNL     1      35.623 -25.520  -9.338  0.00  0.00    +0.188 HD
ENDBRANCH   6  14
ENDBRANCH   1   9
BRANCH   1  19
ATOM     18  O   UNL     1      33.970 -24.173 -19.175  0.00  0.00    -0.244 OA
ATOM     19  C   UNL     1      33.738 -23.031 -18.805  0.00  0.00    +0.346 C 
BRANCH  19  20
ATOM     20  C   UNL     1      34.434 -21.841 -19.356  0.00  0.00    +0.076 C 
ATOM     21  C   UNL     1      35.799 -21.731 -19.191  0.00  0.00    +0.008 C 
ATOM     22  C   UNL     1      33.694 -20.884 -20.020  0.00  0.00    +0.008 C 
ATOM     23  C   UNL     1      35.729 -19.633 -20.386  0.00  0.00    +0.084 C 
ATOM     24  C   UNL     1      36.453 -20.614 -19.711  0.00  0.00    +0.019 C 
ATOM     25  C   UNL     1      34.348 -19.767 -20.540  0.00  0.00    +0.019 C 
BRANCH  23  26
ATOM     26  N   UNL     1      36.383 -18.513 -20.907  0.00  0.00    -0.214 NA
BRANCH  26  29
ATOM     27  N   UNL     1      35.490 -17.291 -22.686  0.00  0.00    -0.370 N 
ATOM     28  N   UNL     1      35.016 -16.554 -20.579  0.00  0.00    -0.370 N 
ATOM     29  C   UNL     1      35.665 -17.503 -21.338  0.00  0.00    +0.193 C 
ATOM     30  H   UNL     1      35.904 -17.901 -23.338  0.00  0.00    +0.159 HD
ATOM     31  H   UNL     1      34.949 -16.529 -22.998  0.00  0.00    +0.159 HD
ATOM     32  H   UNL     1      35.063 -16.595 -19.597  0.00  0.00    +0.159 HD
ATOM     33  H   UNL     1      34.503 -15.837 -21.018  0.00  0.00    +0.159 HD
ENDBRANCH  26  29
ENDBRANCH  23  26
ENDBRANCH  19  20
ENDBRANCH   1  19
TORSDOF 6
ENDMDL
MODEL 2
REMARK VINA RESULT:     -11.4      2.340      8.504
REMARK  Name = 4413
REMARK  6 active torsions:
REMARK  status: ('A' for Active; 'I' for Inactive)
REMARK    1  A    between atoms: O_1  and  C_9
REMARK    2  A    between atoms: O_1  and  C_19
REMARK    3  A    between atoms: C_6  and  C_14
REMARK    4  A    between atoms: C_19  and  C_20
REMARK    5  A    between atoms: C_23  and  N_26
REMARK    6  A    between atoms: N_26  and  C_29
REMARK                            x       y       z     vdW  Elec       q    Type
REMARK                         _______ _______ _______ _____ _____    ______ ____
ROOT
ATOM      1  O   UNL     1      34.198 -23.673 -17.329  0.00  0.00    -0.421 OA
ENDROOT
BRANCH   1   9
ATOM      2  C   UNL     1      34.173 -20.392 -19.902  0.00  0.00    +0.000 C 
ATOM      3  C   UNL     1      35.403 -20.913 -19.432  0.00  0.00    +0.003 C 
ATOM      4  C   UNL     1      34.182 -19.286 -20.768  0.00  0.00    +0.003 C 
ATOM      5  C   UNL     1      35.393 -22.019 -18.566  0.00  0.00    +0.038 C 
ATOM      6  C   UNL     1      35.385 -18.704 -21.166  0.00  0.00    +0.031 C 
ATOM      7  C   UNL     1      36.604 -20.315 -19.843  0.00  0.00    +0.000 C 
ATOM      8  C   UNL     1      32.971 -20.991 -19.491  0.00  0.00    +0.003 C 
ATOM      9  C   UNL     1      34.189 -22.602 -18.168  0.00  0.00    +0.149 C 
ATOM     10  C   UNL     1      36.595 -19.217 -20.704  0.00  0.00    +0.003 C 
ATOM     11  C   UNL     1      32.981 -22.088 -18.630  0.00  0.00    +0.038 C 
BRANCH   6  14
ATOM     12  N   UNL     1      35.384 -17.723 -23.448  0.00  0.00    -0.343 N 
ATOM     13  N   UNL     1      35.368 -16.335 -21.567  0.00  0.00    -0.285 NA
ATOM     14  C   UNL     1      35.378 -17.559 -22.063  0.00  0.00    +0.117 C 
ATOM     15  H   UNL     1      35.378 -16.933 -24.036  0.00  0.00    +0.144 HD
ATOM     16  H   UNL     1      35.393 -18.627 -23.836  0.00  0.00    +0.144 HD
ATOM     17  H   UNL     1      35.363 -15.558 -22.173  0.00  0.00    +0.188 HD
ENDBRANCH   6  14
ENDBRANCH   1   9
BRANCH   1  19
ATOM     18  O   UNL     1      33.221 -22.826 -15.391  0.00  0.00    -0.244 OA
ATOM     19  C   UNL     1      34.163 -23.343 -15.973  0.00  0.00    +0.346 C 
BRANCH  19  20
ATOM     20  C   UNL     1      35.432 -23.713 -15.296  0.00  0.00    +0.076 C 
ATOM     21  C   UNL     1      35.560 -24.979 -14.763  0.00  0.00    +0.008 C 
ATOM     22  C   UNL     1      36.445 -22.779 -15.223  0.00  0.00    +0.008 C 
ATOM     23  C   UNL     1      37.792 -24.401 -14.043  0.00  0.00    +0.084 C 
ATOM     24  C   UNL     1      36.753 -25.326 -14.129  0.00  0.00    +0.019 C 
ATOM     25  C   UNL     1      37.639 -23.126 -14.589  0.00  0.00    +0.019 C 
BRANCH  23  26
ATOM     26  N   UNL     1      38.987 -24.748 -13.406  0.00  0.00    -0.214 NA
BRANCH  26  29
ATOM     27  N   UNL     1      40.108 -25.354 -15.364  0.00  0.00    -0.370 N 
ATOM     28  N   UNL     1      40.529 -26.599 -13.499  0.00  0.00    -0.370 N 
ATOM     29  C   UNL     1      39.831 -25.536 -14.030  0.00  0.00    +0.193 C 
ATOM     30  H   UNL     1      39.673 -24.625 -15.863  0.00  0.00    +0.159 HD
ATOM     31  H   UNL     1      40.743 -25.952 -15.822  0.00  0.00    +0.159 HD
ATOM     32  H   UNL     1      40.419 -26.834 -12.550  0.00  0.00    +0.159 HD
ATOM     33  H   UNL     1      41.139 -27.122 -14.069  0.00  0.00    +0.159 HD
ENDBRANCH  26  29
ENDBRANCH  23  26
ENDBRANCH  19  20
ENDBRANCH   1  19
TORSDOF 6
ENDMDL
MODEL 3
REMARK VINA RESULT:     -11.4      4.424     10.593
REMARK  Name = 4413
REMARK  6 active torsions:
REMARK  status: ('A' for Active; 'I' for Inactive)
REMARK    1  A    between atoms: O_1  and  C_9
REMARK    2  A    between atoms: O_1  and  C_19
REMARK    3  A    between atoms: C_6  and  C_14
REMARK    4  A    between atoms: C_19  and  C_20
REMARK    5  A    between atoms: C_23  and  N_26
REMARK    6  A    between atoms: N_26  and  C_29
REMARK                            x       y       z     vdW  Elec       q    Type
REMARK                         _______ _______ _______ _____ _____    ______ ____
ROOT
ATOM      1  O   UNL     1      35.790 -18.625 -22.144  0.00  0.00    -0.421 OA
ENDROOT
BRANCH   1   9
ATOM      2  C   UNL     1      34.276 -14.744 -21.946  0.00  0.00    +0.000 C 
ATOM      3  C   UNL     1      34.355 -15.411 -23.193  0.00  0.00    +0.003 C 
ATOM      4  C   UNL     1      33.764 -13.438 -21.897  0.00  0.00    +0.003 C 
ATOM      5  C   UNL     1      34.867 -16.717 -23.241  0.00  0.00    +0.038 C 
ATOM      6  C   UNL     1      33.334 -12.798 -23.059  0.00  0.00    +0.031 C 
ATOM      7  C   UNL     1      33.917 -14.751 -24.352  0.00  0.00    +0.000 C 
ATOM      8  C   UNL     1      34.714 -15.404 -20.786  0.00  0.00    +0.003 C 
ATOM      9  C   UNL     1      35.297 -17.358 -22.079  0.00  0.00    +0.149 C 
ATOM     10  C   UNL     1      33.411 -13.453 -24.285  0.00  0.00    +0.003 C 
ATOM     11  C   UNL     1      35.220 -16.702 -20.854  0.00  0.00    +0.038 C 
BRANCH   6  14
ATOM     12  N   UNL     1      33.495 -10.368 -23.550  0.00  0.00    -0.343 N 
ATOM     13  N   UNL     1      31.652 -11.218 -22.388  0.00  0.00    -0.285 NA
ATOM     14  C   UNL     1      32.806 -11.444 -22.991  0.00  0.00    +0.117 C 
ATOM     15  H   UNL     1      33.118  -9.461 -23.492  0.00  0.00    +0.144 HD
ATOM     16  H   UNL     1      34.357 -10.517 -24.001  0.00  0.00    +0.144 HD
ATOM     17  H   UNL     1      31.293 -10.302 -22.341  0.00  0.00    +0.188 HD
ENDBRANCH   6  14
ENDBRANCH   1   9
BRANCH   1  19
ATOM     18  O   UNL     1      37.423 -18.697 -20.484  0.00  0.00    -0.244 OA
ATOM     19  C   UNL     1      36.363 -19.082 -20.956  0.00  0.00    +0.346 C 
BRANCH  19  20
ATOM     20  C   UNL     1      35.510 -20.109 -20.306  0.00  0.00    +0.076 C 
ATOM     21  C   UNL     1      34.139 -20.010 -20.424  0.00  0.00    +0.008 C 
ATOM     22  C   UNL     1      36.115 -21.133 -19.607  0.00  0.00    +0.008 C 
ATOM     23  C   UNL     1      33.925 -22.021 -19.103  0.00  0.00    +0.084 C 
ATOM     24  C   UNL     1      33.338 -20.976 -19.816  0.00  0.00    +0.019 C 
ATOM     25  C   UNL     1      35.314 -22.100 -18.998  0.00  0.00    +0.019 C 
BRANCH  23  26
ATOM     26  N   UNL     1      33.123 -22.989 -18.492  0.00  0.00    -0.214 NA
BRANCH  26  29
ATOM     27  N   UNL     1      31.591 -22.497 -16.798  0.00  0.00    -0.370 N 
ATOM     28  N   UNL     1      33.702 -23.076 -16.154  0.00  0.00    -0.370 N 
ATOM     29  C   UNL     1      32.848 -22.869 -17.215  0.00  0.00    +0.193 C 
ATOM     30  H   UNL     1      30.886 -22.319 -17.461  0.00  0.00    +0.159 HD
ATOM     31  H   UNL     1      31.397 -22.410 -15.836  0.00  0.00    +0.159 HD
ATOM     32  H   UNL     1      34.634 -23.348 -16.318  0.00  0.00    +0.159 HD
ATOM     33  H   UNL     1      33.380 -22.955 -15.231  0.00  0.00    +0.159 HD
ENDBRANCH  26  29
ENDBRANCH  23  26
ENDBRANCH  19  20
ENDBRANCH   1  19
TORSDOF 6
ENDMDL
MODEL 4
REMARK VINA RESULT:     -11.4      4.620     10.463
REMARK  Name = 4413
REMARK  6 active torsions:
REMARK  status: ('A' for Active; 'I' for Inactive)
REMARK    1  A    between atoms: O_1  and  C_9
REMARK    2  A    between atoms: O_1  and  C_19
REMARK    3  A    between atoms: C_6  and  C_14
REMARK    4  A    between atoms: C_19  and  C_20
REMARK    5  A    between atoms: C_23  and  N_26
REMARK    6  A    between atoms: N_26  and  C_29
REMARK                            x       y       z     vdW  Elec       q    Type
REMARK                         _______ _______ _______ _____ _____    ______ ____
ROOT
ATOM      1  O   UNL     1      35.748 -17.612 -20.515  0.00  0.00    -0.421 OA
ENDROOT
BRANCH   1   9
ATOM      2  C   UNL     1      33.815 -14.263 -22.073  0.00  0.00    +0.000 C 
ATOM      3  C   UNL     1      33.656 -14.600 -20.707  0.00  0.00    +0.003 C 
ATOM      4  C   UNL     1      33.157 -13.131 -22.582  0.00  0.00    +0.003 C 
ATOM      5  C   UNL     1      34.314 -15.731 -20.199  0.00  0.00    +0.038 C 
ATOM      6  C   UNL     1      32.355 -12.343 -21.757  0.00  0.00    +0.031 C 
ATOM      7  C   UNL     1      32.846 -13.795 -19.891  0.00  0.00    +0.000 C 
ATOM      8  C   UNL     1      34.625 -15.068 -22.890  0.00  0.00    +0.003 C 
ATOM      9  C   UNL     1      35.117 -16.520 -21.024  0.00  0.00    +0.149 C 
ATOM     10  C   UNL     1      32.199 -12.674 -20.414  0.00  0.00    +0.003 C 
ATOM     11  C   UNL     1      35.271 -16.189 -22.367  0.00  0.00    +0.038 C 
BRANCH   6  14
ATOM     12  N   UNL     1      32.354 -10.256 -23.103  0.00  0.00    -0.343 N 
ATOM     13  N   UNL     1      30.403 -10.967 -22.028  0.00  0.00    -0.285 NA
ATOM     14  C   UNL     1      31.680 -11.174 -22.299  0.00  0.00    +0.117 C 
ATOM     15  H   UNL     1      31.876  -9.473 -23.460  0.00  0.00    +0.144 HD
ATOM     16  H   UNL     1      33.305 -10.392 -23.314  0.00  0.00    +0.144 HD
ATOM     17  H   UNL     1      29.945 -10.177 -22.395  0.00  0.00    +0.188 HD
ENDBRANCH   6  14
ENDBRANCH   1   9
BRANCH   1  19
ATOM     18  O   UNL     1      35.954 -18.823 -22.495  0.00  0.00    -0.244 OA
ATOM     19  C   UNL     1      35.655 -18.755 -21.312  0.00  0.00    +0.346 C 
BRANCH  19  20
ATOM     20  C   UNL     1      35.148 -19.914 -20.534  0.00  0.00    +0.076 C 
ATOM     21  C   UNL     1      36.053 -20.745 -19.907  0.00  0.00    +0.008 C 
ATOM     22  C   UNL     1      33.785 -20.122 -20.461  0.00  0.00    +0.008 C 
ATOM     23  C   UNL     1      34.204 -22.064 -19.085  0.00  0.00    +0.084 C 
ATOM     24  C   UNL     1      35.576 -21.832 -19.176  0.00  0.00    +0.019 C 
ATOM     25  C   UNL     1      33.308 -21.210 -19.728  0.00  0.00    +0.019 C 
BRANCH  23  26
ATOM     26  N   UNL     1      33.725 -23.155 -18.353  0.00  0.00    -0.214 NA
BRANCH  26  29
ATOM     27  N   UNL     1      33.799 -22.956 -16.026  0.00  0.00    -0.370 N 
ATOM     28  N   UNL     1      31.771 -22.661 -17.030  0.00  0.00    -0.370 N 
ATOM     29  C   UNL     1      33.109 -22.932 -17.216  0.00  0.00    +0.193 C 
ATOM     30  H   UNL     1      34.766 -23.139 -16.022  0.00  0.00    +0.159 HD
ATOM     31  H   UNL     1      33.326 -22.788 -15.179  0.00  0.00    +0.159 HD
ATOM     32  H   UNL     1      31.166 -22.616 -17.805  0.00  0.00    +0.159 HD
ATOM     33  H   UNL     1      31.420 -22.511 -16.122  0.00  0.00    +0.159 HD
ENDBRANCH  26  29
ENDBRANCH  23  26
ENDBRANCH  19  20
ENDBRANCH   1  19
TORSDOF 6
ENDMDL
MODEL 5
REMARK VINA RESULT:     -11.2      4.403      7.226
REMARK  Name = 4413
REMARK  6 active torsions:
REMARK  status: ('A' for Active; 'I' for Inactive)
REMARK    1  A    between atoms: O_1  and  C_9
REMARK    2  A    between atoms: O_1  and  C_19
REMARK    3  A    between atoms: C_6  and  C_14
REMARK    4  A    between atoms: C_19  and  C_20
REMARK    5  A    between atoms: C_23  and  N_26
REMARK    6  A    between atoms: N_26  and  C_29
REMARK                            x       y       z     vdW  Elec       q    Type
REMARK                         _______ _______ _______ _____ _____    ______ ____
ROOT
ATOM      1  O   UNL     1      36.054 -17.720 -22.774  0.00  0.00    -0.421 OA
ENDROOT
BRANCH   1   9
ATOM      2  C   UNL     1      35.552 -20.534 -19.738  0.00  0.00    +0.000 C 
ATOM      3  C   UNL     1      34.429 -20.065 -20.461  0.00  0.00    +0.003 C 
ATOM      4  C   UNL     1      35.366 -21.482 -18.719  0.00  0.00    +0.003 C 
ATOM      5  C   UNL     1      34.616 -19.117 -21.480  0.00  0.00    +0.038 C 
ATOM      6  C   UNL     1      34.092 -21.961 -18.417  0.00  0.00    +0.031 C 
ATOM      7  C   UNL     1      33.154 -20.557 -20.143  0.00  0.00    +0.000 C 
ATOM      8  C   UNL     1      36.829 -20.041 -20.056  0.00  0.00    +0.003 C 
ATOM      9  C   UNL     1      35.891 -18.637 -21.783  0.00  0.00    +0.149 C 
ATOM     10  C   UNL     1      32.987 -21.499 -19.127  0.00  0.00    +0.003 C 
ATOM     11  C   UNL     1      36.995 -19.099 -21.072  0.00  0.00    +0.038 C 
BRANCH   6  14
ATOM     12  N   UNL     1      32.661 -23.473 -17.062  0.00  0.00    -0.343 N 
ATOM     13  N   UNL     1      34.959 -23.344 -16.653  0.00  0.00    -0.285 NA
ATOM     14  C   UNL     1      33.915 -22.942 -17.358  0.00  0.00    +0.117 C 
ATOM     15  H   UNL     1      32.565 -24.136 -16.342  0.00  0.00    +0.144 HD
ATOM     16  H   UNL     1      31.871 -23.184 -17.574  0.00  0.00    +0.144 HD
ATOM     17  H   UNL     1      34.841 -24.009 -15.936  0.00  0.00    +0.188 HD
ENDBRANCH   6  14
ENDBRANCH   1   9
BRANCH   1  19
ATOM     18  O   UNL     1      34.346 -18.412 -24.200  0.00  0.00    -0.244 OA
ATOM     19  C   UNL     1      34.928 -17.535 -23.579  0.00  0.00    +0.346 C 
BRANCH  19  20
ATOM     20  C   UNL     1      34.498 -16.114 -23.586  0.00  0.00    +0.076 C 
ATOM     21  C   UNL     1      33.770 -15.642 -24.658  0.00  0.00    +0.008 C 
ATOM     22  C   UNL     1      34.839 -15.310 -22.517  0.00  0.00    +0.008 C 
ATOM     23  C   UNL     1      33.696 -13.474 -23.595  0.00  0.00    +0.084 C 
ATOM     24  C   UNL     1      33.365 -14.307 -24.663  0.00  0.00    +0.019 C 
ATOM     25  C   UNL     1      34.433 -13.975 -22.522  0.00  0.00    +0.019 C 
BRANCH  23  26
ATOM     26  N   UNL     1      33.291 -12.136 -23.600  0.00  0.00    -0.214 NA
BRANCH  26  29
ATOM     27  N   UNL     1      32.426 -10.435 -22.252  0.00  0.00    -0.370 N 
ATOM     28  N   UNL     1      31.430 -12.483 -22.109  0.00  0.00    -0.370 N 
ATOM     29  C   UNL     1      32.420 -11.734 -22.705  0.00  0.00    +0.193 C 
ATOM     30  H   UNL     1      33.087  -9.795 -22.601  0.00  0.00    +0.159 HD
ATOM     31  H   UNL     1      31.767 -10.145 -21.580  0.00  0.00    +0.159 HD
ATOM     32  H   UNL     1      31.319 -13.431 -22.347  0.00  0.00    +0.159 HD
ATOM     33  H   UNL     1      30.830 -12.069 -21.445  0.00  0.00    +0.159 HD
ENDBRANCH  26  29
ENDBRANCH  23  26
ENDBRANCH  19  20
ENDBRANCH   1  19
TORSDOF 6
ENDMDL
MODEL 6
REMARK VINA RESULT:     -11.0      2.843      8.978
REMARK  Name = 4413
REMARK  6 active torsions:
REMARK  status: ('A' for Active; 'I' for Inactive)
REMARK    1  A    between atoms: O_1  and  C_9
REMARK    2  A    between atoms: O_1  and  C_19
REMARK    3  A    between atoms: C_6  and  C_14
REMARK    4  A    between atoms: C_19  and  C_20
REMARK    5  A    between atoms: C_23  and  N_26
REMARK    6  A    between atoms: N_26  and  C_29
REMARK                            x       y       z     vdW  Elec       q    Type
REMARK                         _______ _______ _______ _____ _____    ______ ____
ROOT
ATOM      1  O   UNL     1      35.005 -23.132 -17.537  0.00  0.00    -0.421 OA
ENDROOT
BRANCH   1   9
ATOM      2  C   UNL     1      34.472 -20.135 -20.388  0.00  0.00    +0.000 C 
ATOM      3  C   UNL     1      35.769 -20.424 -19.899  0.00  0.00    +0.003 C 
ATOM      4  C   UNL     1      34.310 -19.123 -21.348  0.00  0.00    +0.003 C 
ATOM      5  C   UNL     1      35.930 -21.436 -18.939  0.00  0.00    +0.038 C 
ATOM      6  C   UNL     1      35.410 -18.407 -21.819  0.00  0.00    +0.031 C 
ATOM      7  C   UNL     1      36.864 -19.694 -20.385  0.00  0.00    +0.000 C 
ATOM      8  C   UNL     1      33.376 -20.867 -19.901  0.00  0.00    +0.003 C 
ATOM      9  C   UNL     1      34.830 -22.153 -18.466  0.00  0.00    +0.149 C 
ATOM     10  C   UNL     1      36.685 -18.691 -21.339  0.00  0.00    +0.003 C 
ATOM     11  C   UNL     1      33.556 -21.869 -18.948  0.00  0.00    +0.038 C 
BRANCH   6  14
ATOM     12  N   UNL     1      34.558 -17.610 -24.012  0.00  0.00    -0.343 N 
ATOM     13  N   UNL     1      35.698 -16.148 -22.588  0.00  0.00    -0.285 NA
ATOM     14  C   UNL     1      35.225 -17.362 -22.813  0.00  0.00    +0.117 C 
ATOM     15  H   UNL     1      34.444 -16.887 -24.670  0.00  0.00    +0.144 HD
ATOM     16  H   UNL     1      34.200 -18.508 -24.199  0.00  0.00    +0.144 HD
ATOM     17  H   UNL     1      35.574 -15.439 -23.260  0.00  0.00    +0.188 HD
ENDBRANCH   6  14
ENDBRANCH   1   9
BRANCH   1  19
ATOM     18  O   UNL     1      35.866 -21.977 -15.706  0.00  0.00    -0.244 OA
ATOM     19  C   UNL     1      35.005 -22.678 -16.217  0.00  0.00    +0.346 C 
BRANCH  19  20
ATOM     20  C   UNL     1      33.802 -23.149 -15.485  0.00  0.00    +0.076 C 
ATOM     21  C   UNL     1      32.558 -22.947 -16.046  0.00  0.00    +0.008 C 
ATOM     22  C   UNL     1      33.966 -23.777 -14.267  0.00  0.00    +0.008 C 
ATOM     23  C   UNL     1      31.567 -24.029 -14.127  0.00  0.00    +0.084 C 
ATOM     24  C   UNL     1      31.429 -23.391 -15.360  0.00  0.00    +0.019 C 
ATOM     25  C   UNL     1      32.836 -24.221 -13.580  0.00  0.00    +0.019 C 
BRANCH  23  26
ATOM     26  N   UNL     1      30.435 -24.473 -13.438  0.00  0.00    -0.214 NA
BRANCH  26  29
ATOM     27  N   UNL     1      29.031 -26.240 -14.042  0.00  0.00    -0.370 N 
ATOM     28  N   UNL     1      28.602 -24.205 -14.981  0.00  0.00    -0.370 N 
ATOM     29  C   UNL     1      29.410 -24.920 -14.125  0.00  0.00    +0.193 C 
ATOM     30  H   UNL     1      29.529 -26.860 -13.462  0.00  0.00    +0.159 HD
ATOM     31  H   UNL     1      28.260 -26.564 -14.562  0.00  0.00    +0.159 HD
ATOM     32  H   UNL     1      28.768 -23.246 -15.128  0.00  0.00    +0.159 HD
ATOM     33  H   UNL     1      27.856 -24.652 -15.444  0.00  0.00    +0.159 HD
ENDBRANCH  26  29
ENDBRANCH  23  26
ENDBRANCH  19  20
ENDBRANCH   1  19
TORSDOF 6
ENDMDL
MODEL 7
REMARK VINA RESULT:     -11.0      2.592      3.971
REMARK  Name = 4413
REMARK  6 active torsions:
REMARK  status: ('A' for Active; 'I' for Inactive)
REMARK    1  A    between atoms: O_1  and  C_9
REMARK    2  A    between atoms: O_1  and  C_19
REMARK    3  A    between atoms: C_6  and  C_14
REMARK    4  A    between atoms: C_19  and  C_20
REMARK    5  A    between atoms: C_23  and  N_26
REMARK    6  A    between atoms: N_26  and  C_29
REMARK                            x       y       z     vdW  Elec       q    Type
REMARK                         _______ _______ _______ _____ _____    ______ ____
ROOT
ATOM      1  O   UNL     1      35.264 -20.748 -20.720  0.00  0.00    -0.421 OA
ENDROOT
BRANCH   1   9
ATOM      2  C   UNL     1      34.780 -22.580 -17.006  0.00  0.00    +0.000 C 
ATOM      3  C   UNL     1      36.050 -22.087 -17.392  0.00  0.00    +0.003 C 
ATOM      4  C   UNL     1      34.634 -23.194 -15.752  0.00  0.00    +0.003 C 
ATOM      5  C   UNL     1      36.195 -21.473 -18.646  0.00  0.00    +0.038 C 
ATOM      6  C   UNL     1      35.724 -23.320 -14.890  0.00  0.00    +0.031 C 
ATOM      7  C   UNL     1      37.135 -22.222 -16.512  0.00  0.00    +0.000 C 
ATOM      8  C   UNL     1      33.694 -22.445 -17.887  0.00  0.00    +0.003 C 
ATOM      9  C   UNL     1      35.106 -21.347 -19.509  0.00  0.00    +0.149 C 
ATOM     10  C   UNL     1      36.972 -22.836 -15.269  0.00  0.00    +0.003 C 
ATOM     11  C   UNL     1      33.858 -21.832 -19.129  0.00  0.00    +0.038 C 
BRANCH   6  14
ATOM     12  N   UNL     1      35.621 -23.226 -12.410  0.00  0.00    -0.343 N 
ATOM     13  N   UNL     1      35.340 -25.261 -13.526  0.00  0.00    -0.285 NA
ATOM     14  C   UNL     1      35.556 -23.959 -13.594  0.00  0.00    +0.117 C 
ATOM     15  H   UNL     1      35.504 -23.679 -11.544  0.00  0.00    +0.144 HD
ATOM     16  H   UNL     1      35.784 -22.256 -12.440  0.00  0.00    +0.144 HD
ATOM     17  H   UNL     1      35.226 -25.695 -12.649  0.00  0.00    +0.188 HD
ENDBRANCH   6  14
ENDBRANCH   1   9
BRANCH   1  19
ATOM     18  O   UNL     1      36.714 -19.159 -19.825  0.00  0.00    -0.244 OA
ATOM     19  C   UNL     1      35.903 -19.507 -20.670  0.00  0.00    +0.346 C 
BRANCH  19  20
ATOM     20  C   UNL     1      35.481 -18.639 -21.798  0.00  0.00    +0.076 C 
ATOM     21  C   UNL     1      35.712 -17.281 -21.717  0.00  0.00    +0.008 C 
ATOM     22  C   UNL     1      34.873 -19.217 -22.893  0.00  0.00    +0.008 C 
ATOM     23  C   UNL     1      34.702 -17.025 -23.897  0.00  0.00    +0.084 C 
ATOM     24  C   UNL     1      35.318 -16.466 -22.778  0.00  0.00    +0.019 C 
ATOM     25  C   UNL     1      34.478 -18.401 -23.955  0.00  0.00    +0.019 C 
BRANCH  23  26
ATOM     26  N   UNL     1      34.305 -16.209 -24.959  0.00  0.00    -0.214 NA
BRANCH  26  29
ATOM     27  N   UNL     1      32.717 -14.628 -25.622  0.00  0.00    -0.370 N 
ATOM     28  N   UNL     1      33.650 -14.361 -23.557  0.00  0.00    -0.370 N 
ATOM     29  C   UNL     1      33.609 -15.126 -24.701  0.00  0.00    +0.193 C 
ATOM     30  H   UNL     1      32.593 -15.085 -26.485  0.00  0.00    +0.159 HD
ATOM     31  H   UNL     1      32.200 -13.815 -25.417  0.00  0.00    +0.159 HD
ATOM     32  H   UNL     1      34.250 -14.612 -22.818  0.00  0.00    +0.159 HD
ATOM     33  H   UNL     1      33.077 -13.564 -23.476  0.00  0.00    +0.159 HD
ENDBRANCH  26  29
ENDBRANCH  23  26
ENDBRANCH  19  20
ENDBRANCH   1  19
TORSDOF 6
ENDMDL
MODEL 8
REMARK VINA RESULT:     -11.0      2.640      4.374
REMARK  Name = 4413
REMARK  6 active torsions:
REMARK  status: ('A' for Active; 'I' for Inactive)
REMARK    1  A    between atoms: O_1  and  C_9
REMARK    2  A    between atoms: O_1  and  C_19
REMARK    3  A    between atoms: C_6  and  C_14
REMARK    4  A    between atoms: C_19  and  C_20
REMARK    5  A    between atoms: C_23  and  N_26
REMARK    6  A    between atoms: N_26  and  C_29
REMARK                            x       y       z     vdW  Elec       q    Type
REMARK                         _______ _______ _______ _____ _____    ______ ____
ROOT
ATOM      1  O   UNL     1      35.452 -20.772 -20.657  0.00  0.00    -0.421 OA
ENDROOT
BRANCH   1   9
ATOM      2  C   UNL     1      35.156 -22.437 -16.846  0.00  0.00    +0.000 C 
ATOM      3  C   UNL     1      34.007 -22.341 -17.667  0.00  0.00    +0.003 C 
ATOM      4  C   UNL     1      35.039 -23.000 -15.565  0.00  0.00    +0.003 C 
ATOM      5  C   UNL     1      34.124 -21.777 -18.948  0.00  0.00    +0.038 C 
ATOM      6  C   UNL     1      33.807 -23.463 -15.101  0.00  0.00    +0.031 C 
ATOM      7  C   UNL     1      32.776 -22.812 -17.184  0.00  0.00    +0.000 C 
ATOM      8  C   UNL     1      36.387 -21.965 -17.329  0.00  0.00    +0.003 C 
ATOM      9  C   UNL     1      35.356 -21.314 -19.413  0.00  0.00    +0.149 C 
ATOM     10  C   UNL     1      32.678 -23.369 -15.908  0.00  0.00    +0.003 C 
ATOM     11  C   UNL     1      36.485 -21.408 -18.605  0.00  0.00    +0.038 C 
BRANCH   6  14
ATOM     12  N   UNL     1      34.503 -25.118 -13.384  0.00  0.00    -0.343 N 
ATOM     13  N   UNL     1      32.833 -23.554 -12.906  0.00  0.00    -0.285 NA
ATOM     14  C   UNL     1      33.703 -24.044 -13.772  0.00  0.00    +0.117 C 
ATOM     15  H   UNL     1      34.415 -25.495 -12.479  0.00  0.00    +0.144 HD
ATOM     16  H   UNL     1      35.155 -25.499 -14.016  0.00  0.00    +0.144 HD
ATOM     17  H   UNL     1      32.760 -23.946 -12.006  0.00  0.00    +0.188 HD
ENDBRANCH   6  14
ENDBRANCH   1   9
BRANCH   1  19
ATOM     18  O   UNL     1      36.894 -19.103 -19.905  0.00  0.00    -0.244 OA
ATOM     19  C   UNL     1      36.052 -19.511 -20.691  0.00  0.00    +0.346 C 
BRANCH  19  20
ATOM     20  C   UNL     1      35.544 -18.704 -21.829  0.00  0.00    +0.076 C 
ATOM     21  C   UNL     1      34.864 -19.339 -22.848  0.00  0.00    +0.008 C 
ATOM     22  C   UNL     1      35.767 -17.342 -21.832  0.00  0.00    +0.008 C 
ATOM     23  C   UNL     1      34.597 -17.202 -23.941  0.00  0.00    +0.084 C 
ATOM     24  C   UNL     1      34.386 -18.580 -23.915  0.00  0.00    +0.019 C 
ATOM     25  C   UNL     1      35.288 -16.582 -22.900  0.00  0.00    +0.019 C 
BRANCH  23  26
ATOM     26  N   UNL     1      34.119 -16.441 -25.012  0.00  0.00    -0.214 NA
BRANCH  26  29
ATOM     27  N   UNL     1      32.825 -14.634 -25.734  0.00  0.00    -0.370 N 
ATOM     28  N   UNL     1      33.582 -14.575 -23.582  0.00  0.00    -0.370 N 
ATOM     29  C   UNL     1      33.551 -15.284 -24.763  0.00  0.00    +0.193 C 
ATOM     30  H   UNL     1      32.726 -15.037 -26.627  0.00  0.00    +0.159 HD
ATOM     31  H   UNL     1      32.404 -13.766 -25.536  0.00  0.00    +0.159 HD
ATOM     32  H   UNL     1      34.069 -14.934 -22.806  0.00  0.00    +0.159 HD
ATOM     33  H   UNL     1      33.114 -13.711 -23.513  0.00  0.00    +0.159 HD
ENDBRANCH  26  29
ENDBRANCH  23  26
ENDBRANCH  19  20
ENDBRANCH   1  19
TORSDOF 6
ENDMDL
MODEL 9
REMARK VINA RESULT:     -10.9      1.645      8.702
REMARK  Name = 4413
REMARK  6 active torsions:
REMARK  status: ('A' for Active; 'I' for Inactive)
REMARK    1  A    between atoms: O_1  and  C_9
REMARK    2  A    between atoms: O_1  and  C_19
REMARK    3  A    between atoms: C_6  and  C_14
REMARK    4  A    between atoms: C_19  and  C_20
REMARK    5  A    between atoms: C_23  and  N_26
REMARK    6  A    between atoms: N_26  and  C_29
REMARK                            x       y       z     vdW  Elec       q    Type
REMARK                         _______ _______ _______ _____ _____    ______ ____
ROOT
ATOM      1  O   UNL     1      34.211 -23.461 -17.891  0.00  0.00    -0.421 OA
ENDROOT
BRANCH   1   9
ATOM      2  C   UNL     1      34.161 -20.029 -20.260  0.00  0.00    +0.000 C 
ATOM      3  C   UNL     1      35.393 -20.552 -19.797  0.00  0.00    +0.003 C 
ATOM      4  C   UNL     1      34.162 -18.873 -21.057  0.00  0.00    +0.003 C 
ATOM      5  C   UNL     1      35.392 -21.708 -19.001  0.00  0.00    +0.038 C 
ATOM      6  C   UNL     1      35.359 -18.242 -21.394  0.00  0.00    +0.031 C 
ATOM      7  C   UNL     1      36.588 -19.904 -20.146  0.00  0.00    +0.000 C 
ATOM      8  C   UNL     1      32.965 -20.678 -19.911  0.00  0.00    +0.003 C 
ATOM      9  C   UNL     1      34.194 -22.341 -18.663  0.00  0.00    +0.149 C 
ATOM     10  C   UNL     1      36.571 -18.756 -20.939  0.00  0.00    +0.003 C 
ATOM     11  C   UNL     1      32.984 -21.826 -19.118  0.00  0.00    +0.038 C 
BRANCH   6  14
ATOM     12  N   UNL     1      35.150 -15.782 -21.662  0.00  0.00    -0.343 N 
ATOM     13  N   UNL     1      35.512 -17.145 -23.526  0.00  0.00    -0.285 NA
ATOM     14  C   UNL     1      35.343 -17.045 -22.219  0.00  0.00    +0.117 C 
ATOM     15  H   UNL     1      35.143 -14.985 -22.241  0.00  0.00    +0.144 HD
ATOM     16  H   UNL     1      35.020 -15.687 -20.691  0.00  0.00    +0.144 HD
ATOM     17  H   UNL     1      35.501 -16.336 -24.087  0.00  0.00    +0.188 HD
ENDBRANCH   6  14
ENDBRANCH   1   9
BRANCH   1  19
ATOM     18  O   UNL     1      32.842 -22.884 -16.097  0.00  0.00    -0.244 OA
ATOM     19  C   UNL     1      33.923 -23.236 -16.544  0.00  0.00    +0.346 C 
BRANCH  19  20
ATOM     20  C   UNL     1      35.111 -23.492 -15.689  0.00  0.00    +0.076 C 
ATOM     21  C   UNL     1      36.142 -22.575 -15.688  0.00  0.00    +0.008 C 
ATOM     22  C   UNL     1      35.144 -24.637 -14.921  0.00  0.00    +0.008 C 
ATOM     23  C   UNL     1      37.314 -23.965 -14.097  0.00  0.00    +0.084 C 
ATOM     24  C   UNL     1      37.255 -22.815 -14.884  0.00  0.00    +0.019 C 
ATOM     25  C   UNL     1      36.258 -24.877 -14.116  0.00  0.00    +0.019 C 
BRANCH  23  26
ATOM     26  N   UNL     1      38.431 -24.206 -13.292  0.00  0.00    -0.214 NA
BRANCH  26  29
ATOM     27  N   UNL     1      38.366 -26.121 -11.955  0.00  0.00    -0.370 N 
ATOM     28  N   UNL     1      37.951 -24.124 -10.930  0.00  0.00    -0.370 N 
ATOM     29  C   UNL     1      38.255 -24.759 -12.115  0.00  0.00    +0.193 C 
ATOM     30  H   UNL     1      38.581 -26.691 -12.727  0.00  0.00    +0.159 HD
ATOM     31  H   UNL     1      38.232 -26.525 -11.066  0.00  0.00    +0.159 HD
ATOM     32  H   UNL     1      37.845 -23.146 -10.910  0.00  0.00    +0.159 HD
ATOM     33  H   UNL     1      37.843 -24.649 -10.104  0.00  0.00    +0.159 HD
ENDBRANCH  26  29
ENDBRANCH  23  26
ENDBRANCH  19  20
ENDBRANCH   1  19
TORSDOF 6
ENDMDL
