MODEL 1
REMARK VINA RESULT:     -11.5      0.000      0.000
REMARK  Name = 445841
REMARK  2 active torsions:
REMARK  status: ('A' for Active; 'I' for Inactive)
REMARK    1  A    between atoms: N_2  and  C_22
REMARK    2  A    between atoms: C_6  and  C_27
REMARK                            x       y       z     vdW  Elec       q    Type
REMARK                         _______ _______ _______ _____ _____    ______ ____
ROOT
ATOM      1  O   UNL     1      34.449 -20.958 -20.367  0.00  0.00    -0.252 OA
ATOM      2  N   UNL     1      35.865 -19.233 -21.078  0.00  0.00    -0.268 N 
ATOM      3  N   UNL     1      35.595 -22.732 -16.740  0.00  0.00    -0.241 N 
ATOM      4  N   UNL     1      36.317 -20.340 -19.102  0.00  0.00    -0.252 N 
ATOM      5  N   UNL     1      35.281 -22.123 -17.896  0.00  0.00    -0.166 NA
ATOM      6  C   UNL     1      36.716 -22.236 -16.143  0.00  0.00    +0.026 C 
ATOM      7  C   UNL     1      37.168 -21.233 -16.966  0.00  0.00    +0.046 C 
ATOM      8  C   UNL     1      36.244 -21.220 -18.015  0.00  0.00    +0.154 C 
ATOM      9  C   UNL     1      35.439 -20.256 -20.193  0.00  0.00    +0.309 C 
ATOM     10  H   UNL     1      36.680 -18.750 -20.810  0.00  0.00    +0.156 HD
ATOM     11  H   UNL     1      35.064 -23.468 -16.359  0.00  0.00    +0.174 HD
ATOM     12  H   UNL     1      37.071 -19.707 -19.099  0.00  0.00    +0.158 HD
ENDROOT
BRANCH   2  22
ATOM     13  O   UNL     1      33.783 -14.994 -24.638  0.00  0.00    -0.270 OA
ATOM     14  N   UNL     1      34.894 -15.206 -22.570  0.00  0.00    -0.274 N 
ATOM     15  C   UNL     1      35.429 -16.282 -21.752  0.00  0.00    +0.100 C 
ATOM     16  C   UNL     1      34.746 -16.032 -20.415  0.00  0.00    +0.026 C 
ATOM     17  C   UNL     1      34.738 -14.496 -20.347  0.00  0.00    +0.024 C 
ATOM     18  C   UNL     1      34.484 -14.054 -21.792  0.00  0.00    +0.094 C 
ATOM     19  C   UNL     1      35.081 -17.482 -22.557  0.00  0.00    +0.014 C 
ATOM     20  C   UNL     1      34.514 -17.093 -23.777  0.00  0.00    +0.052 C 
ATOM     21  C   UNL     1      34.359 -15.630 -23.774  0.00  0.00    +0.249 C 
ATOM     22  C   UNL     1      35.284 -18.820 -22.276  0.00  0.00    +0.049 C 
ATOM     23  C   UNL     1      34.122 -18.003 -24.739  0.00  0.00    +0.004 C 
ATOM     24  C   UNL     1      34.900 -19.760 -23.238  0.00  0.00    +0.014 C 
ATOM     25  C   UNL     1      34.325 -19.355 -24.458  0.00  0.00    +0.001 C 
ENDBRANCH   2  22
BRANCH   6  27
ATOM     26  N   UNL     1      36.179 -23.426 -14.045  0.00  0.00    +0.388 N 
ATOM     27  C   UNL     1      37.240 -22.780 -14.834  0.00  0.00    -0.023 C 
ATOM     28  C   UNL     1      38.326 -23.850 -15.013  0.00  0.00    -0.018 C 
ATOM     29  C   UNL     1      37.814 -25.060 -14.247  0.00  0.00    -0.025 C 
ATOM     30  C   UNL     1      36.829 -24.469 -13.260  0.00  0.00    -0.081 C 
ATOM     31  H   UNL     1      35.478 -23.835 -14.664  0.00  0.00    -0.084 HD
ATOM     32  H   UNL     1      35.699 -22.753 -13.446  0.00  0.00    -0.084 HD
ENDBRANCH   6  27
TORSDOF 2
ENDMDL
MODEL 2
REMARK VINA RESULT:     -10.6      3.147     10.141
REMARK  Name = 445841
REMARK  2 active torsions:
REMARK  status: ('A' for Active; 'I' for Inactive)
REMARK    1  A    between atoms: N_2  and  C_22
REMARK    2  A    between atoms: C_6  and  C_27
REMARK                            x       y       z     vdW  Elec       q    Type
REMARK                         _______ _______ _______ _____ _____    ______ ____
ROOT
ATOM      1  O   UNL     1      32.376 -21.960 -17.813  0.00  0.00    -0.252 OA
ATOM      2  N   UNL     1      34.236 -22.768 -16.640  0.00  0.00    -0.268 N 
ATOM      3  N   UNL     1      33.336 -19.896 -21.339  0.00  0.00    -0.241 N 
ATOM      4  N   UNL     1      34.545 -21.604 -18.612  0.00  0.00    -0.252 N 
ATOM      5  N   UNL     1      33.094 -20.567 -20.200  0.00  0.00    -0.166 NA
ATOM      6  C   UNL     1      34.661 -19.789 -21.645  0.00  0.00    +0.026 C 
ATOM      7  C   UNL     1      35.332 -20.435 -20.636  0.00  0.00    +0.046 C 
ATOM      8  C   UNL     1      34.314 -20.884 -19.790  0.00  0.00    +0.154 C 
ATOM      9  C   UNL     1      33.590 -22.093 -17.707  0.00  0.00    +0.309 C 
ATOM     10  H   UNL     1      35.219 -22.795 -16.687  0.00  0.00    +0.156 HD
ATOM     11  H   UNL     1      32.623 -19.516 -21.901  0.00  0.00    +0.174 HD
ATOM     12  H   UNL     1      35.488 -21.789 -18.393  0.00  0.00    +0.158 HD
ENDROOT
BRANCH   2  22
ATOM     13  O   UNL     1      34.640 -25.095 -11.218  0.00  0.00    -0.270 OA
ATOM     14  N   UNL     1      35.975 -23.915 -12.762  0.00  0.00    -0.274 N 
ATOM     15  C   UNL     1      35.811 -23.321 -14.078  0.00  0.00    +0.100 C 
ATOM     16  C   UNL     1      36.943 -23.971 -14.861  0.00  0.00    +0.026 C 
ATOM     17  C   UNL     1      38.063 -24.028 -13.810  0.00  0.00    +0.024 C 
ATOM     18  C   UNL     1      37.336 -24.340 -12.498  0.00  0.00    +0.094 C 
ATOM     19  C   UNL     1      34.397 -23.653 -14.392  0.00  0.00    +0.014 C 
ATOM     20  C   UNL     1      33.793 -24.269 -13.288  0.00  0.00    +0.052 C 
ATOM     21  C   UNL     1      34.816 -24.473 -12.250  0.00  0.00    +0.249 C 
ATOM     22  C   UNL     1      33.665 -23.397 -15.536  0.00  0.00    +0.049 C 
ATOM     23  C   UNL     1      32.469 -24.660 -13.287  0.00  0.00    +0.004 C 
ATOM     24  C   UNL     1      32.320 -23.780 -15.555  0.00  0.00    +0.014 C 
ATOM     25  C   UNL     1      31.727 -24.404 -14.440  0.00  0.00    +0.001 C 
ENDBRANCH   2  22
BRANCH   6  27
ATOM     26  N   UNL     1      34.071 -18.901 -23.874  0.00  0.00    +0.388 N 
ATOM     27  C   UNL     1      35.146 -19.074 -22.885  0.00  0.00    -0.023 C 
ATOM     28  C   UNL     1      35.675 -17.661 -22.602  0.00  0.00    -0.018 C 
ATOM     29  C   UNL     1      34.869 -16.752 -23.517  0.00  0.00    -0.025 C 
ATOM     30  C   UNL     1      34.384 -17.681 -24.610  0.00  0.00    -0.081 C 
ATOM     31  H   UNL     1      33.170 -18.808 -23.404  0.00  0.00    -0.084 HD
ATOM     32  H   UNL     1      34.006 -19.706 -24.498  0.00  0.00    -0.084 HD
ENDBRANCH   6  27
TORSDOF 2
ENDMDL
MODEL 3
REMARK VINA RESULT:     -10.5      3.714      9.866
REMARK  Name = 445841
REMARK  2 active torsions:
REMARK  status: ('A' for Active; 'I' for Inactive)
REMARK    1  A    between atoms: N_2  and  C_22
REMARK    2  A    between atoms: C_6  and  C_27
REMARK                            x       y       z     vdW  Elec       q    Type
REMARK                         _______ _______ _______ _____ _____    ______ ____
ROOT
ATOM      1  O   UNL     1      36.288 -21.431 -17.246  0.00  0.00    -0.252 OA
ATOM      2  N   UNL     1      34.312 -22.684 -17.153  0.00  0.00    -0.268 N 
ATOM      3  N   UNL     1      36.683 -19.110 -20.721  0.00  0.00    -0.241 N 
ATOM      4  N   UNL     1      34.723 -21.336 -18.983  0.00  0.00    -0.252 N 
ATOM      5  N   UNL     1      36.497 -19.874 -19.632  0.00  0.00    -0.166 NA
ATOM      6  C   UNL     1      35.664 -19.181 -21.625  0.00  0.00    +0.026 C 
ATOM      7  C   UNL     1      34.748 -20.054 -21.090  0.00  0.00    +0.046 C 
ATOM      8  C   UNL     1      35.322 -20.437 -19.874  0.00  0.00    +0.154 C 
ATOM      9  C   UNL     1      35.222 -21.775 -17.747  0.00  0.00    +0.309 C 
ATOM     10  H   UNL     1      33.495 -22.868 -17.671  0.00  0.00    +0.156 HD
ATOM     11  H   UNL     1      37.481 -18.549 -20.855  0.00  0.00    +0.174 HD
ATOM     12  H   UNL     1      33.849 -21.700 -19.254  0.00  0.00    +0.158 HD
ENDROOT
BRANCH   2  22
ATOM     13  O   UNL     1      31.869 -25.399 -12.501  0.00  0.00    -0.270 OA
ATOM     14  N   UNL     1      31.225 -24.467 -14.568  0.00  0.00    -0.274 N 
ATOM     15  C   UNL     1      31.879 -23.845 -15.707  0.00  0.00    +0.100 C 
ATOM     16  C   UNL     1      31.126 -22.528 -15.823  0.00  0.00    +0.026 C 
ATOM     17  C   UNL     1      29.690 -22.953 -15.474  0.00  0.00    +0.024 C 
ATOM     18  C   UNL     1      29.864 -24.007 -14.376  0.00  0.00    +0.094 C 
ATOM     19  C   UNL     1      33.305 -23.857 -15.288  0.00  0.00    +0.014 C 
ATOM     20  C   UNL     1      33.442 -24.542 -14.074  0.00  0.00    +0.052 C 
ATOM     21  C   UNL     1      32.101 -24.905 -13.589  0.00  0.00    +0.249 C 
ATOM     22  C   UNL     1      34.417 -23.353 -15.935  0.00  0.00    +0.049 C 
ATOM     23  C   UNL     1      34.665 -24.735 -13.462  0.00  0.00    +0.004 C 
ATOM     24  C   UNL     1      35.668 -23.540 -15.336  0.00  0.00    +0.014 C 
ATOM     25  C   UNL     1      35.790 -24.226 -14.112  0.00  0.00    +0.001 C 
ENDBRANCH   2  22
BRANCH   6  27
ATOM     26  N   UNL     1      34.482 -18.667 -23.732  0.00  0.00    +0.388 N 
ATOM     27  C   UNL     1      35.676 -18.397 -22.917  0.00  0.00    -0.023 C 
ATOM     28  C   UNL     1      35.693 -16.878 -22.704  0.00  0.00    -0.018 C 
ATOM     29  C   UNL     1      34.491 -16.360 -23.480  0.00  0.00    -0.025 C 
ATOM     30  C   UNL     1      34.224 -17.451 -24.496  0.00  0.00    -0.081 C 
ATOM     31  H   UNL     1      33.685 -18.882 -23.132  0.00  0.00    -0.084 HD
ATOM     32  H   UNL     1      34.624 -19.469 -24.347  0.00  0.00    -0.084 HD
ENDBRANCH   6  27
TORSDOF 2
ENDMDL
MODEL 4
REMARK VINA RESULT:     -10.4      4.628      8.443
REMARK  Name = 445841
REMARK  2 active torsions:
REMARK  status: ('A' for Active; 'I' for Inactive)
REMARK    1  A    between atoms: N_2  and  C_22
REMARK    2  A    between atoms: C_6  and  C_27
REMARK                            x       y       z     vdW  Elec       q    Type
REMARK                         _______ _______ _______ _____ _____    ______ ____
ROOT
ATOM      1  O   UNL     1      33.733 -12.968 -24.322  0.00  0.00    -0.252 OA
ATOM      2  N   UNL     1      33.267 -11.785 -22.355  0.00  0.00    -0.268 N 
ATOM      3  N   UNL     1      35.242 -16.832 -23.682  0.00  0.00    -0.241 N 
ATOM      4  N   UNL     1      34.104 -13.934 -22.224  0.00  0.00    -0.252 N 
ATOM      5  N   UNL     1      34.755 -15.587 -23.820  0.00  0.00    -0.166 NA
ATOM      6  C   UNL     1      35.389 -17.225 -22.384  0.00  0.00    +0.026 C 
ATOM      7  C   UNL     1      34.971 -16.163 -21.620  0.00  0.00    +0.046 C 
ATOM      8  C   UNL     1      34.598 -15.199 -22.562  0.00  0.00    +0.154 C 
ATOM      9  C   UNL     1      33.707 -12.910 -23.097  0.00  0.00    +0.309 C 
ATOM     10  H   UNL     1      33.302 -11.880 -21.375  0.00  0.00    +0.156 HD
ATOM     11  H   UNL     1      35.470 -17.408 -24.446  0.00  0.00    +0.174 HD
ATOM     12  H   UNL     1      34.025 -13.741 -21.261  0.00  0.00    +0.158 HD
ENDROOT
BRANCH   2  22
ATOM     13  O   UNL     1      31.091  -6.365 -21.425  0.00  0.00    -0.270 OA
ATOM     14  N   UNL     1      31.948  -8.182 -20.194  0.00  0.00    -0.274 N 
ATOM     15  C   UNL     1      32.517  -9.489 -20.478  0.00  0.00    +0.100 C 
ATOM     16  C   UNL     1      31.643 -10.405 -19.635  0.00  0.00    +0.026 C 
ATOM     17  C   UNL     1      31.414  -9.553 -18.376  0.00  0.00    +0.024 C 
ATOM     18  C   UNL     1      31.287  -8.121 -18.906  0.00  0.00    +0.094 C 
ATOM     19  C   UNL     1      32.444  -9.541 -21.961  0.00  0.00    +0.014 C 
ATOM     20  C   UNL     1      31.988  -8.315 -22.462  0.00  0.00    +0.052 C 
ATOM     21  C   UNL     1      31.634  -7.450 -21.325  0.00  0.00    +0.249 C 
ATOM     22  C   UNL     1      32.793 -10.562 -22.825  0.00  0.00    +0.049 C 
ATOM     23  C   UNL     1      31.851  -8.067 -23.813  0.00  0.00    +0.004 C 
ATOM     24  C   UNL     1      32.666 -10.332 -24.200  0.00  0.00    +0.014 C 
ATOM     25  C   UNL     1      32.201  -9.096 -24.689  0.00  0.00    +0.001 C 
ENDBRANCH   2  22
BRANCH   6  27
ATOM     26  N   UNL     1      36.649 -18.563 -20.733  0.00  0.00    +0.388 N 
ATOM     27  C   UNL     1      35.919 -18.590 -22.011  0.00  0.00    -0.023 C 
ATOM     28  C   UNL     1      34.816 -19.641 -21.831  0.00  0.00    -0.018 C 
ATOM     29  C   UNL     1      35.028 -20.196 -20.431  0.00  0.00    -0.025 C 
ATOM     30  C   UNL     1      36.481 -19.885 -20.138  0.00  0.00    -0.081 C 
ATOM     31  H   UNL     1      36.260 -17.848 -20.119  0.00  0.00    -0.084 HD
ATOM     32  H   UNL     1      37.635 -18.341 -20.873  0.00  0.00    -0.084 HD
ENDBRANCH   6  27
TORSDOF 2
ENDMDL
MODEL 5
REMARK VINA RESULT:     -10.1      2.970      9.849
REMARK  Name = 445841
REMARK  2 active torsions:
REMARK  status: ('A' for Active; 'I' for Inactive)
REMARK    1  A    between atoms: N_2  and  C_22
REMARK    2  A    between atoms: C_6  and  C_27
REMARK                            x       y       z     vdW  Elec       q    Type
REMARK                         _______ _______ _______ _____ _____    ______ ____
ROOT
ATOM      1  O   UNL     1      37.126 -20.558 -17.316  0.00  0.00    -0.252 OA
ATOM      2  N   UNL     1      35.673 -22.378 -17.073  0.00  0.00    -0.268 N 
ATOM      3  N   UNL     1      36.759 -18.548 -20.982  0.00  0.00    -0.241 N 
ATOM      4  N   UNL     1      35.630 -21.134 -19.019  0.00  0.00    -0.252 N 
ATOM      5  N   UNL     1      36.828 -19.233 -19.828  0.00  0.00    -0.166 NA
ATOM      6  C   UNL     1      35.827 -19.029 -21.854  0.00  0.00    +0.026 C 
ATOM      7  C   UNL     1      35.246 -20.104 -21.227  0.00  0.00    +0.046 C 
ATOM      8  C   UNL     1      35.905 -20.170 -19.996  0.00  0.00    +0.154 C 
ATOM      9  C   UNL     1      36.237 -21.275 -17.762  0.00  0.00    +0.309 C 
ATOM     10  H   UNL     1      34.966 -22.865 -17.555  0.00  0.00    +0.156 HD
ATOM     11  H   UNL     1      37.329 -17.770 -21.180  0.00  0.00    +0.174 HD
ATOM     12  H   UNL     1      34.927 -21.788 -19.239  0.00  0.00    +0.158 HD
ENDROOT
BRANCH   2  22
ATOM     13  O   UNL     1      34.081 -24.774 -11.905  0.00  0.00    -0.270 OA
ATOM     14  N   UNL     1      33.124 -24.206 -13.983  0.00  0.00    -0.274 N 
ATOM     15  C   UNL     1      33.575 -23.654 -15.249  0.00  0.00    +0.100 C 
ATOM     16  C   UNL     1      32.633 -22.473 -15.432  0.00  0.00    +0.026 C 
ATOM     17  C   UNL     1      31.311 -23.034 -14.883  0.00  0.00    +0.024 C 
ATOM     18  C   UNL     1      31.734 -23.908 -13.698  0.00  0.00    +0.094 C 
ATOM     19  C   UNL     1      35.020 -23.425 -14.989  0.00  0.00    +0.014 C 
ATOM     20  C   UNL     1      35.364 -23.926 -13.727  0.00  0.00    +0.052 C 
ATOM     21  C   UNL     1      34.139 -24.397 -13.061  0.00  0.00    +0.249 C 
ATOM     22  C   UNL     1      35.985 -22.866 -15.805  0.00  0.00    +0.049 C 
ATOM     23  C   UNL     1      36.653 -23.876 -13.233  0.00  0.00    +0.004 C 
ATOM     24  C   UNL     1      37.298 -22.810 -15.328  0.00  0.00    +0.014 C 
ATOM     25  C   UNL     1      37.629 -23.312 -14.054  0.00  0.00    +0.001 C 
ENDBRANCH   2  22
BRANCH   6  27
ATOM     26  N   UNL     1      34.283 -18.783 -23.767  0.00  0.00    +0.388 N 
ATOM     27  C   UNL     1      35.589 -18.400 -23.208  0.00  0.00    -0.023 C 
ATOM     28  C   UNL     1      35.586 -16.866 -23.171  0.00  0.00    -0.018 C 
ATOM     29  C   UNL     1      34.251 -16.462 -23.779  0.00  0.00    -0.025 C 
ATOM     30  C   UNL     1      33.854 -17.668 -24.605  0.00  0.00    -0.081 C 
ATOM     31  H   UNL     1      33.610 -18.940 -23.017  0.00  0.00    -0.084 HD
ATOM     32  H   UNL     1      34.348 -19.648 -24.304  0.00  0.00    -0.084 HD
ENDBRANCH   6  27
TORSDOF 2
ENDMDL
MODEL 6
REMARK VINA RESULT:     -10.1      2.855     10.485
REMARK  Name = 445841
REMARK  2 active torsions:
REMARK  status: ('A' for Active; 'I' for Inactive)
REMARK    1  A    between atoms: N_2  and  C_22
REMARK    2  A    between atoms: C_6  and  C_27
REMARK                            x       y       z     vdW  Elec       q    Type
REMARK                         _______ _______ _______ _____ _____    ______ ____
ROOT
ATOM      1  O   UNL     1      33.848 -22.624 -16.977  0.00  0.00    -0.252 OA
ATOM      2  N   UNL     1      35.851 -22.781 -15.775  0.00  0.00    -0.268 N 
ATOM      3  N   UNL     1      34.188 -20.553 -20.613  0.00  0.00    -0.241 N 
ATOM      4  N   UNL     1      35.822 -21.682 -17.807  0.00  0.00    -0.252 N 
ATOM      5  N   UNL     1      34.144 -21.206 -19.439  0.00  0.00    -0.166 NA
ATOM      6  C   UNL     1      35.424 -20.075 -20.932  0.00  0.00    +0.026 C 
ATOM      7  C   UNL     1      36.247 -20.439 -19.894  0.00  0.00    +0.046 C 
ATOM      8  C   UNL     1      35.400 -21.126 -19.020  0.00  0.00    +0.154 C 
ATOM      9  C   UNL     1      35.046 -22.384 -16.872  0.00  0.00    +0.309 C 
ATOM     10  H   UNL     1      36.799 -22.518 -15.826  0.00  0.00    +0.156 HD
ATOM     11  H   UNL     1      33.400 -20.432 -21.190  0.00  0.00    +0.174 HD
ATOM     12  H   UNL     1      36.775 -21.568 -17.585  0.00  0.00    +0.158 HD
ENDROOT
BRANCH   2  22
ATOM     13  O   UNL     1      37.196 -26.174 -11.122  0.00  0.00    -0.270 OA
ATOM     14  N   UNL     1      38.284 -24.997 -12.850  0.00  0.00    -0.274 N 
ATOM     15  C   UNL     1      37.904 -24.133 -13.955  0.00  0.00    +0.100 C 
ATOM     16  C   UNL     1      38.565 -24.823 -15.138  0.00  0.00    +0.026 C 
ATOM     17  C   UNL     1      39.888 -25.308 -14.523  0.00  0.00    +0.024 C 
ATOM     18  C   UNL     1      39.512 -25.725 -13.098  0.00  0.00    +0.094 C 
ATOM     19  C   UNL     1      36.423 -24.110 -13.833  0.00  0.00    +0.014 C 
ATOM     20  C   UNL     1      36.026 -24.803 -12.682  0.00  0.00    +0.052 C 
ATOM     21  C   UNL     1      37.219 -25.406 -12.066  0.00  0.00    +0.249 C 
ATOM     22  C   UNL     1      35.482 -23.493 -14.636  0.00  0.00    +0.049 C 
ATOM     23  C   UNL     1      34.704 -24.918 -12.302  0.00  0.00    +0.004 C 
ATOM     24  C   UNL     1      34.136 -23.592 -14.267  0.00  0.00    +0.014 C 
ATOM     25  C   UNL     1      33.751 -24.297 -13.110  0.00  0.00    +0.001 C 
ENDBRANCH   2  22
BRANCH   6  27
ATOM     26  N   UNL     1      34.487 -19.229 -23.056  0.00  0.00    +0.388 N 
ATOM     27  C   UNL     1      35.688 -19.313 -22.211  0.00  0.00    -0.023 C 
ATOM     28  C   UNL     1      36.126 -17.862 -21.973  0.00  0.00    -0.018 C 
ATOM     29  C   UNL     1      35.138 -17.020 -22.766  0.00  0.00    -0.025 C 
ATOM     30  C   UNL     1      34.600 -17.982 -23.805  0.00  0.00    -0.081 C 
ATOM     31  H   UNL     1      33.647 -19.217 -22.476  0.00  0.00    -0.084 HD
ATOM     32  H   UNL     1      34.413 -20.032 -23.680  0.00  0.00    -0.084 HD
ENDBRANCH   6  27
TORSDOF 2
ENDMDL
MODEL 7
REMARK VINA RESULT:      -9.7      4.403      9.874
REMARK  Name = 445841
REMARK  2 active torsions:
REMARK  status: ('A' for Active; 'I' for Inactive)
REMARK    1  A    between atoms: N_2  and  C_22
REMARK    2  A    between atoms: C_6  and  C_27
REMARK                            x       y       z     vdW  Elec       q    Type
REMARK                         _______ _______ _______ _____ _____    ______ ____
ROOT
ATOM      1  O   UNL     1      33.217 -23.348 -17.908  0.00  0.00    -0.252 OA
ATOM      2  N   UNL     1      31.319 -22.274 -17.054  0.00  0.00    -0.268 N 
ATOM      3  N   UNL     1      35.341 -21.087 -20.735  0.00  0.00    -0.241 N 
ATOM      4  N   UNL     1      32.631 -21.199 -18.622  0.00  0.00    -0.252 N 
ATOM      5  N   UNL     1      34.618 -21.760 -19.824  0.00  0.00    -0.166 NA
ATOM      6  C   UNL     1      34.848 -19.849 -21.025  0.00  0.00    +0.026 C 
ATOM      7  C   UNL     1      33.722 -19.703 -20.251  0.00  0.00    +0.046 C 
ATOM      8  C   UNL     1      33.643 -20.906 -19.544  0.00  0.00    +0.154 C 
ATOM      9  C   UNL     1      32.474 -22.374 -17.871  0.00  0.00    +0.309 C 
ATOM     10  H   UNL     1      30.817 -21.430 -17.129  0.00  0.00    +0.156 HD
ATOM     11  H   UNL     1      36.153 -21.453 -21.154  0.00  0.00    +0.174 HD
ATOM     12  H   UNL     1      31.952 -20.499 -18.485  0.00  0.00    +0.158 HD
ENDROOT
BRANCH   2  22
ATOM     13  O   UNL     1      31.772 -25.586 -12.175  0.00  0.00    -0.270 OA
ATOM     14  N   UNL     1      32.967 -23.900 -13.309  0.00  0.00    -0.274 N 
ATOM     15  C   UNL     1      32.788 -23.079 -14.495  0.00  0.00    +0.100 C 
ATOM     16  C   UNL     1      34.073 -23.350 -15.264  0.00  0.00    +0.026 C 
ATOM     17  C   UNL     1      35.107 -23.436 -14.130  0.00  0.00    +0.024 C 
ATOM     18  C   UNL     1      34.361 -24.135 -12.989  0.00  0.00    +0.094 C 
ATOM     19  C   UNL     1      31.486 -23.572 -15.016  0.00  0.00    +0.014 C 
ATOM     20  C   UNL     1      30.932 -24.499 -14.124  0.00  0.00    +0.052 C 
ATOM     21  C   UNL     1      31.900 -24.741 -13.042  0.00  0.00    +0.249 C 
ATOM     22  C   UNL     1      30.801 -23.209 -16.160  0.00  0.00    +0.049 C 
ATOM     23  C   UNL     1      29.708 -25.100 -14.340  0.00  0.00    +0.004 C 
ATOM     24  C   UNL     1      29.556 -23.800 -16.397  0.00  0.00    +0.014 C 
ATOM     25  C   UNL     1      29.014 -24.736 -15.494  0.00  0.00    +0.001 C 
ENDBRANCH   2  22
BRANCH   6  27
ATOM     26  N   UNL     1      34.650 -18.661 -23.183  0.00  0.00    +0.388 N 
ATOM     27  C   UNL     1      35.514 -18.930 -22.023  0.00  0.00    -0.023 C 
ATOM     28  C   UNL     1      35.859 -17.552 -21.441  0.00  0.00    -0.018 C 
ATOM     29  C   UNL     1      35.184 -16.554 -22.369  0.00  0.00    -0.025 C 
ATOM     30  C   UNL     1      35.005 -17.329 -23.658  0.00  0.00    -0.081 C 
ATOM     31  H   UNL     1      33.668 -18.687 -22.905  0.00  0.00    -0.084 HD
ATOM     32  H   UNL     1      34.777 -19.363 -23.912  0.00  0.00    -0.084 HD
ENDBRANCH   6  27
TORSDOF 2
ENDMDL
MODEL 8
REMARK VINA RESULT:      -9.5      6.867     13.763
REMARK  Name = 445841
REMARK  2 active torsions:
REMARK  status: ('A' for Active; 'I' for Inactive)
REMARK    1  A    between atoms: N_2  and  C_22
REMARK    2  A    between atoms: C_6  and  C_27
REMARK                            x       y       z     vdW  Elec       q    Type
REMARK                         _______ _______ _______ _____ _____    ______ ____
ROOT
ATOM      1  O   UNL     1      32.283  -9.646 -20.877  0.00  0.00    -0.252 OA
ATOM      2  N   UNL     1      32.171 -11.473 -22.338  0.00  0.00    -0.268 N 
ATOM      3  N   UNL     1      31.279  -5.973 -22.644  0.00  0.00    -0.241 N 
ATOM      4  N   UNL     1      31.654  -9.359 -23.111  0.00  0.00    -0.252 N 
ATOM      5  N   UNL     1      31.589  -7.179 -22.137  0.00  0.00    -0.166 NA
ATOM      6  C   UNL     1      30.935  -6.002 -23.963  0.00  0.00    +0.026 C 
ATOM      7  C   UNL     1      31.026  -7.318 -24.346  0.00  0.00    +0.046 C 
ATOM      8  C   UNL     1      31.430  -7.978 -23.183  0.00  0.00    +0.154 C 
ATOM      9  C   UNL     1      32.058 -10.102 -21.992  0.00  0.00    +0.309 C 
ATOM     10  H   UNL     1      31.958 -11.695 -23.273  0.00  0.00    +0.156 HD
ATOM     11  H   UNL     1      31.298  -5.145 -22.112  0.00  0.00    +0.174 HD
ATOM     12  H   UNL     1      31.509  -9.866 -23.943  0.00  0.00    +0.158 HD
ENDROOT
BRANCH   2  22
ATOM     13  O   UNL     1      34.809 -16.710 -21.572  0.00  0.00    -0.270 OA
ATOM     14  N   UNL     1      34.538 -15.073 -23.245  0.00  0.00    -0.274 N 
ATOM     15  C   UNL     1      33.909 -13.768 -23.369  0.00  0.00    +0.100 C 
ATOM     16  C   UNL     1      33.010 -13.964 -24.581  0.00  0.00    +0.026 C 
ATOM     17  C   UNL     1      33.881 -14.857 -25.480  0.00  0.00    +0.024 C 
ATOM     18  C   UNL     1      34.599 -15.792 -24.502  0.00  0.00    +0.094 C 
ATOM     19  C   UNL     1      33.316 -13.583 -22.019  0.00  0.00    +0.014 C 
ATOM     20  C   UNL     1      33.692 -14.641 -21.181  0.00  0.00    +0.052 C 
ATOM     21  C   UNL     1      34.448 -15.620 -21.977  0.00  0.00    +0.249 C 
ATOM     22  C   UNL     1      32.542 -12.547 -21.531  0.00  0.00    +0.049 C 
ATOM     23  C   UNL     1      33.308 -14.714 -19.857  0.00  0.00    +0.004 C 
ATOM     24  C   UNL     1      32.146 -12.596 -20.191  0.00  0.00    +0.014 C 
ATOM     25  C   UNL     1      32.526 -13.670 -19.361  0.00  0.00    +0.001 C 
ENDBRANCH   2  22
BRANCH   6  27
ATOM     26  N   UNL     1      30.203  -3.646 -23.817  0.00  0.00    +0.388 N 
ATOM     27  C   UNL     1      30.549  -4.753 -24.722  0.00  0.00    -0.023 C 
ATOM     28  C   UNL     1      31.675  -4.216 -25.616  0.00  0.00    -0.018 C 
ATOM     29  C   UNL     1      31.868  -2.772 -25.177  0.00  0.00    -0.025 C 
ATOM     30  C   UNL     1      30.550  -2.417 -24.522  0.00  0.00    -0.081 C 
ATOM     31  H   UNL     1      30.737  -3.718 -22.950  0.00  0.00    -0.084 HD
ATOM     32  H   UNL     1      29.214  -3.666 -23.567  0.00  0.00    -0.084 HD
ENDBRANCH   6  27
TORSDOF 2
ENDMDL
MODEL 9
REMARK VINA RESULT:      -9.1      8.127     12.929
REMARK  Name = 445841
REMARK  2 active torsions:
REMARK  status: ('A' for Active; 'I' for Inactive)
REMARK    1  A    between atoms: N_2  and  C_22
REMARK    2  A    between atoms: C_6  and  C_27
REMARK                            x       y       z     vdW  Elec       q    Type
REMARK                         _______ _______ _______ _____ _____    ______ ____
ROOT
ATOM      1  O   UNL     1      31.158  -8.470 -22.107  0.00  0.00    -0.252 OA
ATOM      2  N   UNL     1      32.810  -7.222 -23.201  0.00  0.00    -0.268 N 
ATOM      3  N   UNL     1      31.741 -12.623 -22.295  0.00  0.00    -0.241 N 
ATOM      4  N   UNL     1      32.945  -9.528 -23.184  0.00  0.00    -0.252 N 
ATOM      5  N   UNL     1      31.610 -11.285 -22.270  0.00  0.00    -0.166 NA
ATOM      6  C   UNL     1      32.845 -13.056 -22.968  0.00  0.00    +0.026 C 
ATOM      7  C   UNL     1      33.481 -11.924 -23.415  0.00  0.00    +0.046 C 
ATOM      8  C   UNL     1      32.673 -10.881 -22.953  0.00  0.00    +0.154 C 
ATOM      9  C   UNL     1      32.194  -8.421 -22.760  0.00  0.00    +0.309 C 
ATOM     10  H   UNL     1      33.640  -7.335 -23.718  0.00  0.00    +0.156 HD
ATOM     11  H   UNL     1      31.099 -13.233 -21.867  0.00  0.00    +0.174 HD
ATOM     12  H   UNL     1      33.759  -9.330 -23.702  0.00  0.00    +0.158 HD
ENDROOT
BRANCH   2  22
ATOM     13  O   UNL     1      31.236  -1.910 -25.270  0.00  0.00    -0.270 OA
ATOM     14  N   UNL     1      31.765  -4.059 -26.080  0.00  0.00    -0.274 N 
ATOM     15  C   UNL     1      32.105  -5.356 -25.520  0.00  0.00    +0.100 C 
ATOM     16  C   UNL     1      33.411  -5.675 -26.232  0.00  0.00    +0.026 C 
ATOM     17  C   UNL     1      33.148  -5.118 -27.640  0.00  0.00    +0.024 C 
ATOM     18  C   UNL     1      32.329  -3.846 -27.398  0.00  0.00    +0.094 C 
ATOM     19  C   UNL     1      32.098  -5.072 -24.061  0.00  0.00    +0.014 C 
ATOM     20  C   UNL     1      31.666  -3.760 -23.830  0.00  0.00    +0.052 C 
ATOM     21  C   UNL     1      31.486  -3.093 -25.129  0.00  0.00    +0.249 C 
ATOM     22  C   UNL     1      32.397  -5.906 -23.000  0.00  0.00    +0.049 C 
ATOM     23  C   UNL     1      31.534  -3.232 -22.561  0.00  0.00    +0.004 C 
ATOM     24  C   UNL     1      32.265  -5.395 -21.704  0.00  0.00    +0.014 C 
ATOM     25  C   UNL     1      31.836  -4.071 -21.487  0.00  0.00    +0.001 C 
ENDBRANCH   2  22
BRANCH   6  27
ATOM     26  N   UNL     1      33.504 -14.878 -24.501  0.00  0.00    +0.388 N 
ATOM     27  C   UNL     1      33.177 -14.524 -23.111  0.00  0.00    -0.023 C 
ATOM     28  C   UNL     1      34.393 -14.954 -22.280  0.00  0.00    -0.018 C 
ATOM     29  C   UNL     1      35.345 -15.591 -23.282  0.00  0.00    -0.025 C 
ATOM     30  C   UNL     1      34.443 -15.993 -24.429  0.00  0.00    -0.081 C 
ATOM     31  H   UNL     1      33.935 -14.084 -24.976  0.00  0.00    -0.084 HD
ATOM     32  H   UNL     1      32.667 -15.130 -25.028  0.00  0.00    -0.084 HD
ENDBRANCH   6  27
TORSDOF 2
ENDMDL
