MODEL 1
REMARK VINA RESULT:     -10.9      0.000      0.000
REMARK  Name = 11544170
REMARK  4 active torsions:
REMARK  status: ('A' for Active; 'I' for Inactive)
REMARK    1  A    between atoms: C_4  and  C_11
REMARK    2  A    between atoms: C_8  and  C_21
REMARK    3  A    between atoms: C_16  and  C_18
REMARK    4  A    between atoms: C_18  and  O_19
REMARK                            x       y       z     vdW  Elec       q    Type
REMARK                         _______ _______ _______ _____ _____    ______ ____
ROOT
ATOM      1  N   UNL     1      32.661 -24.444 -14.254  0.00  0.00    -0.297 N 
ATOM      2  N   UNL     1      31.865 -23.066 -16.062  0.00  0.00    -0.229 NA
ATOM      3  C   UNL     1      34.204 -23.695 -15.684  0.00  0.00    +0.033 C 
ATOM      4  C   UNL     1      34.842 -24.484 -14.690  0.00  0.00    +0.017 C 
ATOM      5  C   UNL     1      32.845 -23.691 -15.383  0.00  0.00    +0.132 C 
ATOM      6  C   UNL     1      34.618 -22.976 -16.816  0.00  0.00    +0.004 C 
ATOM      7  C   UNL     1      33.868 -24.932 -13.823  0.00  0.00    +0.063 C 
ATOM      8  C   UNL     1      33.643 -22.309 -17.556  0.00  0.00    +0.019 C 
ATOM      9  C   UNL     1      32.321 -22.389 -17.142  0.00  0.00    +0.100 C 
ATOM     10  H   UNL     1      31.795 -24.610 -13.818  0.00  0.00    +0.154 HD
ENDROOT
BRANCH   4  11
ATOM     11  C   UNL     1      36.228 -24.815 -14.526  0.00  0.00    +0.001 C 
ATOM     12  C   UNL     1      36.609 -26.140 -14.302  0.00  0.00    +0.000 C 
ATOM     13  C   UNL     1      37.199 -23.815 -14.590  0.00  0.00    +0.000 C 
ATOM     14  C   UNL     1      37.957 -26.462 -14.143  0.00  0.00    +0.006 C 
ATOM     15  C   UNL     1      38.547 -24.137 -14.432  0.00  0.00    +0.006 C 
ATOM     16  C   UNL     1      38.925 -25.461 -14.208  0.00  0.00    +0.075 C 
BRANCH  16  18
ATOM     17  O   UNL     1      40.769 -26.910 -13.738  0.00  0.00    -0.245 OA
ATOM     18  C   UNL     1      40.331 -25.797 -14.043  0.00  0.00    +0.338 C 
BRANCH  18  19
ATOM     19  O   UNL     1      41.150 -24.733 -14.265  0.00  0.00    -0.477 OA
ATOM     20  H   UNL     1      42.055 -24.778 -14.022  0.00  0.00    +0.295 HD
ENDBRANCH  18  19
ENDBRANCH  16  18
ENDBRANCH   4  11
BRANCH   8  21
ATOM     21  C   UNL     1      34.003 -21.551 -18.732  0.00  0.00    +0.001 C 
ATOM     22  C   UNL     1      33.018 -20.895 -19.472  0.00  0.00    +0.000 C 
ATOM     23  C   UNL     1      35.339 -21.471 -19.130  0.00  0.00    +0.000 C 
ATOM     24  C   UNL     1      33.367 -20.162 -20.605  0.00  0.00    +0.000 C 
ATOM     25  C   UNL     1      35.687 -20.738 -20.264  0.00  0.00    +0.000 C 
ATOM     26  C   UNL     1      34.701 -20.083 -21.001  0.00  0.00    +0.000 C 
ENDBRANCH   8  21
TORSDOF 4
ENDMDL
MODEL 2
REMARK VINA RESULT:     -10.7      5.210      7.323
REMARK  Name = 11544170
REMARK  4 active torsions:
REMARK  status: ('A' for Active; 'I' for Inactive)
REMARK    1  A    between atoms: C_4  and  C_11
REMARK    2  A    between atoms: C_8  and  C_21
REMARK    3  A    between atoms: C_16  and  C_18
REMARK    4  A    between atoms: C_18  and  O_19
REMARK                            x       y       z     vdW  Elec       q    Type
REMARK                         _______ _______ _______ _____ _____    ______ ____
ROOT
ATOM      1  N   UNL     1      33.338 -24.946 -13.521  0.00  0.00    -0.297 N 
ATOM      2  N   UNL     1      35.243 -24.247 -14.819  0.00  0.00    -0.229 NA
ATOM      3  C   UNL     1      32.915 -23.618 -15.266  0.00  0.00    +0.033 C 
ATOM      4  C   UNL     1      31.691 -23.930 -14.619  0.00  0.00    +0.017 C 
ATOM      5  C   UNL     1      33.922 -24.266 -14.557  0.00  0.00    +0.132 C 
ATOM      6  C   UNL     1      33.298 -22.854 -16.380  0.00  0.00    +0.004 C 
ATOM      7  C   UNL     1      31.981 -24.749 -13.549  0.00  0.00    +0.063 C 
ATOM      8  C   UNL     1      34.655 -22.800 -16.697  0.00  0.00    +0.019 C 
ATOM      9  C   UNL     1      35.554 -23.497 -15.903  0.00  0.00    +0.100 C 
ATOM     10  H   UNL     1      33.818 -25.493 -12.859  0.00  0.00    +0.154 HD
ENDROOT
BRANCH   4  11
ATOM     11  C   UNL     1      30.352 -23.525 -14.935  0.00  0.00    +0.001 C 
ATOM     12  C   UNL     1      29.804 -22.389 -14.335  0.00  0.00    +0.000 C 
ATOM     13  C   UNL     1      29.593 -24.264 -15.845  0.00  0.00    +0.000 C 
ATOM     14  C   UNL     1      28.502 -21.994 -14.643  0.00  0.00    +0.006 C 
ATOM     15  C   UNL     1      28.292 -23.869 -16.153  0.00  0.00    +0.006 C 
ATOM     16  C   UNL     1      27.746 -22.734 -15.552  0.00  0.00    +0.075 C 
BRANCH  16  18
ATOM     17  O   UNL     1      25.987 -21.998 -16.996  0.00  0.00    -0.245 OA
ATOM     18  C   UNL     1      26.389 -22.323 -15.874  0.00  0.00    +0.338 C 
BRANCH  18  19
ATOM     19  O   UNL     1      25.571 -22.330 -14.787  0.00  0.00    -0.477 OA
ATOM     20  H   UNL     1      25.522 -21.576 -14.231  0.00  0.00    +0.295 HD
ENDBRANCH  18  19
ENDBRANCH  16  18
ENDBRANCH   4  11
BRANCH   8  21
ATOM     21  C   UNL     1      35.114 -22.032 -17.832  0.00  0.00    +0.001 C 
ATOM     22  C   UNL     1      34.213 -21.643 -18.824  0.00  0.00    +0.000 C 
ATOM     23  C   UNL     1      36.459 -21.676 -17.937  0.00  0.00    +0.000 C 
ATOM     24  C   UNL     1      34.655 -20.900 -19.917  0.00  0.00    +0.000 C 
ATOM     25  C   UNL     1      36.902 -20.933 -19.031  0.00  0.00    +0.000 C 
ATOM     26  C   UNL     1      36.000 -20.544 -20.021  0.00  0.00    +0.000 C 
ENDBRANCH   8  21
TORSDOF 4
ENDMDL
MODEL 3
REMARK VINA RESULT:     -10.7      4.198      7.061
REMARK  Name = 11544170
REMARK  4 active torsions:
REMARK  status: ('A' for Active; 'I' for Inactive)
REMARK    1  A    between atoms: C_4  and  C_11
REMARK    2  A    between atoms: C_8  and  C_21
REMARK    3  A    between atoms: C_16  and  C_18
REMARK    4  A    between atoms: C_18  and  O_19
REMARK                            x       y       z     vdW  Elec       q    Type
REMARK                         _______ _______ _______ _____ _____    ______ ____
ROOT
ATOM      1  N   UNL     1      36.839 -23.044 -15.485  0.00  0.00    -0.297 N 
ATOM      2  N   UNL     1      34.957 -23.967 -14.299  0.00  0.00    -0.229 NA
ATOM      3  C   UNL     1      34.828 -22.703 -16.395  0.00  0.00    +0.033 C 
ATOM      4  C   UNL     1      35.814 -22.097 -17.219  0.00  0.00    +0.017 C 
ATOM      5  C   UNL     1      35.499 -23.284 -15.324  0.00  0.00    +0.132 C 
ATOM      6  C   UNL     1      33.431 -22.831 -16.429  0.00  0.00    +0.004 C 
ATOM      7  C   UNL     1      37.042 -22.322 -16.634  0.00  0.00    +0.063 C 
ATOM      8  C   UNL     1      32.816 -23.529 -15.390  0.00  0.00    +0.019 C 
ATOM      9  C   UNL     1      33.608 -24.059 -14.382  0.00  0.00    +0.100 C 
ATOM     10  H   UNL     1      37.546 -23.342 -14.871  0.00  0.00    +0.154 HD
ENDROOT
BRANCH   4  11
ATOM     11  C   UNL     1      35.669 -21.365 -18.444  0.00  0.00    +0.001 C 
ATOM     12  C   UNL     1      34.433 -21.324 -19.092  0.00  0.00    +0.000 C 
ATOM     13  C   UNL     1      36.763 -20.692 -18.990  0.00  0.00    +0.000 C 
ATOM     14  C   UNL     1      34.292 -20.611 -20.283  0.00  0.00    +0.006 C 
ATOM     15  C   UNL     1      36.622 -19.979 -20.181  0.00  0.00    +0.006 C 
ATOM     16  C   UNL     1      35.387 -19.939 -20.827  0.00  0.00    +0.075 C 
BRANCH  16  18
ATOM     17  O   UNL     1      34.311 -19.322 -22.872  0.00  0.00    -0.245 OA
ATOM     18  C   UNL     1      35.240 -19.196 -22.068  0.00  0.00    +0.338 C 
BRANCH  18  19
ATOM     19  O   UNL     1      36.256 -18.314 -22.271  0.00  0.00    -0.477 OA
ATOM     20  H   UNL     1      36.222 -17.715 -22.991  0.00  0.00    +0.295 HD
ENDBRANCH  18  19
ENDBRANCH  16  18
ENDBRANCH   4  11
BRANCH   8  21
ATOM     21  C   UNL     1      31.381 -23.696 -15.365  0.00  0.00    +0.001 C 
ATOM     22  C   UNL     1      30.563 -22.835 -16.098  0.00  0.00    +0.000 C 
ATOM     23  C   UNL     1      30.809 -24.721 -14.611  0.00  0.00    +0.000 C 
ATOM     24  C   UNL     1      29.179 -22.997 -16.076  0.00  0.00    +0.000 C 
ATOM     25  C   UNL     1      29.424 -24.884 -14.588  0.00  0.00    +0.000 C 
ATOM     26  C   UNL     1      28.609 -24.022 -15.322  0.00  0.00    +0.000 C 
ENDBRANCH   8  21
TORSDOF 4
ENDMDL
MODEL 4
REMARK VINA RESULT:     -10.4      1.155      2.101
REMARK  Name = 11544170
REMARK  4 active torsions:
REMARK  status: ('A' for Active; 'I' for Inactive)
REMARK    1  A    between atoms: C_4  and  C_11
REMARK    2  A    between atoms: C_8  and  C_21
REMARK    3  A    between atoms: C_16  and  C_18
REMARK    4  A    between atoms: C_18  and  O_19
REMARK                            x       y       z     vdW  Elec       q    Type
REMARK                         _______ _______ _______ _____ _____    ______ ____
ROOT
ATOM      1  N   UNL     1      32.348 -23.470 -16.262  0.00  0.00    -0.297 N 
ATOM      2  N   UNL     1      32.203 -21.975 -18.146  0.00  0.00    -0.229 NA
ATOM      3  C   UNL     1      34.285 -22.739 -17.100  0.00  0.00    +0.033 C 
ATOM      4  C   UNL     1      34.555 -23.603 -16.006  0.00  0.00    +0.017 C 
ATOM      5  C   UNL     1      32.902 -22.678 -17.234  0.00  0.00    +0.132 C 
ATOM      6  C   UNL     1      35.056 -21.993 -18.006  0.00  0.00    +0.004 C 
ATOM      7  C   UNL     1      33.344 -24.037 -15.509  0.00  0.00    +0.063 C 
ATOM      8  C   UNL     1      34.383 -21.245 -18.971  0.00  0.00    +0.019 C 
ATOM      9  C   UNL     1      32.996 -21.274 -18.991  0.00  0.00    +0.100 C 
ATOM     10  H   UNL     1      31.384 -23.609 -16.126  0.00  0.00    +0.154 HD
ENDROOT
BRANCH   4  11
ATOM     11  C   UNL     1      35.808 -24.011 -15.441  0.00  0.00    +0.001 C 
ATOM     12  C   UNL     1      35.938 -25.280 -14.872  0.00  0.00    +0.000 C 
ATOM     13  C   UNL     1      36.900 -23.143 -15.459  0.00  0.00    +0.000 C 
ATOM     14  C   UNL     1      37.157 -25.678 -14.324  0.00  0.00    +0.006 C 
ATOM     15  C   UNL     1      38.119 -23.541 -14.910  0.00  0.00    +0.006 C 
ATOM     16  C   UNL     1      38.248 -24.809 -14.343  0.00  0.00    +0.075 C 
BRANCH  16  18
ATOM     17  O   UNL     1      40.612 -24.696 -13.998  0.00  0.00    -0.245 OA
ATOM     18  C   UNL     1      39.519 -25.224 -13.771  0.00  0.00    +0.338 C 
BRANCH  18  19
ATOM     19  O   UNL     1      39.390 -26.287 -12.931  0.00  0.00    -0.477 OA
ATOM     20  H   UNL     1      40.030 -26.972 -12.939  0.00  0.00    +0.295 HD
ENDBRANCH  18  19
ENDBRANCH  16  18
ENDBRANCH   4  11
BRANCH   8  21
ATOM     21  C   UNL     1      35.119 -20.455 -19.932  0.00  0.00    +0.001 C 
ATOM     22  C   UNL     1      36.471 -20.182 -19.725  0.00  0.00    +0.000 C 
ATOM     23  C   UNL     1      34.478 -19.966 -21.071  0.00  0.00    +0.000 C 
ATOM     24  C   UNL     1      37.181 -19.422 -20.653  0.00  0.00    +0.000 C 
ATOM     25  C   UNL     1      35.188 -19.205 -22.000  0.00  0.00    +0.000 C 
ATOM     26  C   UNL     1      36.540 -18.933 -21.791  0.00  0.00    +0.000 C 
ENDBRANCH   8  21
TORSDOF 4
ENDMDL
MODEL 5
REMARK VINA RESULT:     -10.2      4.247      5.894
REMARK  Name = 11544170
REMARK  4 active torsions:
REMARK  status: ('A' for Active; 'I' for Inactive)
REMARK    1  A    between atoms: C_4  and  C_11
REMARK    2  A    between atoms: C_8  and  C_21
REMARK    3  A    between atoms: C_16  and  C_18
REMARK    4  A    between atoms: C_18  and  O_19
REMARK                            x       y       z     vdW  Elec       q    Type
REMARK                         _______ _______ _______ _____ _____    ______ ____
ROOT
ATOM      1  N   UNL     1      36.566 -23.759 -14.212  0.00  0.00    -0.297 N 
ATOM      2  N   UNL     1      37.551 -22.515 -16.025  0.00  0.00    -0.229 NA
ATOM      3  C   UNL     1      35.162 -23.013 -15.781  0.00  0.00    +0.033 C 
ATOM      4  C   UNL     1      34.420 -23.718 -14.797  0.00  0.00    +0.017 C 
ATOM      5  C   UNL     1      36.496 -23.057 -15.387  0.00  0.00    +0.132 C 
ATOM      6  C   UNL     1      34.862 -22.334 -16.972  0.00  0.00    +0.004 C 
ATOM      7  C   UNL     1      35.310 -24.166 -13.844  0.00  0.00    +0.063 C 
ATOM      8  C   UNL     1      35.918 -21.754 -17.675  0.00  0.00    +0.019 C 
ATOM      9  C   UNL     1      37.203 -21.875 -17.167  0.00  0.00    +0.100 C 
ATOM     10  H   UNL     1      37.392 -23.943 -13.710  0.00  0.00    +0.154 HD
ENDROOT
BRANCH   4  11
ATOM     11  C   UNL     1      33.011 -23.975 -14.713  0.00  0.00    +0.001 C 
ATOM     12  C   UNL     1      32.141 -23.413 -15.649  0.00  0.00    +0.000 C 
ATOM     13  C   UNL     1      32.507 -24.789 -13.697  0.00  0.00    +0.000 C 
ATOM     14  C   UNL     1      30.771 -23.664 -15.569  0.00  0.00    +0.006 C 
ATOM     15  C   UNL     1      31.138 -25.040 -13.617  0.00  0.00    +0.006 C 
ATOM     16  C   UNL     1      30.270 -24.477 -14.553  0.00  0.00    +0.075 C 
BRANCH  16  18
ATOM     17  O   UNL     1      27.957 -24.057 -14.995  0.00  0.00    -0.245 OA
ATOM     18  C   UNL     1      28.842 -24.739 -14.469  0.00  0.00    +0.338 C 
BRANCH  18  19
ATOM     19  O   UNL     1      28.558 -25.848 -13.732  0.00  0.00    -0.477 OA
ATOM     20  H   UNL     1      27.761 -26.319 -13.881  0.00  0.00    +0.295 HD
ENDBRANCH  18  19
ENDBRANCH  16  18
ENDBRANCH   4  11
BRANCH   8  21
ATOM     21  C   UNL     1      35.675 -21.042 -18.908  0.00  0.00    +0.001 C 
ATOM     22  C   UNL     1      34.403 -21.048 -19.481  0.00  0.00    +0.000 C 
ATOM     23  C   UNL     1      36.713 -20.345 -19.529  0.00  0.00    +0.000 C 
ATOM     24  C   UNL     1      34.168 -20.359 -20.670  0.00  0.00    +0.000 C 
ATOM     25  C   UNL     1      36.478 -19.656 -20.719  0.00  0.00    +0.000 C 
ATOM     26  C   UNL     1      35.206 -19.662 -21.289  0.00  0.00    +0.000 C 
ENDBRANCH   8  21
TORSDOF 4
ENDMDL
MODEL 6
REMARK VINA RESULT:     -10.1      8.359     12.619
REMARK  Name = 11544170
REMARK  4 active torsions:
REMARK  status: ('A' for Active; 'I' for Inactive)
REMARK    1  A    between atoms: C_4  and  C_11
REMARK    2  A    between atoms: C_8  and  C_21
REMARK    3  A    between atoms: C_16  and  C_18
REMARK    4  A    between atoms: C_18  and  O_19
REMARK                            x       y       z     vdW  Elec       q    Type
REMARK                         _______ _______ _______ _____ _____    ______ ____
ROOT
ATOM      1  N   UNL     1      33.501 -14.674 -25.413  0.00  0.00    -0.297 N 
ATOM      2  N   UNL     1      34.556 -16.812 -25.077  0.00  0.00    -0.229 NA
ATOM      3  C   UNL     1      33.879 -15.271 -23.295  0.00  0.00    +0.033 C 
ATOM      4  C   UNL     1      33.255 -13.996 -23.308  0.00  0.00    +0.017 C 
ATOM      5  C   UNL     1      34.017 -15.666 -24.622  0.00  0.00    +0.132 C 
ATOM      6  C   UNL     1      34.347 -16.151 -22.307  0.00  0.00    +0.004 C 
ATOM      7  C   UNL     1      33.035 -13.653 -24.625  0.00  0.00    +0.063 C 
ATOM      8  C   UNL     1      34.917 -17.354 -22.723  0.00  0.00    +0.019 C 
ATOM      9  C   UNL     1      34.992 -17.621 -24.083  0.00  0.00    +0.100 C 
ATOM     10  H   UNL     1      33.469 -14.691 -26.396  0.00  0.00    +0.154 HD
ENDROOT
BRANCH   4  11
ATOM     11  C   UNL     1      32.883 -13.140 -22.219  0.00  0.00    +0.001 C 
ATOM     12  C   UNL     1      32.657 -11.781 -22.443  0.00  0.00    +0.000 C 
ATOM     13  C   UNL     1      32.744 -13.665 -20.933  0.00  0.00    +0.000 C 
ATOM     14  C   UNL     1      32.294 -10.949 -21.384  0.00  0.00    +0.006 C 
ATOM     15  C   UNL     1      32.381 -12.833 -19.874  0.00  0.00    +0.006 C 
ATOM     16  C   UNL     1      32.156 -11.475 -20.100  0.00  0.00    +0.075 C 
BRANCH  16  18
ATOM     17  O   UNL     1      32.556 -10.107 -18.179  0.00  0.00    -0.245 OA
ATOM     18  C   UNL     1      31.777 -10.608 -18.995  0.00  0.00    +0.338 C 
BRANCH  18  19
ATOM     19  O   UNL     1      30.434 -10.389 -18.942  0.00  0.00    -0.477 OA
ATOM     20  H   UNL     1      29.944 -10.287 -19.734  0.00  0.00    +0.295 HD
ENDBRANCH  18  19
ENDBRANCH  16  18
ENDBRANCH   4  11
BRANCH   8  21
ATOM     21  C   UNL     1      35.419 -18.303 -21.756  0.00  0.00    +0.001 C 
ATOM     22  C   UNL     1      34.560 -19.245 -21.189  0.00  0.00    +0.000 C 
ATOM     23  C   UNL     1      36.765 -18.280 -21.387  0.00  0.00    +0.000 C 
ATOM     24  C   UNL     1      35.045 -20.161 -20.257  0.00  0.00    +0.000 C 
ATOM     25  C   UNL     1      37.250 -19.197 -20.454  0.00  0.00    +0.000 C 
ATOM     26  C   UNL     1      36.390 -20.138 -19.890  0.00  0.00    +0.000 C 
ENDBRANCH   8  21
TORSDOF 4
ENDMDL
MODEL 7
REMARK VINA RESULT:     -10.0      3.222      7.144
REMARK  Name = 11544170
REMARK  4 active torsions:
REMARK  status: ('A' for Active; 'I' for Inactive)
REMARK    1  A    between atoms: C_4  and  C_11
REMARK    2  A    between atoms: C_8  and  C_21
REMARK    3  A    between atoms: C_16  and  C_18
REMARK    4  A    between atoms: C_18  and  O_19
REMARK                            x       y       z     vdW  Elec       q    Type
REMARK                         _______ _______ _______ _____ _____    ______ ____
ROOT
ATOM      1  N   UNL     1      31.351 -23.484 -15.597  0.00  0.00    -0.297 N 
ATOM      2  N   UNL     1      32.696 -24.604 -13.942  0.00  0.00    -0.229 NA
ATOM      3  C   UNL     1      33.565 -23.363 -15.870  0.00  0.00    +0.033 C 
ATOM      4  C   UNL     1      32.932 -22.654 -16.925  0.00  0.00    +0.017 C 
ATOM      5  C   UNL     1      32.552 -23.868 -15.059  0.00  0.00    +0.132 C 
ATOM      6  C   UNL     1      34.889 -23.641 -15.498  0.00  0.00    +0.004 C 
ATOM      7  C   UNL     1      31.570 -22.746 -16.732  0.00  0.00    +0.063 C 
ATOM      8  C   UNL     1      35.096 -24.401 -14.348  0.00  0.00    +0.019 C 
ATOM      9  C   UNL     1      33.993 -24.842 -13.631  0.00  0.00    +0.100 C 
ATOM     10  H   UNL     1      30.467 -23.705 -15.225  0.00  0.00    +0.154 HD
ENDROOT
BRANCH   4  11
ATOM     11  C   UNL     1      33.504 -21.945 -18.032  0.00  0.00    +0.001 C 
ATOM     12  C   UNL     1      32.689 -21.185 -18.873  0.00  0.00    +0.000 C 
ATOM     13  C   UNL     1      34.878 -22.010 -18.271  0.00  0.00    +0.000 C 
ATOM     14  C   UNL     1      33.245 -20.493 -19.949  0.00  0.00    +0.006 C 
ATOM     15  C   UNL     1      35.435 -21.318 -19.346  0.00  0.00    +0.006 C 
ATOM     16  C   UNL     1      34.618 -20.560 -20.185  0.00  0.00    +0.075 C 
BRANCH  16  18
ATOM     17  O   UNL     1      34.700 -19.743 -22.432  0.00  0.00    -0.245 OA
ATOM     18  C   UNL     1      35.199 -19.839 -21.307  0.00  0.00    +0.338 C 
BRANCH  18  19
ATOM     19  O   UNL     1      36.388 -19.255 -20.991  0.00  0.00    -0.477 OA
ATOM     20  H   UNL     1      37.111 -19.312 -21.585  0.00  0.00    +0.295 HD
ENDBRANCH  18  19
ENDBRANCH  16  18
ENDBRANCH   4  11
BRANCH   8  21
ATOM     21  C   UNL     1      36.436 -24.723 -13.911  0.00  0.00    +0.001 C 
ATOM     22  C   UNL     1      36.642 -25.324 -12.668  0.00  0.00    +0.000 C 
ATOM     23  C   UNL     1      37.527 -24.434 -14.732  0.00  0.00    +0.000 C 
ATOM     24  C   UNL     1      37.934 -25.636 -12.248  0.00  0.00    +0.000 C 
ATOM     25  C   UNL     1      38.820 -24.745 -14.311  0.00  0.00    +0.000 C 
ATOM     26  C   UNL     1      39.023 -25.347 -13.069  0.00  0.00    +0.000 C 
ENDBRANCH   8  21
TORSDOF 4
ENDMDL
MODEL 8
REMARK VINA RESULT:      -9.9     11.372     14.868
REMARK  Name = 11544170
REMARK  4 active torsions:
REMARK  status: ('A' for Active; 'I' for Inactive)
REMARK    1  A    between atoms: C_4  and  C_11
REMARK    2  A    between atoms: C_8  and  C_21
REMARK    3  A    between atoms: C_16  and  C_18
REMARK    4  A    between atoms: C_18  and  O_19
REMARK                            x       y       z     vdW  Elec       q    Type
REMARK                         _______ _______ _______ _____ _____    ______ ____
ROOT
ATOM      1  N   UNL     1      31.134 -10.733 -19.946  0.00  0.00    -0.297 N 
ATOM      2  N   UNL     1      31.442  -8.461 -20.685  0.00  0.00    -0.229 NA
ATOM      3  C   UNL     1      32.452 -10.438 -21.725  0.00  0.00    +0.033 C 
ATOM      4  C   UNL     1      32.382 -11.826 -21.430  0.00  0.00    +0.017 C 
ATOM      5  C   UNL     1      31.664  -9.785 -20.783  0.00  0.00    +0.132 C 
ATOM      6  C   UNL     1      33.096  -9.647 -22.689  0.00  0.00    +0.004 C 
ATOM      7  C   UNL     1      31.564 -11.977 -20.330  0.00  0.00    +0.063 C 
ATOM      8  C   UNL     1      32.902  -8.267 -22.634  0.00  0.00    +0.019 C 
ATOM      9  C   UNL     1      32.088  -7.747 -21.638  0.00  0.00    +0.100 C 
ATOM     10  H   UNL     1      30.537 -10.549 -19.186  0.00  0.00    +0.154 HD
ENDROOT
BRANCH   4  11
ATOM     11  C   UNL     1      33.003 -12.940 -22.084  0.00  0.00    +0.001 C 
ATOM     12  C   UNL     1      33.883 -13.764 -21.379  0.00  0.00    +0.000 C 
ATOM     13  C   UNL     1      32.730 -13.205 -23.427  0.00  0.00    +0.000 C 
ATOM     14  C   UNL     1      34.486 -14.849 -22.015  0.00  0.00    +0.006 C 
ATOM     15  C   UNL     1      33.333 -14.290 -24.063  0.00  0.00    +0.006 C 
ATOM     16  C   UNL     1      34.211 -15.111 -23.357  0.00  0.00    +0.075 C 
BRANCH  16  18
ATOM     17  O   UNL     1      34.646 -16.584 -25.191  0.00  0.00    -0.245 OA
ATOM     18  C   UNL     1      34.840 -16.243 -24.020  0.00  0.00    +0.338 C 
BRANCH  18  19
ATOM     19  O   UNL     1      35.695 -16.916 -23.203  0.00  0.00    -0.477 OA
ATOM     20  H   UNL     1      36.064 -17.733 -23.480  0.00  0.00    +0.295 HD
ENDBRANCH  18  19
ENDBRANCH  16  18
ENDBRANCH   4  11
BRANCH   8  21
ATOM     21  C   UNL     1      33.537  -7.397 -23.597  0.00  0.00    +0.001 C 
ATOM     22  C   UNL     1      34.865  -7.007 -23.419  0.00  0.00    +0.000 C 
ATOM     23  C   UNL     1      32.824  -6.947 -24.709  0.00  0.00    +0.000 C 
ATOM     24  C   UNL     1      35.478  -6.169 -24.350  0.00  0.00    +0.000 C 
ATOM     25  C   UNL     1      33.437  -6.108 -25.640  0.00  0.00    +0.000 C 
ATOM     26  C   UNL     1      34.764  -5.720 -25.460  0.00  0.00    +0.000 C 
ENDBRANCH   8  21
TORSDOF 4
ENDMDL
MODEL 9
REMARK VINA RESULT:      -9.5     11.797     15.439
REMARK  Name = 11544170
REMARK  4 active torsions:
REMARK  status: ('A' for Active; 'I' for Inactive)
REMARK    1  A    between atoms: C_4  and  C_11
REMARK    2  A    between atoms: C_8  and  C_21
REMARK    3  A    between atoms: C_16  and  C_18
REMARK    4  A    between atoms: C_18  and  O_19
REMARK                            x       y       z     vdW  Elec       q    Type
REMARK                         _______ _______ _______ _____ _____    ______ ____
ROOT
ATOM      1  N   UNL     1      31.148 -10.091 -20.067  0.00  0.00    -0.297 N 
ATOM      2  N   UNL     1      31.534  -7.844 -20.844  0.00  0.00    -0.229 NA
ATOM      3  C   UNL     1      32.409  -9.878 -21.897  0.00  0.00    +0.033 C 
ATOM      4  C   UNL     1      32.285 -11.257 -21.583  0.00  0.00    +0.017 C 
ATOM      5  C   UNL     1      31.689  -9.178 -20.934  0.00  0.00    +0.132 C 
ATOM      6  C   UNL     1      33.053  -9.128 -22.894  0.00  0.00    +0.004 C 
ATOM      7  C   UNL     1      31.503 -11.358 -20.451  0.00  0.00    +0.063 C 
ATOM      8  C   UNL     1      32.926  -7.740 -22.848  0.00  0.00    +0.019 C 
ATOM      9  C   UNL     1      32.176  -7.171 -21.829  0.00  0.00    +0.100 C 
ATOM     10  H   UNL     1      30.589  -9.870 -19.287  0.00  0.00    +0.154 HD
ENDROOT
BRANCH   4  11
ATOM     11  C   UNL     1      32.827 -12.406 -22.247  0.00  0.00    +0.001 C 
ATOM     12  C   UNL     1      32.833 -12.471 -23.641  0.00  0.00    +0.000 C 
ATOM     13  C   UNL     1      33.352 -13.463 -21.500  0.00  0.00    +0.000 C 
ATOM     14  C   UNL     1      33.362 -13.588 -24.287  0.00  0.00    +0.006 C 
ATOM     15  C   UNL     1      33.881 -14.580 -22.146  0.00  0.00    +0.006 C 
ATOM     16  C   UNL     1      33.886 -14.643 -23.539  0.00  0.00    +0.075 C 
BRANCH  16  18
ATOM     17  O   UNL     1      33.939 -16.372 -25.191  0.00  0.00    -0.245 OA
ATOM     18  C   UNL     1      34.438 -15.808 -24.213  0.00  0.00    +0.338 C 
BRANCH  18  19
ATOM     19  O   UNL     1      35.599 -16.235 -23.646  0.00  0.00    -0.477 OA
ATOM     20  H   UNL     1      35.796 -16.016 -22.756  0.00  0.00    +0.295 HD
ENDBRANCH  18  19
ENDBRANCH  16  18
ENDBRANCH   4  11
BRANCH   8  21
ATOM     21  C   UNL     1      33.564  -6.911 -23.845  0.00  0.00    +0.001 C 
ATOM     22  C   UNL     1      34.941  -6.689 -23.793  0.00  0.00    +0.000 C 
ATOM     23  C   UNL     1      32.806  -6.332 -24.863  0.00  0.00    +0.000 C 
ATOM     24  C   UNL     1      35.557  -5.891 -24.756  0.00  0.00    +0.000 C 
ATOM     25  C   UNL     1      33.422  -5.533 -25.827  0.00  0.00    +0.000 C 
ATOM     26  C   UNL     1      34.798  -5.313 -25.773  0.00  0.00    +0.000 C 
ENDBRANCH   8  21
TORSDOF 4
ENDMDL
