MODEL 1
REMARK VINA RESULT:     -10.9      0.000      0.000
REMARK  Name = 24886843
REMARK  5 active torsions:
REMARK  status: ('A' for Active; 'I' for Inactive)
REMARK    1  A    between atoms: C_3  and  C_19
REMARK    2  A    between atoms: C_6  and  O_9
REMARK    3  A    between atoms: O_9  and  C_11
REMARK    4  A    between atoms: C_14  and  C_18
REMARK    5  A    between atoms: C_19  and  C_24
REMARK                            x       y       z     vdW  Elec       q    Type
REMARK                         _______ _______ _______ _____ _____    ______ ____
ROOT
ATOM      1 BR   UNL     1      30.436 -10.817 -20.244  0.00  0.00    -0.046 Br
ATOM      2  F   UNL     1      33.634 -12.011 -24.224  0.00  0.00    -0.201 F 
ATOM      3  C   UNL     1      33.839 -13.327 -22.263  0.00  0.00    +0.014 C 
ATOM      4  C   UNL     1      33.239 -12.287 -22.973  0.00  0.00    +0.171 C 
ATOM      5  C   UNL     1      33.425 -13.613 -20.962  0.00  0.00    -0.001 C 
ATOM      6  C   UNL     1      32.225 -11.533 -22.381  0.00  0.00    +0.178 C 
ATOM      7  C   UNL     1      32.411 -12.859 -20.370  0.00  0.00    +0.010 C 
ATOM      8  C   UNL     1      31.810 -11.819 -21.081  0.00  0.00    +0.071 C 
ENDROOT
BRANCH   6   9
ATOM      9  O   UNL     1      31.657 -10.523 -23.100  0.00  0.00    -0.451 OA
BRANCH   9  11
ATOM     10 CL   UNL     1      35.596  -7.279 -22.895  0.00  0.00    -0.082 Cl
ATOM     11  C   UNL     1      32.107  -9.236 -22.865  0.00  0.00    +0.147 C 
ATOM     12  C   UNL     1      31.205  -8.235 -22.507  0.00  0.00    +0.048 C 
ATOM     13  C   UNL     1      33.465  -8.941 -22.984  0.00  0.00    +0.049 C 
ATOM     14  C   UNL     1      31.659  -6.938 -22.270  0.00  0.00    +0.072 C 
ATOM     15  C   UNL     1      33.920  -7.644 -22.747  0.00  0.00    +0.061 C 
ATOM     16  C   UNL     1      33.017  -6.643 -22.390  0.00  0.00    +0.022 C 
BRANCH  14  18
ATOM     17  N   UNL     1      29.981  -5.081 -21.607  0.00  0.00    -0.191 NA
ATOM     18  C   UNL     1      30.733  -5.913 -21.905  0.00  0.00    +0.101 C 
ENDBRANCH  14  18
ENDBRANCH   9  11
ENDBRANCH   6   9
BRANCH   3  19
ATOM     19  C   UNL     1      34.946 -14.152 -22.905  0.00  0.00    +0.072 C 
BRANCH  19  24
ATOM     20  N   UNL     1      33.720 -15.169 -24.812  0.00  0.00    -0.231 N 
ATOM     21  N   UNL     1      33.368 -16.332 -25.400  0.00  0.00    -0.126 NA
ATOM     22  N   UNL     1      33.876 -18.610 -24.738  0.00  0.00    -0.103 NA
ATOM     23  N   UNL     1      34.542 -19.290 -23.763  0.00  0.00    -0.107 NA
ATOM     24  C   UNL     1      34.473 -15.313 -23.678  0.00  0.00    +0.057 C 
ATOM     25  C   UNL     1      34.618 -16.665 -23.524  0.00  0.00    +0.078 C 
ATOM     26  C   UNL     1      33.919 -17.258 -24.610  0.00  0.00    +0.072 C 
ATOM     27  C   UNL     1      35.307 -17.294 -22.510  0.00  0.00    +0.031 C 
ATOM     28  C   UNL     1      35.206 -18.662 -22.729  0.00  0.00    +0.110 C 
ATOM     29  H   UNL     1      33.456 -14.290 -25.168  0.00  0.00    +0.175 HD
ENDBRANCH  19  24
ENDBRANCH   3  19
TORSDOF 5
ENDMDL
MODEL 2
REMARK VINA RESULT:     -10.6     10.348     14.563
REMARK  Name = 24886843
REMARK  5 active torsions:
REMARK  status: ('A' for Active; 'I' for Inactive)
REMARK    1  A    between atoms: C_3  and  C_19
REMARK    2  A    between atoms: C_6  and  O_9
REMARK    3  A    between atoms: O_9  and  C_11
REMARK    4  A    between atoms: C_14  and  C_18
REMARK    5  A    between atoms: C_19  and  C_24
REMARK                            x       y       z     vdW  Elec       q    Type
REMARK                         _______ _______ _______ _____ _____    ______ ____
ROOT
ATOM      1 BR   UNL     1      32.313 -23.171 -12.838  0.00  0.00    -0.046 Br
ATOM      2  F   UNL     1      35.890 -22.512 -16.615  0.00  0.00    -0.201 F 
ATOM      3  C   UNL     1      33.708 -23.126 -17.311  0.00  0.00    +0.014 C 
ATOM      4  C   UNL     1      34.622 -22.818 -16.303  0.00  0.00    +0.171 C 
ATOM      5  C   UNL     1      32.390 -23.444 -16.983  0.00  0.00    -0.001 C 
ATOM      6  C   UNL     1      34.217 -22.829 -14.968  0.00  0.00    +0.178 C 
ATOM      7  C   UNL     1      31.986 -23.454 -15.648  0.00  0.00    +0.010 C 
ATOM      8  C   UNL     1      32.899 -23.146 -14.640  0.00  0.00    +0.071 C 
ENDROOT
BRANCH   6   9
ATOM      9  O   UNL     1      35.134 -22.524 -14.005  0.00  0.00    -0.451 OA
BRANCH   9  11
ATOM     10 CL   UNL     1      35.630 -24.825  -9.473  0.00  0.00    -0.082 Cl
ATOM     11  C   UNL     1      35.665 -23.570 -13.271  0.00  0.00    +0.147 C 
ATOM     12  C   UNL     1      36.457 -24.532 -13.897  0.00  0.00    +0.048 C 
ATOM     13  C   UNL     1      35.409 -23.659 -11.902  0.00  0.00    +0.049 C 
ATOM     14  C   UNL     1      36.992 -25.585 -13.156  0.00  0.00    +0.072 C 
ATOM     15  C   UNL     1      35.945 -24.713 -11.161  0.00  0.00    +0.061 C 
ATOM     16  C   UNL     1      36.736 -25.675 -11.788  0.00  0.00    +0.022 C 
BRANCH  14  18
ATOM     17  N   UNL     1      38.461 -27.370 -14.322  0.00  0.00    -0.191 NA
ATOM     18  C   UNL     1      37.802 -26.570 -13.799  0.00  0.00    +0.101 C 
ENDBRANCH  14  18
ENDBRANCH   9  11
ENDBRANCH   6   9
BRANCH   3  19
ATOM     19  C   UNL     1      34.146 -23.116 -18.769  0.00  0.00    +0.072 C 
BRANCH  19  24
ATOM     20  N   UNL     1      32.869 -21.275 -19.844  0.00  0.00    -0.231 N 
ATOM     21  N   UNL     1      32.967 -20.060 -20.424  0.00  0.00    -0.126 NA
ATOM     22  N   UNL     1      34.932 -18.694 -20.823  0.00  0.00    -0.103 NA
ATOM     23  N   UNL     1      36.279 -18.721 -20.623  0.00  0.00    -0.107 NA
ATOM     24  C   UNL     1      34.062 -21.799 -19.423  0.00  0.00    +0.057 C 
ATOM     25  C   UNL     1      34.996 -20.855 -19.757  0.00  0.00    +0.078 C 
ATOM     26  C   UNL     1      34.276 -19.796 -20.374  0.00  0.00    +0.072 C 
ATOM     27  C   UNL     1      36.351 -20.942 -19.528  0.00  0.00    +0.031 C 
ATOM     28  C   UNL     1      36.928 -19.778 -20.017  0.00  0.00    +0.110 C 
ATOM     29  H   UNL     1      32.012 -21.745 -19.733  0.00  0.00    +0.175 HD
ENDBRANCH  19  24
ENDBRANCH   3  19
TORSDOF 5
ENDMDL
MODEL 3
REMARK VINA RESULT:     -10.4      1.671      1.915
REMARK  Name = 24886843
REMARK  5 active torsions:
REMARK  status: ('A' for Active; 'I' for Inactive)
REMARK    1  A    between atoms: C_3  and  C_19
REMARK    2  A    between atoms: C_6  and  O_9
REMARK    3  A    between atoms: O_9  and  C_11
REMARK    4  A    between atoms: C_14  and  C_18
REMARK    5  A    between atoms: C_19  and  C_24
REMARK                            x       y       z     vdW  Elec       q    Type
REMARK                         _______ _______ _______ _____ _____    ______ ____
ROOT
ATOM      1 BR   UNL     1      30.438 -10.949 -20.176  0.00  0.00    -0.046 Br
ATOM      2  F   UNL     1      33.853 -11.862 -24.048  0.00  0.00    -0.201 F 
ATOM      3  C   UNL     1      33.847 -13.406 -22.250  0.00  0.00    +0.014 C 
ATOM      4  C   UNL     1      33.354 -12.257 -22.869  0.00  0.00    +0.171 C 
ATOM      5  C   UNL     1      33.325 -13.815 -21.023  0.00  0.00    -0.001 C 
ATOM      6  C   UNL     1      32.339 -11.518 -22.260  0.00  0.00    +0.178 C 
ATOM      7  C   UNL     1      32.310 -13.076 -20.414  0.00  0.00    +0.010 C 
ATOM      8  C   UNL     1      31.817 -11.928 -21.033  0.00  0.00    +0.071 C 
ENDROOT
BRANCH   6   9
ATOM      9  O   UNL     1      31.878 -10.399 -22.889  0.00  0.00    -0.451 OA
BRANCH   9  11
ATOM     10 CL   UNL     1      33.179  -6.742 -19.570  0.00  0.00    -0.082 Cl
ATOM     11  C   UNL     1      32.545  -9.210 -22.654  0.00  0.00    +0.147 C 
ATOM     12  C   UNL     1      33.231  -8.578 -23.690  0.00  0.00    +0.048 C 
ATOM     13  C   UNL     1      32.527  -8.642 -21.380  0.00  0.00    +0.049 C 
ATOM     14  C   UNL     1      33.903  -7.379 -23.453  0.00  0.00    +0.072 C 
ATOM     15  C   UNL     1      33.199  -7.443 -21.142  0.00  0.00    +0.061 C 
ATOM     16  C   UNL     1      33.887  -6.812 -22.179  0.00  0.00    +0.022 C 
BRANCH  14  18
ATOM     17  N   UNL     1      35.179  -6.208 -25.378  0.00  0.00    -0.191 NA
ATOM     18  C   UNL     1      34.608  -6.733 -24.515  0.00  0.00    +0.101 C 
ENDBRANCH  14  18
ENDBRANCH   9  11
ENDBRANCH   6   9
BRANCH   3  19
ATOM     19  C   UNL     1      34.954 -14.215 -22.911  0.00  0.00    +0.072 C 
BRANCH  19  24
ATOM     20  N   UNL     1      33.715 -15.258 -24.796  0.00  0.00    -0.231 N 
ATOM     21  N   UNL     1      33.370 -16.428 -25.373  0.00  0.00    -0.126 NA
ATOM     22  N   UNL     1      33.913 -18.696 -24.706  0.00  0.00    -0.103 NA
ATOM     23  N   UNL     1      34.600 -19.362 -23.736  0.00  0.00    -0.107 NA
ATOM     24  C   UNL     1      34.485 -15.386 -23.672  0.00  0.00    +0.057 C 
ATOM     25  C   UNL     1      34.647 -16.736 -23.511  0.00  0.00    +0.078 C 
ATOM     26  C   UNL     1      33.941 -17.343 -24.585  0.00  0.00    +0.072 C 
ATOM     27  C   UNL     1      35.357 -17.351 -22.503  0.00  0.00    +0.031 C 
ATOM     28  C   UNL     1      35.270 -18.721 -22.714  0.00  0.00    +0.110 C 
ATOM     29  H   UNL     1      33.436 -14.384 -25.154  0.00  0.00    +0.175 HD
ENDBRANCH  19  24
ENDBRANCH   3  19
TORSDOF 5
ENDMDL
MODEL 4
REMARK VINA RESULT:      -9.8      1.758      2.042
REMARK  Name = 24886843
REMARK  5 active torsions:
REMARK  status: ('A' for Active; 'I' for Inactive)
REMARK    1  A    between atoms: C_3  and  C_19
REMARK    2  A    between atoms: C_6  and  O_9
REMARK    3  A    between atoms: O_9  and  C_11
REMARK    4  A    between atoms: C_14  and  C_18
REMARK    5  A    between atoms: C_19  and  C_24
REMARK                            x       y       z     vdW  Elec       q    Type
REMARK                         _______ _______ _______ _____ _____    ______ ____
ROOT
ATOM      1 BR   UNL     1      30.404 -10.954 -20.329  0.00  0.00    -0.046 Br
ATOM      2  F   UNL     1      33.762 -12.021 -24.212  0.00  0.00    -0.201 F 
ATOM      3  C   UNL     1      33.667 -13.581 -22.429  0.00  0.00    +0.014 C 
ATOM      4  C   UNL     1      33.240 -12.399 -23.036  0.00  0.00    +0.171 C 
ATOM      5  C   UNL     1      33.122 -13.972 -21.206  0.00  0.00    -0.001 C 
ATOM      6  C   UNL     1      32.270 -11.609 -22.419  0.00  0.00    +0.178 C 
ATOM      7  C   UNL     1      32.151 -13.182 -20.590  0.00  0.00    +0.010 C 
ATOM      8  C   UNL     1      31.725 -12.001 -21.196  0.00  0.00    +0.071 C 
ENDROOT
BRANCH   6   9
ATOM      9  O   UNL     1      31.874 -10.459 -23.036  0.00  0.00    -0.451 OA
BRANCH   9  11
ATOM     10 CL   UNL     1      35.036  -6.847 -24.777  0.00  0.00    -0.082 Cl
ATOM     11  C   UNL     1      32.598  -9.310 -22.778  0.00  0.00    +0.147 C 
ATOM     12  C   UNL     1      32.566  -8.734 -21.508  0.00  0.00    +0.048 C 
ATOM     13  C   UNL     1      33.363  -8.727 -23.789  0.00  0.00    +0.049 C 
ATOM     14  C   UNL     1      33.297  -7.575 -21.249  0.00  0.00    +0.072 C 
ATOM     15  C   UNL     1      34.093  -7.567 -23.530  0.00  0.00    +0.061 C 
ATOM     16  C   UNL     1      34.060  -6.992 -22.259  0.00  0.00    +0.022 C 
BRANCH  14  18
ATOM     17  N   UNL     1      33.234  -6.507 -18.891  0.00  0.00    -0.191 NA
ATOM     18  C   UNL     1      33.262  -6.986 -19.947  0.00  0.00    +0.101 C 
ENDBRANCH  14  18
ENDBRANCH   9  11
ENDBRANCH   6   9
BRANCH   3  19
ATOM     19  C   UNL     1      34.726 -14.445 -23.099  0.00  0.00    +0.072 C 
BRANCH  19  24
ATOM     20  N   UNL     1      35.264 -15.929 -21.179  0.00  0.00    -0.231 N 
ATOM     21  N   UNL     1      35.385 -17.212 -20.780  0.00  0.00    -0.126 NA
ATOM     22  N   UNL     1      35.064 -19.257 -22.044  0.00  0.00    -0.103 NA
ATOM     23  N   UNL     1      34.725 -19.666 -23.299  0.00  0.00    -0.107 NA
ATOM     24  C   UNL     1      34.904 -15.775 -22.491  0.00  0.00    +0.057 C 
ATOM     25  C   UNL     1      34.787 -17.051 -22.973  0.00  0.00    +0.078 C 
ATOM     26  C   UNL     1      35.093 -17.909 -21.882  0.00  0.00    +0.072 C 
ATOM     27  C   UNL     1      34.440 -17.400 -24.260  0.00  0.00    +0.031 C 
ATOM     28  C   UNL     1      34.437 -18.788 -24.323  0.00  0.00    +0.110 C 
ATOM     29  H   UNL     1      35.420 -15.165 -20.577  0.00  0.00    +0.175 HD
ENDBRANCH  19  24
ENDBRANCH   3  19
TORSDOF 5
ENDMDL
MODEL 5
REMARK VINA RESULT:      -9.7      9.537     13.842
REMARK  Name = 24886843
REMARK  5 active torsions:
REMARK  status: ('A' for Active; 'I' for Inactive)
REMARK    1  A    between atoms: C_3  and  C_19
REMARK    2  A    between atoms: C_6  and  O_9
REMARK    3  A    between atoms: O_9  and  C_11
REMARK    4  A    between atoms: C_14  and  C_18
REMARK    5  A    between atoms: C_19  and  C_24
REMARK                            x       y       z     vdW  Elec       q    Type
REMARK                         _______ _______ _______ _____ _____    ______ ____
ROOT
ATOM      1 BR   UNL     1      32.708 -23.083 -14.679  0.00  0.00    -0.046 Br
ATOM      2  F   UNL     1      37.088 -21.803 -17.262  0.00  0.00    -0.201 F 
ATOM      3  C   UNL     1      35.178 -22.288 -18.581  0.00  0.00    +0.014 C 
ATOM      4  C   UNL     1      35.796 -22.156 -17.337  0.00  0.00    +0.171 C 
ATOM      5  C   UNL     1      33.834 -22.653 -18.656  0.00  0.00    -0.001 C 
ATOM      6  C   UNL     1      35.070 -22.390 -16.169  0.00  0.00    +0.178 C 
ATOM      7  C   UNL     1      33.109 -22.888 -17.488  0.00  0.00    +0.010 C 
ATOM      8  C   UNL     1      33.727 -22.756 -16.244  0.00  0.00    +0.071 C 
ENDROOT
BRANCH   6   9
ATOM      9  O   UNL     1      35.702 -22.254 -14.968  0.00  0.00    -0.451 OA
BRANCH   9  11
ATOM     10 CL   UNL     1      37.118 -27.161 -14.938  0.00  0.00    -0.082 Cl
ATOM     11  C   UNL     1      35.942 -23.403 -14.235  0.00  0.00    +0.147 C 
ATOM     12  C   UNL     1      35.764 -23.398 -12.852  0.00  0.00    +0.048 C 
ATOM     13  C   UNL     1      36.360 -24.567 -14.881  0.00  0.00    +0.049 C 
ATOM     14  C   UNL     1      36.005 -24.556 -12.113  0.00  0.00    +0.072 C 
ATOM     15  C   UNL     1      36.601 -25.725 -14.142  0.00  0.00    +0.061 C 
ATOM     16  C   UNL     1      36.423 -25.719 -12.759  0.00  0.00    +0.022 C 
BRANCH  14  18
ATOM     17  N   UNL     1      35.675 -24.545  -9.545  0.00  0.00    -0.191 NA
ATOM     18  C   UNL     1      35.823 -24.550 -10.696  0.00  0.00    +0.101 C 
ENDBRANCH  14  18
ENDBRANCH   9  11
ENDBRANCH   6   9
BRANCH   3  19
ATOM     19  C   UNL     1      35.968 -22.032 -19.857  0.00  0.00    +0.072 C 
BRANCH  19  24
ATOM     20  N   UNL     1      36.945 -19.777 -19.490  0.00  0.00    -0.231 N 
ATOM     21  N   UNL     1      36.976 -18.504 -19.938  0.00  0.00    -0.126 NA
ATOM     22  N   UNL     1      35.798 -17.498 -21.806  0.00  0.00    -0.103 NA
ATOM     23  N   UNL     1      34.918 -17.836 -22.788  0.00  0.00    -0.107 NA
ATOM     24  C   UNL     1      36.126 -20.609 -20.204  0.00  0.00    +0.057 C 
ATOM     25  C   UNL     1      35.589 -19.817 -21.183  0.00  0.00    +0.078 C 
ATOM     26  C   UNL     1      36.142 -18.523 -20.982  0.00  0.00    +0.072 C 
ATOM     27  C   UNL     1      34.698 -20.221 -22.153  0.00  0.00    +0.031 C 
ATOM     28  C   UNL     1      34.412 -19.111 -22.938  0.00  0.00    +0.110 C 
ATOM     29  H   UNL     1      37.467 -20.082 -18.714  0.00  0.00    +0.175 HD
ENDBRANCH  19  24
ENDBRANCH   3  19
TORSDOF 5
ENDMDL
MODEL 6
REMARK VINA RESULT:      -9.7      2.411      3.246
REMARK  Name = 24886843
REMARK  5 active torsions:
REMARK  status: ('A' for Active; 'I' for Inactive)
REMARK    1  A    between atoms: C_3  and  C_19
REMARK    2  A    between atoms: C_6  and  O_9
REMARK    3  A    between atoms: O_9  and  C_11
REMARK    4  A    between atoms: C_14  and  C_18
REMARK    5  A    between atoms: C_19  and  C_24
REMARK                            x       y       z     vdW  Elec       q    Type
REMARK                         _______ _______ _______ _____ _____    ______ ____
ROOT
ATOM      1 BR   UNL     1      31.965  -7.314 -20.054  0.00  0.00    -0.046 Br
ATOM      2  F   UNL     1      34.679  -9.594 -23.917  0.00  0.00    -0.201 F 
ATOM      3  C   UNL     1      32.846 -10.816 -23.041  0.00  0.00    +0.014 C 
ATOM      4  C   UNL     1      33.657  -9.680 -23.054  0.00  0.00    +0.171 C 
ATOM      5  C   UNL     1      31.783 -10.902 -22.143  0.00  0.00    -0.001 C 
ATOM      6  C   UNL     1      33.403  -8.632 -22.169  0.00  0.00    +0.178 C 
ATOM      7  C   UNL     1      31.530  -9.854 -21.258  0.00  0.00    +0.010 C 
ATOM      8  C   UNL     1      32.340  -8.718 -21.271  0.00  0.00    +0.071 C 
ENDROOT
BRANCH   6   9
ATOM      9  O   UNL     1      34.213  -7.535 -22.206  0.00  0.00    -0.451 OA
BRANCH   9  11
ATOM     10 CL   UNL     1      36.012  -5.071 -26.302  0.00  0.00    -0.082 Cl
ATOM     11  C   UNL     1      33.993  -6.608 -23.209  0.00  0.00    +0.147 C 
ATOM     12  C   UNL     1      32.771  -5.941 -23.287  0.00  0.00    +0.048 C 
ATOM     13  C   UNL     1      34.996  -6.339 -24.140  0.00  0.00    +0.049 C 
ATOM     14  C   UNL     1      32.550  -5.006 -24.298  0.00  0.00    +0.072 C 
ATOM     15  C   UNL     1      34.775  -5.404 -25.151  0.00  0.00    +0.061 C 
ATOM     16  C   UNL     1      33.552  -4.738 -25.230  0.00  0.00    +0.022 C 
BRANCH  14  18
ATOM     17  N   UNL     1      30.279  -3.772 -24.443  0.00  0.00    -0.191 NA
ATOM     18  C   UNL     1      31.297  -4.325 -24.378  0.00  0.00    +0.101 C 
ENDBRANCH  14  18
ENDBRANCH   9  11
ENDBRANCH   6   9
BRANCH   3  19
ATOM     19  C   UNL     1      33.120 -11.962 -24.005  0.00  0.00    +0.072 C 
BRANCH  19  24
ATOM     20  N   UNL     1      34.435 -13.043 -22.195  0.00  0.00    -0.231 N 
ATOM     21  N   UNL     1      34.993 -14.199 -21.780  0.00  0.00    -0.126 NA
ATOM     22  N   UNL     1      35.013 -16.375 -22.855  0.00  0.00    -0.103 NA
ATOM     23  N   UNL     1      34.557 -16.985 -23.983  0.00  0.00    -0.107 NA
ATOM     24  C   UNL     1      33.787 -13.126 -23.398  0.00  0.00    +0.057 C 
ATOM     25  C   UNL     1      33.940 -14.429 -23.788  0.00  0.00    +0.078 C 
ATOM     26  C   UNL     1      34.693 -15.058 -22.759  0.00  0.00    +0.072 C 
ATOM     27  C   UNL     1      33.452 -14.988 -24.949  0.00  0.00    +0.031 C 
ATOM     28  C   UNL     1      33.829 -16.325 -24.953  0.00  0.00    +0.110 C 
ATOM     29  H   UNL     1      34.488 -12.209 -21.675  0.00  0.00    +0.175 HD
ENDBRANCH  19  24
ENDBRANCH   3  19
TORSDOF 5
ENDMDL
MODEL 7
REMARK VINA RESULT:      -9.7     12.467     14.738
REMARK  Name = 24886843
REMARK  5 active torsions:
REMARK  status: ('A' for Active; 'I' for Inactive)
REMARK    1  A    between atoms: C_3  and  C_19
REMARK    2  A    between atoms: C_6  and  O_9
REMARK    3  A    between atoms: O_9  and  C_11
REMARK    4  A    between atoms: C_14  and  C_18
REMARK    5  A    between atoms: C_19  and  C_24
REMARK                            x       y       z     vdW  Elec       q    Type
REMARK                         _______ _______ _______ _____ _____    ______ ____
ROOT
ATOM      1 BR   UNL     1      33.448 -21.962 -19.373  0.00  0.00    -0.046 Br
ATOM      2  F   UNL     1      35.262 -24.150 -14.967  0.00  0.00    -0.201 F 
ATOM      3  C   UNL     1      36.641 -22.514 -15.988  0.00  0.00    +0.014 C 
ATOM      4  C   UNL     1      35.470 -23.272 -15.959  0.00  0.00    +0.171 C 
ATOM      5  C   UNL     1      36.853 -21.600 -17.020  0.00  0.00    -0.001 C 
ATOM      6  C   UNL     1      34.513 -23.116 -16.962  0.00  0.00    +0.178 C 
ATOM      7  C   UNL     1      35.896 -21.444 -18.023  0.00  0.00    +0.010 C 
ATOM      8  C   UNL     1      34.726 -22.202 -17.993  0.00  0.00    +0.071 C 
ENDROOT
BRANCH   6   9
ATOM      9  O   UNL     1      33.379 -23.871 -16.906  0.00  0.00    -0.451 OA
BRANCH   9  11
ATOM     10 CL   UNL     1      32.005 -22.895 -12.086  0.00  0.00    -0.082 Cl
ATOM     11  C   UNL     1      32.388 -23.479 -16.025  0.00  0.00    +0.147 C 
ATOM     12  C   UNL     1      31.114 -23.168 -16.499  0.00  0.00    +0.048 C 
ATOM     13  C   UNL     1      32.664 -23.395 -14.660  0.00  0.00    +0.049 C 
ATOM     14  C   UNL     1      30.116 -22.772 -15.609  0.00  0.00    +0.072 C 
ATOM     15  C   UNL     1      31.666 -22.999 -13.770  0.00  0.00    +0.061 C 
ATOM     16  C   UNL     1      30.392 -22.688 -14.245  0.00  0.00    +0.022 C 
BRANCH  14  18
ATOM     17  N   UNL     1      27.752 -22.193 -16.493  0.00  0.00    -0.191 NA
ATOM     18  C   UNL     1      28.811 -22.453 -16.097  0.00  0.00    +0.101 C 
ENDBRANCH  14  18
ENDBRANCH   9  11
ENDBRANCH   6   9
BRANCH   3  19
ATOM     19  C   UNL     1      37.687 -22.681 -14.895  0.00  0.00    +0.072 C 
BRANCH  19  24
ATOM     20  N   UNL     1      38.112 -25.125 -14.743  0.00  0.00    -0.231 N 
ATOM     21  N   UNL     1      37.982 -26.219 -13.963  0.00  0.00    -0.126 NA
ATOM     22  N   UNL     1      37.028 -26.424 -11.742  0.00  0.00    -0.103 NA
ATOM     23  N   UNL     1      36.444 -25.654 -10.782  0.00  0.00    -0.107 NA
ATOM     24  C   UNL     1      37.630 -23.971 -14.186  0.00  0.00    +0.057 C 
ATOM     25  C   UNL     1      37.156 -24.347 -12.958  0.00  0.00    +0.078 C 
ATOM     26  C   UNL     1      37.393 -25.745 -12.861  0.00  0.00    +0.072 C 
ATOM     27  C   UNL     1      36.572 -23.516 -12.028  0.00  0.00    +0.031 C 
ATOM     28  C   UNL     1      36.237 -24.297 -10.929  0.00  0.00    +0.110 C 
ATOM     29  H   UNL     1      38.518 -25.154 -15.639  0.00  0.00    +0.175 HD
ENDBRANCH  19  24
ENDBRANCH   3  19
TORSDOF 5
ENDMDL
MODEL 8
REMARK VINA RESULT:      -9.6      2.709      8.820
REMARK  Name = 24886843
REMARK  5 active torsions:
REMARK  status: ('A' for Active; 'I' for Inactive)
REMARK    1  A    between atoms: C_3  and  C_19
REMARK    2  A    between atoms: C_6  and  O_9
REMARK    3  A    between atoms: O_9  and  C_11
REMARK    4  A    between atoms: C_14  and  C_18
REMARK    5  A    between atoms: C_19  and  C_24
REMARK                            x       y       z     vdW  Elec       q    Type
REMARK                         _______ _______ _______ _____ _____    ______ ____
ROOT
ATOM      1 BR   UNL     1      31.326 -10.567 -18.487  0.00  0.00    -0.046 Br
ATOM      2  F   UNL     1      32.421  -9.497 -23.502  0.00  0.00    -0.201 F 
ATOM      3  C   UNL     1      33.142  -7.911 -21.894  0.00  0.00    +0.014 C 
ATOM      4  C   UNL     1      32.508  -9.110 -22.221  0.00  0.00    +0.171 C 
ATOM      5  C   UNL     1      33.233  -7.512 -20.561  0.00  0.00    -0.001 C 
ATOM      6  C   UNL     1      31.964  -9.908 -21.215  0.00  0.00    +0.178 C 
ATOM      7  C   UNL     1      32.688  -8.310 -19.555  0.00  0.00    +0.010 C 
ATOM      8  C   UNL     1      32.054  -9.509 -19.882  0.00  0.00    +0.071 C 
ENDROOT
BRANCH   6   9
ATOM      9  O   UNL     1      31.349 -11.074 -21.566  0.00  0.00    -0.451 OA
BRANCH   9  11
ATOM     10 CL   UNL     1      34.589 -14.641 -19.874  0.00  0.00    -0.082 Cl
ATOM     11  C   UNL     1      32.153 -12.162 -21.855  0.00  0.00    +0.147 C 
ATOM     12  C   UNL     1      32.238 -12.639 -23.163  0.00  0.00    +0.048 C 
ATOM     13  C   UNL     1      32.881 -12.780 -20.838  0.00  0.00    +0.049 C 
ATOM     14  C   UNL     1      33.049 -13.736 -23.454  0.00  0.00    +0.072 C 
ATOM     15  C   UNL     1      33.691 -13.877 -21.129  0.00  0.00    +0.061 C 
ATOM     16  C   UNL     1      33.776 -14.354 -22.437  0.00  0.00    +0.022 C 
BRANCH  14  18
ATOM     17  N   UNL     1      33.204 -14.622 -25.882  0.00  0.00    -0.191 NA
ATOM     18  C   UNL     1      33.134 -14.225 -24.794  0.00  0.00    +0.101 C 
ENDBRANCH  14  18
ENDBRANCH   9  11
ENDBRANCH   6   9
BRANCH   3  19
ATOM     19  C   UNL     1      33.738  -7.038 -22.990  0.00  0.00    +0.072 C 
BRANCH  19  24
ATOM     20  N   UNL     1      32.526  -6.196 -24.990  0.00  0.00    -0.231 N 
ATOM     21  N   UNL     1      31.617  -5.300 -25.430  0.00  0.00    -0.126 NA
ATOM     22  N   UNL     1      30.381  -3.621 -24.189  0.00  0.00    -0.103 NA
ATOM     23  N   UNL     1      30.245  -3.153 -22.917  0.00  0.00    -0.107 NA
ATOM     24  C   UNL     1      32.775  -6.136 -23.645  0.00  0.00    +0.057 C 
ATOM     25  C   UNL     1      31.969  -5.129 -23.185  0.00  0.00    +0.078 C 
ATOM     26  C   UNL     1      31.271  -4.639 -24.321  0.00  0.00    +0.072 C 
ATOM     27  C   UNL     1      31.877  -4.701 -21.878  0.00  0.00    +0.031 C 
ATOM     28  C   UNL     1      30.950  -3.667 -21.848  0.00  0.00    +0.110 C 
ATOM     29  H   UNL     1      32.973  -6.839 -25.586  0.00  0.00    +0.175 HD
ENDBRANCH  19  24
ENDBRANCH   3  19
TORSDOF 5
ENDMDL
MODEL 9
REMARK VINA RESULT:      -9.5      8.484     12.064
REMARK  Name = 24886843
REMARK  5 active torsions:
REMARK  status: ('A' for Active; 'I' for Inactive)
REMARK    1  A    between atoms: C_3  and  C_19
REMARK    2  A    between atoms: C_6  and  O_9
REMARK    3  A    between atoms: O_9  and  C_11
REMARK    4  A    between atoms: C_14  and  C_18
REMARK    5  A    between atoms: C_19  and  C_24
REMARK                            x       y       z     vdW  Elec       q    Type
REMARK                         _______ _______ _______ _____ _____    ______ ____
ROOT
ATOM      1 BR   UNL     1      37.103 -22.569 -15.757  0.00  0.00    -0.046 Br
ATOM      2  F   UNL     1      33.476 -22.778 -19.537  0.00  0.00    -0.201 F 
ATOM      3  C   UNL     1      35.108 -21.068 -19.722  0.00  0.00    +0.014 C 
ATOM      4  C   UNL     1      34.563 -22.162 -19.050  0.00  0.00    +0.171 C 
ATOM      5  C   UNL     1      36.240 -20.431 -19.214  0.00  0.00    -0.001 C 
ATOM      6  C   UNL     1      35.149 -22.617 -17.868  0.00  0.00    +0.178 C 
ATOM      7  C   UNL     1      36.825 -20.886 -18.032  0.00  0.00    +0.010 C 
ATOM      8  C   UNL     1      36.280 -21.980 -17.359  0.00  0.00    +0.071 C 
ENDROOT
BRANCH   6   9
ATOM      9  O   UNL     1      34.592 -23.688 -17.233  0.00  0.00    -0.451 OA
BRANCH   9  11
ATOM     10 CL   UNL     1      33.317 -23.335 -12.301  0.00  0.00    -0.082 Cl
ATOM     11  C   UNL     1      33.613 -23.437 -16.289  0.00  0.00    +0.147 C 
ATOM     12  C   UNL     1      32.318 -23.118 -16.694  0.00  0.00    +0.048 C 
ATOM     13  C   UNL     1      33.923 -23.505 -14.930  0.00  0.00    +0.049 C 
ATOM     14  C   UNL     1      31.331 -22.865 -15.741  0.00  0.00    +0.072 C 
ATOM     15  C   UNL     1      32.936 -23.252 -13.977  0.00  0.00    +0.061 C 
ATOM     16  C   UNL     1      31.640 -22.932 -14.383  0.00  0.00    +0.022 C 
BRANCH  14  18
ATOM     17  N   UNL     1      28.926 -22.271 -16.497  0.00  0.00    -0.191 NA
ATOM     18  C   UNL     1      30.004 -22.537 -16.158  0.00  0.00    +0.101 C 
ENDBRANCH  14  18
ENDBRANCH   9  11
ENDBRANCH   6   9
BRANCH   3  19
ATOM     19  C   UNL     1      34.472 -20.569 -21.012  0.00  0.00    +0.072 C 
BRANCH  19  24
ATOM     20  N   UNL     1      35.362 -18.314 -20.463  0.00  0.00    -0.231 N 
ATOM     21  N   UNL     1      35.627 -17.086 -20.955  0.00  0.00    -0.126 NA
ATOM     22  N   UNL     1      35.290 -16.216 -23.194  0.00  0.00    -0.103 NA
ATOM     23  N   UNL     1      34.823 -16.615 -24.410  0.00  0.00    -0.107 NA
ATOM     24  C   UNL     1      34.825 -19.185 -21.373  0.00  0.00    +0.057 C 
ATOM     25  C   UNL     1      34.738 -18.467 -22.535  0.00  0.00    +0.078 C 
ATOM     26  C   UNL     1      35.244 -17.174 -22.232  0.00  0.00    +0.072 C 
ATOM     27  C   UNL     1      34.252 -18.931 -23.738  0.00  0.00    +0.031 C 
ATOM     28  C   UNL     1      34.342 -17.886 -24.649  0.00  0.00    +0.110 C 
ATOM     29  H   UNL     1      35.539 -18.564 -19.527  0.00  0.00    +0.175 HD
ENDBRANCH  19  24
ENDBRANCH   3  19
TORSDOF 5
ENDMDL
