MODEL 1
REMARK VINA RESULT:     -12.1      0.000      0.000
REMARK  Name = 11538992
REMARK  4 active torsions:
REMARK  status: ('A' for Active; 'I' for Inactive)
REMARK    1  A    between atoms: C_1  and  N_7
REMARK    2  A    between atoms: C_3  and  C_24
REMARK    3  A    between atoms: C_4  and  N_30
REMARK    4  A    between atoms: C_15  and  C_20
REMARK                            x       y       z     vdW  Elec       q    Type
REMARK                         _______ _______ _______ _____ _____    ______ ____
ROOT
ATOM      1  C   UNL     1      33.971 -12.371 -22.652  0.00  0.00    -0.059 C 
ATOM      2  C   UNL     1      32.458 -12.372 -22.408  0.00  0.00    -0.042 C 
ATOM      3  C   UNL     1      32.300 -10.024 -23.378  0.00  0.00    +0.005 C 
ATOM      4  C   UNL     1      31.923 -10.947 -22.190  0.00  0.00    -0.064 C 
ATOM      5  C   UNL     1      34.335 -11.473 -23.837  0.00  0.00    -0.021 C 
ATOM      6  C   UNL     1      33.819 -10.050 -23.632  0.00  0.00    +0.000 C 
ENDROOT
BRANCH   1   7
ATOM      7  N   UNL     1      34.434 -13.735 -22.905  0.00  0.00    +0.394 N 
ATOM      8  N   UNL     1      34.573 -16.503 -23.176  0.00  0.00    -0.299 N 
ATOM      9  N   UNL     1      33.796 -16.576 -25.214  0.00  0.00    -0.136 NA
ATOM     10  N   UNL     1      34.254 -17.836 -24.864  0.00  0.00    -0.125 NA
ATOM     11  C   UNL     1      34.339 -14.556 -21.683  0.00  0.00    -0.052 C 
ATOM     12  C   UNL     1      33.666 -14.343 -24.011  0.00  0.00    -0.009 C 
ATOM     13  C   UNL     1      34.975 -15.935 -21.911  0.00  0.00    +0.086 C 
ATOM     14  C   UNL     1      34.000 -15.781 -24.184  0.00  0.00    +0.122 A 
ATOM     15  C   UNL     1      34.718 -17.768 -23.634  0.00  0.00    +0.238 A 
ATOM     16  H   UNL     1      35.416 -13.697 -23.180  0.00  0.00    -0.079 HD
BRANCH  15  20
ATOM     17  F   UNL     1      36.647 -18.682 -22.553  0.00  0.00    -0.163 F 
ATOM     18  F   UNL     1      34.724 -19.067 -21.625  0.00  0.00    -0.163 F 
ATOM     19  F   UNL     1      35.258 -20.078 -23.476  0.00  0.00    -0.163 F 
ATOM     20  C   UNL     1      35.317 -18.859 -22.848  0.00  0.00    +0.452 C 
ENDBRANCH  15  20
ENDBRANCH   1   7
BRANCH   3  24
ATOM     21  F   UNL     1      31.572  -8.345 -25.547  0.00  0.00    -0.204 F 
ATOM     22  F   UNL     1      31.188  -6.215 -20.524  0.00  0.00    -0.202 F 
ATOM     23  F   UNL     1      30.520  -4.710 -22.705  0.00  0.00    -0.202 F 
ATOM     24  C   UNL     1      31.820  -8.590 -23.199  0.00  0.00    +0.005 C 
ATOM     25  C   UNL     1      31.481  -7.829 -24.313  0.00  0.00    +0.138 C 
ATOM     26  C   UNL     1      31.723  -8.052 -21.920  0.00  0.00    +0.030 C 
ATOM     27  C   UNL     1      31.284  -6.739 -21.752  0.00  0.00    +0.167 C 
ATOM     28  C   UNL     1      31.042  -6.516 -24.146  0.00  0.00    +0.061 C 
ATOM     29  C   UNL     1      30.943  -5.971 -22.866  0.00  0.00    +0.170 C 
ENDBRANCH   3  24
BRANCH   4  30
ATOM     30  N   UNL     1      30.468 -10.995 -22.011  0.00  0.00    +0.382 N 
ATOM     31  H   UNL     1      30.020 -11.146 -22.914  0.00  0.00    -0.089 HD
ATOM     32  H   UNL     1      30.145 -10.114 -21.614  0.00  0.00    -0.089 HD
ATOM     33  H   UNL     1      30.228 -11.761 -21.380  0.00  0.00    -0.089 HD
ENDBRANCH   4  30
TORSDOF 4
ENDMDL
MODEL 2
REMARK VINA RESULT:     -11.9      7.239     11.362
REMARK  Name = 11538992
REMARK  4 active torsions:
REMARK  status: ('A' for Active; 'I' for Inactive)
REMARK    1  A    between atoms: C_1  and  N_7
REMARK    2  A    between atoms: C_3  and  C_24
REMARK    3  A    between atoms: C_4  and  N_30
REMARK    4  A    between atoms: C_15  and  C_20
REMARK                            x       y       z     vdW  Elec       q    Type
REMARK                         _______ _______ _______ _____ _____    ______ ____
ROOT
ATOM      1  C   UNL     1      34.943 -22.101 -18.797  0.00  0.00    -0.059 C 
ATOM      2  C   UNL     1      36.151 -21.159 -18.825  0.00  0.00    -0.042 C 
ATOM      3  C   UNL     1      34.856 -19.541 -20.304  0.00  0.00    +0.005 C 
ATOM      4  C   UNL     1      36.182 -20.322 -20.116  0.00  0.00    -0.064 C 
ATOM      5  C   UNL     1      33.636 -21.322 -18.965  0.00  0.00    -0.021 C 
ATOM      6  C   UNL     1      33.646 -20.493 -20.247  0.00  0.00    +0.000 C 
ENDROOT
BRANCH   1   7
ATOM      7  N   UNL     1      34.920 -22.840 -17.535  0.00  0.00    +0.394 N 
ATOM      8  N   UNL     1      34.679 -23.537 -14.851  0.00  0.00    -0.299 N 
ATOM      9  N   UNL     1      32.526 -23.886 -14.893  0.00  0.00    -0.136 NA
ATOM     10  N   UNL     1      33.024 -24.308 -13.671  0.00  0.00    -0.125 NA
ATOM     11  C   UNL     1      35.906 -22.290 -16.587  0.00  0.00    -0.052 C 
ATOM     12  C   UNL     1      33.561 -22.825 -16.955  0.00  0.00    -0.009 C 
ATOM     13  C   UNL     1      35.991 -23.168 -15.330  0.00  0.00    +0.086 C 
ATOM     14  C   UNL     1      33.540 -23.427 -15.596  0.00  0.00    +0.122 A 
ATOM     15  C   UNL     1      34.322 -24.090 -13.668  0.00  0.00    +0.238 A 
ATOM     16  H   UNL     1      35.176 -23.810 -17.725  0.00  0.00    -0.079 HD
BRANCH  15  20
ATOM     17  F   UNL     1      34.712 -25.015 -11.497  0.00  0.00    -0.163 F 
ATOM     18  F   UNL     1      36.307 -25.217 -12.953  0.00  0.00    -0.163 F 
ATOM     19  F   UNL     1      35.882 -23.275 -12.071  0.00  0.00    -0.163 F 
ATOM     20  C   UNL     1      35.272 -24.391 -12.585  0.00  0.00    +0.452 C 
ENDBRANCH  15  20
ENDBRANCH   1   7
BRANCH   3  24
ATOM     21  F   UNL     1      35.492 -16.777 -20.397  0.00  0.00    -0.204 F 
ATOM     22  F   UNL     1      34.087 -19.159 -25.115  0.00  0.00    -0.202 F 
ATOM     23  F   UNL     1      34.724 -16.502 -25.058  0.00  0.00    -0.202 F 
ATOM     24  C   UNL     1      34.821 -18.719 -21.585  0.00  0.00    +0.005 C 
ATOM     25  C   UNL     1      35.146 -17.366 -21.550  0.00  0.00    +0.138 C 
ATOM     26  C   UNL     1      34.464 -19.328 -22.783  0.00  0.00    +0.030 C 
ATOM     27  C   UNL     1      34.430 -18.579 -23.959  0.00  0.00    +0.167 C 
ATOM     28  C   UNL     1      35.113 -16.617 -22.725  0.00  0.00    +0.061 C 
ATOM     29  C   UNL     1      34.755 -17.222 -23.929  0.00  0.00    +0.170 C 
ENDBRANCH   3  24
BRANCH   4  30
ATOM     30  N   UNL     1      37.325 -19.404 -20.074  0.00  0.00    +0.382 N 
ATOM     31  H   UNL     1      38.019 -19.756 -19.414  0.00  0.00    -0.089 HD
ATOM     32  H   UNL     1      37.009 -18.482 -19.775  0.00  0.00    -0.089 HD
ATOM     33  H   UNL     1      37.742 -19.337 -21.002  0.00  0.00    -0.089 HD
ENDBRANCH   4  30
TORSDOF 4
ENDMDL
MODEL 3
REMARK VINA RESULT:     -11.7      1.524      2.348
REMARK  Name = 11538992
REMARK  4 active torsions:
REMARK  status: ('A' for Active; 'I' for Inactive)
REMARK    1  A    between atoms: C_1  and  N_7
REMARK    2  A    between atoms: C_3  and  C_24
REMARK    3  A    between atoms: C_4  and  N_30
REMARK    4  A    between atoms: C_15  and  C_20
REMARK                            x       y       z     vdW  Elec       q    Type
REMARK                         _______ _______ _______ _____ _____    ______ ____
ROOT
ATOM      1  C   UNL     1      33.413 -11.649 -23.610  0.00  0.00    -0.059 C 
ATOM      2  C   UNL     1      34.536 -10.607 -23.582  0.00  0.00    -0.042 C 
ATOM      3  C   UNL     1      33.030  -9.020 -22.280  0.00  0.00    +0.005 C 
ATOM      4  C   UNL     1      33.973  -9.178 -23.501  0.00  0.00    -0.064 C 
ATOM      5  C   UNL     1      32.496 -11.502 -22.394  0.00  0.00    -0.021 C 
ATOM      6  C   UNL     1      31.920 -10.090 -22.302  0.00  0.00    +0.000 C 
ENDROOT
BRANCH   1   7
ATOM      7  N   UNL     1      33.986 -12.995 -23.637  0.00  0.00    +0.394 N 
ATOM      8  N   UNL     1      34.351 -15.748 -23.440  0.00  0.00    -0.299 N 
ATOM      9  N   UNL     1      33.577 -16.228 -25.423  0.00  0.00    -0.136 NA
ATOM     10  N   UNL     1      34.138 -17.370 -24.873  0.00  0.00    -0.125 NA
ATOM     11  C   UNL     1      33.962 -13.601 -22.293  0.00  0.00    -0.052 C 
ATOM     12  C   UNL     1      33.267 -13.842 -24.612  0.00  0.00    -0.009 C 
ATOM     13  C   UNL     1      34.709 -14.944 -22.296  0.00  0.00    +0.086 C 
ATOM     14  C   UNL     1      33.718 -15.256 -24.546  0.00  0.00    +0.122 A 
ATOM     15  C   UNL     1      34.598 -17.057 -23.680  0.00  0.00    +0.238 A 
ATOM     16  H   UNL     1      34.961 -12.925 -23.931  0.00  0.00    -0.079 HD
BRANCH  15  20
ATOM     17  F   UNL     1      36.586 -17.593 -22.462  0.00  0.00    -0.163 F 
ATOM     18  F   UNL     1      34.693 -18.022 -21.494  0.00  0.00    -0.163 F 
ATOM     19  F   UNL     1      35.362 -19.248 -23.162  0.00  0.00    -0.163 F 
ATOM     20  C   UNL     1      35.287 -17.947 -22.731  0.00  0.00    +0.452 C 
ENDBRANCH  15  20
ENDBRANCH   1   7
BRANCH   3  24
ATOM     21  F   UNL     1      33.429  -7.321 -20.042  0.00  0.00    -0.204 F 
ATOM     22  F   UNL     1      30.297  -5.397 -24.092  0.00  0.00    -0.202 F 
ATOM     23  F   UNL     1      30.765  -3.867 -21.877  0.00  0.00    -0.202 F 
ATOM     24  C   UNL     1      32.419  -7.630 -22.168  0.00  0.00    +0.005 C 
ATOM     25  C   UNL     1      32.662  -6.856 -21.038  0.00  0.00    +0.138 C 
ATOM     26  C   UNL     1      31.624  -7.144 -23.200  0.00  0.00    +0.030 C 
ATOM     27  C   UNL     1      31.063  -5.870 -23.102  0.00  0.00    +0.167 C 
ATOM     28  C   UNL     1      32.101  -5.582 -20.939  0.00  0.00    +0.061 C 
ATOM     29  C   UNL     1      31.302  -5.090 -21.970  0.00  0.00    +0.170 C 
ENDBRANCH   3  24
BRANCH   4  30
ATOM     30  N   UNL     1      35.083  -8.221 -23.426  0.00  0.00    +0.382 N 
ATOM     31  H   UNL     1      35.081  -7.769 -22.513  0.00  0.00    -0.089 HD
ATOM     32  H   UNL     1      34.973  -7.516 -24.155  0.00  0.00    -0.089 HD
ATOM     33  H   UNL     1      35.966  -8.714 -23.560  0.00  0.00    -0.089 HD
ENDBRANCH   4  30
TORSDOF 4
ENDMDL
MODEL 4
REMARK VINA RESULT:     -11.6      6.811     10.750
REMARK  Name = 11538992
REMARK  4 active torsions:
REMARK  status: ('A' for Active; 'I' for Inactive)
REMARK    1  A    between atoms: C_1  and  N_7
REMARK    2  A    between atoms: C_3  and  C_24
REMARK    3  A    between atoms: C_4  and  N_30
REMARK    4  A    between atoms: C_15  and  C_20
REMARK                            x       y       z     vdW  Elec       q    Type
REMARK                         _______ _______ _______ _____ _____    ______ ____
ROOT
ATOM      1  C   UNL     1      35.195 -21.697 -19.265  0.00  0.00    -0.059 C 
ATOM      2  C   UNL     1      36.421 -20.781 -19.330  0.00  0.00    -0.042 C 
ATOM      3  C   UNL     1      35.074 -19.069 -20.646  0.00  0.00    +0.005 C 
ATOM      4  C   UNL     1      36.389 -19.886 -20.581  0.00  0.00    -0.064 C 
ATOM      5  C   UNL     1      33.899 -20.883 -19.311  0.00  0.00    -0.021 C 
ATOM      6  C   UNL     1      33.846 -19.996 -20.553  0.00  0.00    +0.000 C 
ENDROOT
BRANCH   1   7
ATOM      7  N   UNL     1      35.235 -22.494 -18.039  0.00  0.00    +0.394 N 
ATOM      8  N   UNL     1      35.076 -23.327 -15.388  0.00  0.00    -0.299 N 
ATOM      9  N   UNL     1      32.948 -23.806 -15.421  0.00  0.00    -0.136 NA
ATOM     10  N   UNL     1      33.488 -24.252 -14.226  0.00  0.00    -0.125 NA
ATOM     11  C   UNL     1      36.199 -21.928 -17.078  0.00  0.00    -0.052 C 
ATOM     12  C   UNL     1      33.886 -22.589 -17.443  0.00  0.00    -0.009 C 
ATOM     13  C   UNL     1      36.355 -22.856 -15.864  0.00  0.00    +0.086 C 
ATOM     14  C   UNL     1      33.922 -23.253 -16.113  0.00  0.00    +0.122 A 
ATOM     15  C   UNL     1      34.770 -23.954 -14.228  0.00  0.00    +0.238 A 
ATOM     16  H   UNL     1      35.547 -23.436 -18.277  0.00  0.00    -0.079 HD
BRANCH  15  20
ATOM     17  F   UNL     1      36.798 -25.041 -13.572  0.00  0.00    -0.163 F 
ATOM     18  F   UNL     1      36.359 -23.132 -12.640  0.00  0.00    -0.163 F 
ATOM     19  F   UNL     1      35.213 -24.898 -12.091  0.00  0.00    -0.163 F 
ATOM     20  C   UNL     1      35.753 -24.245 -13.171  0.00  0.00    +0.452 C 
ENDBRANCH  15  20
ENDBRANCH   1   7
BRANCH   3  24
ATOM     21  F   UNL     1      34.689 -20.098 -23.263  0.00  0.00    -0.204 F 
ATOM     22  F   UNL     1      35.080 -14.665 -22.766  0.00  0.00    -0.202 F 
ATOM     23  F   UNL     1      34.709 -15.792 -25.228  0.00  0.00    -0.202 F 
ATOM     24  C   UNL     1      34.975 -18.187 -21.884  0.00  0.00    +0.005 C 
ATOM     25  C   UNL     1      34.786 -18.767 -23.135  0.00  0.00    +0.138 C 
ATOM     26  C   UNL     1      35.075 -16.806 -21.754  0.00  0.00    +0.030 C 
ATOM     27  C   UNL     1      34.985 -15.995 -22.885  0.00  0.00    +0.167 C 
ATOM     28  C   UNL     1      34.697 -17.956 -24.266  0.00  0.00    +0.061 C 
ATOM     29  C   UNL     1      34.797 -16.571 -24.141  0.00  0.00    +0.170 C 
ENDBRANCH   3  24
BRANCH   4  30
ATOM     30  N   UNL     1      37.555 -18.996 -20.573  0.00  0.00    +0.382 N 
ATOM     31  H   UNL     1      37.242 -18.027 -20.618  0.00  0.00    -0.089 HD
ATOM     32  H   UNL     1      38.144 -19.200 -21.379  0.00  0.00    -0.089 HD
ATOM     33  H   UNL     1      38.088 -19.142 -19.716  0.00  0.00    -0.089 HD
ENDBRANCH   4  30
TORSDOF 4
ENDMDL
MODEL 5
REMARK VINA RESULT:     -11.3      2.402      9.868
REMARK  Name = 11538992
REMARK  4 active torsions:
REMARK  status: ('A' for Active; 'I' for Inactive)
REMARK    1  A    between atoms: C_1  and  N_7
REMARK    2  A    between atoms: C_3  and  C_24
REMARK    3  A    between atoms: C_4  and  N_30
REMARK    4  A    between atoms: C_15  and  C_20
REMARK                            x       y       z     vdW  Elec       q    Type
REMARK                         _______ _______ _______ _____ _____    ______ ____
ROOT
ATOM      1  C   UNL     1      32.185 -11.174 -23.033  0.00  0.00    -0.059 C 
ATOM      2  C   UNL     1      31.930 -11.902 -21.709  0.00  0.00    -0.042 C 
ATOM      3  C   UNL     1      33.880 -13.465 -22.194  0.00  0.00    +0.005 C 
ATOM      4  C   UNL     1      32.390 -13.368 -21.777  0.00  0.00    -0.064 C 
ATOM      5  C   UNL     1      33.661 -11.257 -23.431  0.00  0.00    -0.021 C 
ATOM      6  C   UNL     1      34.131 -12.707 -23.513  0.00  0.00    +0.000 C 
ENDROOT
BRANCH   1   7
ATOM      7  N   UNL     1      31.783  -9.772 -22.914  0.00  0.00    +0.394 N 
ATOM      8  N   UNL     1      31.800  -7.002 -22.632  0.00  0.00    -0.299 N 
ATOM      9  N   UNL     1      32.099  -6.555 -24.746  0.00  0.00    -0.136 NA
ATOM     10  N   UNL     1      31.831  -5.374 -24.072  0.00  0.00    -0.125 NA
ATOM     11  C   UNL     1      32.215  -9.212 -21.620  0.00  0.00    -0.052 C 
ATOM     12  C   UNL     1      32.326  -8.983 -24.040  0.00  0.00    -0.009 C 
ATOM     13  C   UNL     1      31.652  -7.795 -21.433  0.00  0.00    +0.086 C 
ATOM     14  C   UNL     1      32.072  -7.530 -23.861  0.00  0.00    +0.122 A 
ATOM     15  C   UNL     1      31.653  -5.668 -22.801  0.00  0.00    +0.238 A 
ATOM     16  H   UNL     1      30.764  -9.724 -22.951  0.00  0.00    -0.079 HD
BRANCH  15  20
ATOM     17  F   UNL     1      32.152  -4.846 -20.611  0.00  0.00    -0.163 F 
ATOM     18  F   UNL     1      31.414  -3.407 -22.057  0.00  0.00    -0.163 F 
ATOM     19  F   UNL     1      30.064  -4.889 -21.214  0.00  0.00    -0.163 F 
ATOM     20  C   UNL     1      31.334  -4.734 -21.709  0.00  0.00    +0.452 C 
ENDBRANCH  15  20
ENDBRANCH   1   7
BRANCH   3  24
ATOM     21  F   UNL     1      34.926 -14.927 -19.998  0.00  0.00    -0.204 F 
ATOM     22  F   UNL     1      34.743 -17.494 -24.824  0.00  0.00    -0.202 F 
ATOM     23  F   UNL     1      35.726 -18.782 -22.623  0.00  0.00    -0.202 F 
ATOM     24  C   UNL     1      34.379 -14.900 -22.308  0.00  0.00    +0.005 C 
ATOM     25  C   UNL     1      34.879 -15.550 -21.184  0.00  0.00    +0.138 C 
ATOM     26  C   UNL     1      34.331 -15.549 -23.537  0.00  0.00    +0.030 C 
ATOM     27  C   UNL     1      34.787 -16.863 -23.644  0.00  0.00    +0.167 C 
ATOM     28  C   UNL     1      35.335 -16.863 -21.291  0.00  0.00    +0.061 C 
ATOM     29  C   UNL     1      35.290 -17.520 -22.520  0.00  0.00    +0.170 C 
ENDBRANCH   3  24
BRANCH   4  30
ATOM     30  N   UNL     1      32.172 -14.007 -20.475  0.00  0.00    +0.382 N 
ATOM     31  H   UNL     1      32.881 -14.725 -20.326  0.00  0.00    -0.089 HD
ATOM     32  H   UNL     1      31.246 -14.435 -20.457  0.00  0.00    -0.089 HD
ATOM     33  H   UNL     1      32.237 -13.306 -19.737  0.00  0.00    -0.089 HD
ENDBRANCH   4  30
TORSDOF 4
ENDMDL
MODEL 6
REMARK VINA RESULT:     -11.1      7.119     10.952
REMARK  Name = 11538992
REMARK  4 active torsions:
REMARK  status: ('A' for Active; 'I' for Inactive)
REMARK    1  A    between atoms: C_1  and  N_7
REMARK    2  A    between atoms: C_3  and  C_24
REMARK    3  A    between atoms: C_4  and  N_30
REMARK    4  A    between atoms: C_15  and  C_20
REMARK                            x       y       z     vdW  Elec       q    Type
REMARK                         _______ _______ _______ _____ _____    ______ ____
ROOT
ATOM      1  C   UNL     1      36.002 -20.907 -18.364  0.00  0.00    -0.059 C 
ATOM      2  C   UNL     1      34.680 -21.187 -19.087  0.00  0.00    -0.042 C 
ATOM      3  C   UNL     1      35.481 -19.818 -21.079  0.00  0.00    +0.005 C 
ATOM      4  C   UNL     1      34.328 -20.057 -20.070  0.00  0.00    -0.064 C 
ATOM      5  C   UNL     1      37.140 -20.690 -19.364  0.00  0.00    -0.021 C 
ATOM      6  C   UNL     1      36.811 -19.565 -20.343  0.00  0.00    +0.000 C 
ENDROOT
BRANCH   1   7
ATOM      7  N   UNL     1      36.328 -22.024 -17.478  0.00  0.00    +0.394 N 
ATOM      8  N   UNL     1      36.648 -23.661 -15.248  0.00  0.00    -0.299 N 
ATOM      9  N   UNL     1      34.641 -24.514 -15.297  0.00  0.00    -0.136 NA
ATOM     10  N   UNL     1      35.395 -25.197 -14.356  0.00  0.00    -0.125 NA
ATOM     11  C   UNL     1      37.301 -21.610 -16.450  0.00  0.00    -0.052 C 
ATOM     12  C   UNL     1      35.101 -22.565 -16.858  0.00  0.00    -0.009 C 
ATOM     13  C   UNL     1      37.761 -22.822 -15.626  0.00  0.00    +0.086 C 
ATOM     14  C   UNL     1      35.414 -23.592 -15.830  0.00  0.00    +0.122 A 
ATOM     15  C   UNL     1      36.600 -24.667 -14.345  0.00  0.00    +0.238 A 
ATOM     16  H   UNL     1      36.758 -22.763 -18.035  0.00  0.00    -0.079 HD
BRANCH  15  20
ATOM     17  F   UNL     1      38.886 -25.363 -14.220  0.00  0.00    -0.163 F 
ATOM     18  F   UNL     1      38.141 -24.132 -12.596  0.00  0.00    -0.163 F 
ATOM     19  F   UNL     1      37.501 -26.204 -12.770  0.00  0.00    -0.163 F 
ATOM     20  C   UNL     1      37.744 -25.076 -13.513  0.00  0.00    +0.452 C 
ENDBRANCH  15  20
ENDBRANCH   1   7
BRANCH   3  24
ATOM     21  F   UNL     1      34.705 -20.251 -23.775  0.00  0.00    -0.204 F 
ATOM     22  F   UNL     1      35.167 -15.055 -22.131  0.00  0.00    -0.202 F 
ATOM     23  F   UNL     1      34.428 -15.619 -24.700  0.00  0.00    -0.202 F 
ATOM     24  C   UNL     1      35.197 -18.687 -22.059  0.00  0.00    +0.005 C 
ATOM     25  C   UNL     1      34.821 -18.980 -23.366  0.00  0.00    +0.138 C 
ATOM     26  C   UNL     1      35.315 -17.367 -21.637  0.00  0.00    +0.030 C 
ATOM     27  C   UNL     1      35.055 -16.328 -22.530  0.00  0.00    +0.167 C 
ATOM     28  C   UNL     1      34.561 -17.942 -24.259  0.00  0.00    +0.061 C 
ATOM     29  C   UNL     1      34.679 -16.617 -23.843  0.00  0.00    +0.170 C 
ENDBRANCH   3  24
BRANCH   4  30
ATOM     30  N   UNL     1      33.084 -20.393 -20.772  0.00  0.00    +0.382 N 
ATOM     31  H   UNL     1      32.924 -19.718 -21.520  0.00  0.00    -0.089 HD
ATOM     32  H   UNL     1      32.305 -20.364 -20.115  0.00  0.00    -0.089 HD
ATOM     33  H   UNL     1      33.161 -21.329 -21.170  0.00  0.00    -0.089 HD
ENDBRANCH   4  30
TORSDOF 4
ENDMDL
MODEL 7
REMARK VINA RESULT:     -10.8      1.722      2.991
REMARK  Name = 11538992
REMARK  4 active torsions:
REMARK  status: ('A' for Active; 'I' for Inactive)
REMARK    1  A    between atoms: C_1  and  N_7
REMARK    2  A    between atoms: C_3  and  C_24
REMARK    3  A    between atoms: C_4  and  N_30
REMARK    4  A    between atoms: C_15  and  C_20
REMARK                            x       y       z     vdW  Elec       q    Type
REMARK                         _______ _______ _______ _____ _____    ______ ____
ROOT
ATOM      1  C   UNL     1      32.488 -11.798 -22.653  0.00  0.00    -0.059 C 
ATOM      2  C   UNL     1      33.683 -10.932 -23.060  0.00  0.00    -0.042 C 
ATOM      3  C   UNL     1      32.670  -8.951 -21.822  0.00  0.00    +0.005 C 
ATOM      4  C   UNL     1      33.295  -9.446 -23.153  0.00  0.00    -0.064 C 
ATOM      5  C   UNL     1      31.886 -11.317 -21.330  0.00  0.00    -0.021 C 
ATOM      6  C   UNL     1      31.486  -9.845 -21.407  0.00  0.00    +0.000 C 
ENDROOT
BRANCH   1   7
ATOM      7  N   UNL     1      32.906 -13.194 -22.527  0.00  0.00    +0.394 N 
ATOM      8  N   UNL     1      34.421 -15.522 -22.329  0.00  0.00    -0.299 N 
ATOM      9  N   UNL     1      34.728 -15.417 -20.172  0.00  0.00    -0.136 NA
ATOM     10  N   UNL     1      35.190 -16.641 -20.631  0.00  0.00    -0.125 NA
ATOM     11  C   UNL     1      33.681 -13.618 -23.708  0.00  0.00    -0.052 C 
ATOM     12  C   UNL     1      33.686 -13.388 -21.286  0.00  0.00    -0.009 C 
ATOM     13  C   UNL     1      33.978 -15.124 -23.644  0.00  0.00    +0.086 C 
ATOM     14  C   UNL     1      34.263 -14.756 -21.210  0.00  0.00    +0.122 A 
ATOM     15  C   UNL     1      34.994 -16.682 -21.932  0.00  0.00    +0.238 A 
ATOM     16  H   UNL     1      32.071 -13.778 -22.474  0.00  0.00    -0.079 HD
BRANCH  15  20
ATOM     17  F   UNL     1      34.446 -18.850 -22.781  0.00  0.00    -0.163 F 
ATOM     18  F   UNL     1      35.330 -17.442 -24.174  0.00  0.00    -0.163 F 
ATOM     19  F   UNL     1      36.553 -18.341 -22.616  0.00  0.00    -0.163 F 
ATOM     20  C   UNL     1      35.317 -17.791 -22.845  0.00  0.00    +0.452 C 
ENDBRANCH  15  20
ENDBRANCH   1   7
BRANCH   3  24
ATOM     21  F   UNL     1      33.403  -7.049 -19.848  0.00  0.00    -0.204 F 
ATOM     22  F   UNL     1      30.287  -5.267 -23.975  0.00  0.00    -0.202 F 
ATOM     23  F   UNL     1      31.067  -3.543 -22.004  0.00  0.00    -0.202 F 
ATOM     24  C   UNL     1      32.238  -7.492 -21.869  0.00  0.00    +0.005 C 
ATOM     25  C   UNL     1      32.639  -6.619 -20.862  0.00  0.00    +0.138 C 
ATOM     26  C   UNL     1      31.446  -7.042 -22.920  0.00  0.00    +0.030 C 
ATOM     27  C   UNL     1      31.049  -5.706 -22.966  0.00  0.00    +0.167 C 
ATOM     28  C   UNL     1      32.241  -5.283 -20.908  0.00  0.00    +0.061 C 
ATOM     29  C   UNL     1      31.447  -4.826 -21.959  0.00  0.00    +0.170 C 
ENDBRANCH   3  24
BRANCH   4  30
ATOM     30  N   UNL     1      34.481  -8.654 -23.496  0.00  0.00    +0.382 N 
ATOM     31  H   UNL     1      34.896  -8.277 -22.644  0.00  0.00    -0.089 HD
ATOM     32  H   UNL     1      34.210  -7.886 -24.111  0.00  0.00    -0.089 HD
ATOM     33  H   UNL     1      35.160  -9.247 -23.972  0.00  0.00    -0.089 HD
ENDBRANCH   4  30
TORSDOF 4
ENDMDL
MODEL 8
REMARK VINA RESULT:     -10.8      2.389      9.892
REMARK  Name = 11538992
REMARK  4 active torsions:
REMARK  status: ('A' for Active; 'I' for Inactive)
REMARK    1  A    between atoms: C_1  and  N_7
REMARK    2  A    between atoms: C_3  and  C_24
REMARK    3  A    between atoms: C_4  and  N_30
REMARK    4  A    between atoms: C_15  and  C_20
REMARK                            x       y       z     vdW  Elec       q    Type
REMARK                         _______ _______ _______ _____ _____    ______ ____
ROOT
ATOM      1  C   UNL     1      32.588 -10.732 -23.316  0.00  0.00    -0.059 C 
ATOM      2  C   UNL     1      32.233 -11.548 -22.068  0.00  0.00    -0.042 C 
ATOM      3  C   UNL     1      33.975 -13.289 -22.713  0.00  0.00    +0.005 C 
ATOM      4  C   UNL     1      32.506 -13.047 -22.282  0.00  0.00    -0.064 C 
ATOM      5  C   UNL     1      34.045 -10.961 -23.726  0.00  0.00    -0.021 C 
ATOM      6  C   UNL     1      34.330 -12.444 -23.952  0.00  0.00    +0.000 C 
ENDROOT
BRANCH   1   7
ATOM      7  N   UNL     1      32.364  -9.310 -23.058  0.00  0.00    +0.394 N 
ATOM      8  N   UNL     1      31.558  -6.891 -21.939  0.00  0.00    -0.299 N 
ATOM      9  N   UNL     1      33.244  -6.695 -20.569  0.00  0.00    -0.136 NA
ATOM     10  N   UNL     1      32.514  -5.517 -20.552  0.00  0.00    -0.125 NA
ATOM     11  C   UNL     1      30.923  -9.000 -23.047  0.00  0.00    -0.052 C 
ATOM     12  C   UNL     1      33.001  -8.910 -21.786  0.00  0.00    -0.009 C 
ATOM     13  C   UNL     1      30.700  -7.484 -22.938  0.00  0.00    +0.086 C 
ATOM     14  C   UNL     1      32.655  -7.513 -21.416  0.00  0.00    +0.122 A 
ATOM     15  C   UNL     1      31.505  -5.658 -21.385  0.00  0.00    +0.238 A 
ATOM     16  H   UNL     1      32.794  -8.774 -23.813  0.00  0.00    -0.079 HD
BRANCH  15  20
ATOM     17  F   UNL     1      30.678  -3.426 -21.138  0.00  0.00    -0.163 F 
ATOM     18  F   UNL     1      30.327  -4.401 -23.045  0.00  0.00    -0.163 F 
ATOM     19  F   UNL     1      29.214  -5.028 -21.284  0.00  0.00    -0.163 F 
ATOM     20  C   UNL     1      30.469  -4.661 -21.703  0.00  0.00    +0.452 C 
ENDBRANCH  15  20
ENDBRANCH   1   7
BRANCH   3  24
ATOM     21  F   UNL     1      33.265 -14.642 -25.105  0.00  0.00    -0.204 F 
ATOM     22  F   UNL     1      35.899 -17.554 -21.298  0.00  0.00    -0.202 F 
ATOM     23  F   UNL     1      35.155 -18.729 -23.650  0.00  0.00    -0.202 F 
ATOM     24  C   UNL     1      34.292 -14.757 -22.968  0.00  0.00    +0.005 C 
ATOM     25  C   UNL     1      33.910 -15.350 -24.168  0.00  0.00    +0.138 C 
ATOM     26  C   UNL     1      34.962 -15.494 -21.998  0.00  0.00    +0.030 C 
ATOM     27  C   UNL     1      35.254 -16.839 -22.228  0.00  0.00    +0.167 C 
ATOM     28  C   UNL     1      34.202 -16.694 -24.398  0.00  0.00    +0.061 C 
ATOM     29  C   UNL     1      34.873 -17.438 -23.428  0.00  0.00    +0.170 C 
ENDBRANCH   3  24
BRANCH   4  30
ATOM     30  N   UNL     1      32.199 -13.778 -21.048  0.00  0.00    +0.382 N 
ATOM     31  H   UNL     1      31.836 -13.129 -20.350  0.00  0.00    -0.089 HD
ATOM     32  H   UNL     1      33.048 -14.218 -20.694  0.00  0.00    -0.089 HD
ATOM     33  H   UNL     1      31.499 -14.494 -21.242  0.00  0.00    -0.089 HD
ENDBRANCH   4  30
TORSDOF 4
ENDMDL
MODEL 9
REMARK VINA RESULT:     -10.7      2.428      9.732
REMARK  Name = 11538992
REMARK  4 active torsions:
REMARK  status: ('A' for Active; 'I' for Inactive)
REMARK    1  A    between atoms: C_1  and  N_7
REMARK    2  A    between atoms: C_3  and  C_24
REMARK    3  A    between atoms: C_4  and  N_30
REMARK    4  A    between atoms: C_15  and  C_20
REMARK                            x       y       z     vdW  Elec       q    Type
REMARK                         _______ _______ _______ _____ _____    ______ ____
ROOT
ATOM      1  C   UNL     1      32.284 -11.126 -23.215  0.00  0.00    -0.059 C 
ATOM      2  C   UNL     1      32.092 -11.874 -21.892  0.00  0.00    -0.042 C 
ATOM      3  C   UNL     1      33.941 -13.499 -22.542  0.00  0.00    +0.005 C 
ATOM      4  C   UNL     1      32.487 -13.355 -22.022  0.00  0.00    -0.064 C 
ATOM      5  C   UNL     1      33.726 -11.255 -23.715  0.00  0.00    -0.021 C 
ATOM      6  C   UNL     1      34.132 -12.721 -23.859  0.00  0.00    +0.000 C 
ENDROOT
BRANCH   1   7
ATOM      7  N   UNL     1      31.947  -9.713 -23.039  0.00  0.00    +0.394 N 
ATOM      8  N   UNL     1      32.086  -6.969 -22.589  0.00  0.00    -0.299 N 
ATOM      9  N   UNL     1      32.560  -6.420 -24.647  0.00  0.00    -0.136 NA
ATOM     10  N   UNL     1      32.304  -5.266 -23.923  0.00  0.00    -0.125 NA
ATOM     11  C   UNL     1      32.312  -9.252 -21.687  0.00  0.00    -0.052 C 
ATOM     12  C   UNL     1      32.610  -8.893 -24.075  0.00  0.00    -0.009 C 
ATOM     13  C   UNL     1      31.810  -7.819 -21.454  0.00  0.00    +0.086 C 
ATOM     14  C   UNL     1      32.419  -7.440 -23.827  0.00  0.00    +0.122 A 
ATOM     15  C   UNL     1      32.020  -5.621 -22.688  0.00  0.00    +0.238 A 
ATOM     16  H   UNL     1      30.938  -9.607 -23.144  0.00  0.00    -0.079 HD
BRANCH  15  20
ATOM     17  F   UNL     1      31.803  -3.395 -21.839  0.00  0.00    -0.163 F 
ATOM     18  F   UNL     1      30.375  -4.863 -21.125  0.00  0.00    -0.163 F 
ATOM     19  F   UNL     1      32.441  -4.940 -20.449  0.00  0.00    -0.163 F 
ATOM     20  C   UNL     1      31.670  -4.734 -21.565  0.00  0.00    +0.452 C 
ENDBRANCH  15  20
ENDBRANCH   1   7
BRANCH   3  24
ATOM     21  F   UNL     1      33.577 -14.949 -24.955  0.00  0.00    -0.204 F 
ATOM     22  F   UNL     1      35.966 -17.595 -20.807  0.00  0.00    -0.202 F 
ATOM     23  F   UNL     1      35.554 -18.869 -23.188  0.00  0.00    -0.202 F 
ATOM     24  C   UNL     1      34.374 -14.948 -22.719  0.00  0.00    +0.005 C 
ATOM     25  C   UNL     1      34.162 -15.592 -23.934  0.00  0.00    +0.138 C 
ATOM     26  C   UNL     1      34.982 -15.618 -21.662  0.00  0.00    +0.030 C 
ATOM     27  C   UNL     1      35.381 -16.945 -21.820  0.00  0.00    +0.167 C 
ATOM     28  C   UNL     1      34.560 -16.919 -24.092  0.00  0.00    +0.061 C 
ATOM     29  C   UNL     1      35.169 -17.595 -23.036  0.00  0.00    +0.170 C 
ENDBRANCH   3  24
BRANCH   4  30
ATOM     30  N   UNL     1      32.333 -14.016 -20.721  0.00  0.00    +0.382 N 
ATOM     31  H   UNL     1      33.229 -14.408 -20.431  0.00  0.00    -0.089 HD
ATOM     32  H   UNL     1      31.644 -14.764 -20.800  0.00  0.00    -0.089 HD
ATOM     33  H   UNL     1      32.020 -13.335 -20.029  0.00  0.00    -0.089 HD
ENDBRANCH   4  30
TORSDOF 4
ENDMDL
