MODEL 1
REMARK VINA RESULT:     -11.0      0.000      0.000
REMARK  Name = 23624249
REMARK  4 active torsions:
REMARK  status: ('A' for Active; 'I' for Inactive)
REMARK    1  A    between atoms: N_5  and  C_17
REMARK    2  A    between atoms: C_7  and  C_29
REMARK    3  A    between atoms: C_18  and  C_23
REMARK    4  A    between atoms: C_23  and  C_25
REMARK                            x       y       z     vdW  Elec       q    Type
REMARK                         _______ _______ _______ _____ _____    ______ ____
ROOT
ATOM      1  N   UNL     1      33.972 -22.112 -18.373  0.00  0.00    -0.239 N 
ATOM      2  N   UNL     1      33.991 -22.544 -17.100  0.00  0.00    -0.166 NA
ATOM      3  N   UNL     1      35.813 -22.736 -15.551  0.00  0.00    -0.275 N 
ATOM      4  N   UNL     1      33.923 -23.503 -14.322  0.00  0.00    -0.317 NA
ATOM      5  N   UNL     1      32.086 -24.266 -13.077  0.00  0.00    -0.238 N 
ATOM      6  N   UNL     1      34.191 -24.231 -12.041  0.00  0.00    -0.317 NA
ATOM      7  C   UNL     1      35.193 -21.727 -18.843  0.00  0.00    +0.045 C 
ATOM      8  C   UNL     1      36.072 -21.918 -17.804  0.00  0.00    +0.048 C 
ATOM      9  C   UNL     1      35.259 -22.411 -16.799  0.00  0.00    +0.152 C 
ATOM     10  C   UNL     1      35.247 -23.246 -14.357  0.00  0.00    +0.184 C 
ATOM     11  C   UNL     1      36.097 -23.453 -13.288  0.00  0.00    +0.151 C 
ATOM     12  C   UNL     1      33.464 -23.986 -13.150  0.00  0.00    +0.205 C 
ATOM     13  C   UNL     1      35.507 -23.951 -12.145  0.00  0.00    +0.179 C 
ATOM     14  H   UNL     1      33.153 -22.077 -18.917  0.00  0.00    +0.174 HD
ATOM     15  H   UNL     1      36.783 -22.577 -15.493  0.00  0.00    +0.156 HD
ATOM     16  H   UNL     1      31.799 -24.615 -12.204  0.00  0.00    +0.166 HD
ATOM     17  N   UNL     1      36.343 -24.177 -11.025  0.00  0.00    -0.309 N 
ATOM     18  C   UNL     1      35.852 -24.689  -9.787  0.00  0.00    +0.110 C 
ATOM     19  H   UNL     1      37.303 -23.975 -11.104  0.00  0.00    +0.149 HD
ENDROOT
BRANCH   5  20
ATOM     20  C   UNL     1      31.037 -24.143 -14.012  0.00  0.00    +0.058 C 
ATOM     21  C   UNL     1      28.959 -23.902 -15.858  0.00  0.00    -0.007 C 
ATOM     22  C   UNL     1      30.712 -22.893 -14.538  0.00  0.00    +0.015 C 
ATOM     23  C   UNL     1      30.322 -25.274 -14.408  0.00  0.00    +0.015 C 
ATOM     24  C   UNL     1      29.673 -22.772 -15.461  0.00  0.00    -0.002 C 
ATOM     25  C   UNL     1      29.284 -25.153 -15.332  0.00  0.00    -0.002 C 
BRANCH  21  26
ATOM     26  C   UNL     1      27.848 -23.774 -16.846  0.00  0.00    +0.132 C 
BRANCH  26  28
ATOM     27  N   UNL     1      26.715 -21.396 -16.799  0.00  0.00    -0.196 NA
ATOM     28  C   UNL     1      27.218 -22.442 -16.818  0.00  0.00    +0.078 C 
ENDBRANCH  26  28
ENDBRANCH  21  26
ENDBRANCH   5  20
BRANCH   7  29
ATOM     29  C   UNL     1      35.507 -21.193 -20.234  0.00  0.00    +0.037 C 
ATOM     30  C   UNL     1      36.269 -19.899 -20.370  0.00  0.00    +0.006 C 
ATOM     31  C   UNL     1      34.810 -19.947 -20.719  0.00  0.00    +0.006 C 
ENDBRANCH   7  29
TORSDOF 4
ENDMDL
MODEL 2
REMARK VINA RESULT:     -10.8      1.839      6.424
REMARK  Name = 23624249
REMARK  4 active torsions:
REMARK  status: ('A' for Active; 'I' for Inactive)
REMARK    1  A    between atoms: N_5  and  C_17
REMARK    2  A    between atoms: C_7  and  C_29
REMARK    3  A    between atoms: C_18  and  C_23
REMARK    4  A    between atoms: C_23  and  C_25
REMARK                            x       y       z     vdW  Elec       q    Type
REMARK                         _______ _______ _______ _____ _____    ______ ____
ROOT
ATOM      1  N   UNL     1      30.559 -22.937 -16.492  0.00  0.00    -0.239 N 
ATOM      2  N   UNL     1      31.839 -23.084 -16.110  0.00  0.00    -0.166 NA
ATOM      3  N   UNL     1      32.772 -24.153 -14.176  0.00  0.00    -0.275 N 
ATOM      4  N   UNL     1      34.671 -23.353 -15.369  0.00  0.00    -0.317 NA
ATOM      5  N   UNL     1      36.568 -22.581 -16.514  0.00  0.00    -0.238 N 
ATOM      6  N   UNL     1      36.884 -23.734 -14.496  0.00  0.00    -0.317 NA
ATOM      7  C   UNL     1      29.659 -23.489 -15.628  0.00  0.00    +0.045 C 
ATOM      8  C   UNL     1      30.403 -24.037 -14.612  0.00  0.00    +0.048 C 
ATOM      9  C   UNL     1      31.702 -23.744 -14.988  0.00  0.00    +0.152 C 
ATOM     10  C   UNL     1      34.175 -24.004 -14.296  0.00  0.00    +0.184 C 
ATOM     11  C   UNL     1      34.960 -24.541 -13.295  0.00  0.00    +0.151 C 
ATOM     12  C   UNL     1      36.015 -23.255 -15.408  0.00  0.00    +0.205 C 
ATOM     13  C   UNL     1      36.321 -24.375 -13.449  0.00  0.00    +0.179 C 
ATOM     14  H   UNL     1      30.294 -22.473 -17.319  0.00  0.00    +0.174 HD
ATOM     15  H   UNL     1      32.493 -24.638 -13.366  0.00  0.00    +0.156 HD
ATOM     16  H   UNL     1      37.550 -22.536 -16.499  0.00  0.00    +0.166 HD
ATOM     17  N   UNL     1      37.162 -24.911 -12.444  0.00  0.00    -0.309 N 
ATOM     18  C   UNL     1      38.584 -24.804 -12.491  0.00  0.00    +0.110 C 
ATOM     19  H   UNL     1      36.748 -25.375 -11.682  0.00  0.00    +0.149 HD
ENDROOT
BRANCH   5  20
ATOM     20  C   UNL     1      35.989 -21.959 -17.640  0.00  0.00    +0.058 C 
ATOM     21  C   UNL     1      34.846 -20.728 -19.868  0.00  0.00    -0.007 C 
ATOM     22  C   UNL     1      34.659 -22.215 -17.973  0.00  0.00    +0.015 C 
ATOM     23  C   UNL     1      36.748 -21.086 -18.421  0.00  0.00    +0.015 C 
ATOM     24  C   UNL     1      34.088 -21.601 -19.087  0.00  0.00    -0.002 C 
ATOM     25  C   UNL     1      36.176 -20.471 -19.534  0.00  0.00    -0.002 C 
BRANCH  21  26
ATOM     26  C   UNL     1      34.235 -20.069 -21.059  0.00  0.00    +0.132 C 
BRANCH  26  28
ATOM     27  N   UNL     1      35.772 -18.186 -22.074  0.00  0.00    -0.196 NA
ATOM     28  C   UNL     1      35.097 -19.019 -21.628  0.00  0.00    +0.078 C 
ENDBRANCH  26  28
ENDBRANCH  21  26
ENDBRANCH   5  20
BRANCH   7  29
ATOM     29  C   UNL     1      28.143 -23.494 -15.771  0.00  0.00    +0.037 C 
ATOM     30  C   UNL     1      27.494 -22.551 -16.753  0.00  0.00    +0.006 C 
ATOM     31  C   UNL     1      27.354 -22.307 -15.278  0.00  0.00    +0.006 C 
ENDBRANCH   7  29
TORSDOF 4
ENDMDL
MODEL 3
REMARK VINA RESULT:     -10.8      2.399      6.520
REMARK  Name = 23624249
REMARK  4 active torsions:
REMARK  status: ('A' for Active; 'I' for Inactive)
REMARK    1  A    between atoms: N_5  and  C_17
REMARK    2  A    between atoms: C_7  and  C_29
REMARK    3  A    between atoms: C_18  and  C_23
REMARK    4  A    between atoms: C_23  and  C_25
REMARK                            x       y       z     vdW  Elec       q    Type
REMARK                         _______ _______ _______ _____ _____    ______ ____
ROOT
ATOM      1  N   UNL     1      35.717 -21.611 -18.832  0.00  0.00    -0.239 N 
ATOM      2  N   UNL     1      34.934 -22.219 -17.924  0.00  0.00    -0.166 NA
ATOM      3  N   UNL     1      32.544 -22.322 -17.753  0.00  0.00    -0.275 N 
ATOM      4  N   UNL     1      33.313 -23.585 -15.888  0.00  0.00    -0.317 NA
ATOM      5  N   UNL     1      34.031 -24.838 -14.038  0.00  0.00    -0.238 N 
ATOM      6  N   UNL     1      31.723 -24.593 -14.384  0.00  0.00    -0.317 NA
ATOM      7  C   UNL     1      35.025 -20.951 -19.804  0.00  0.00    +0.045 C 
ATOM      8  C   UNL     1      33.696 -21.142 -19.512  0.00  0.00    +0.048 C 
ATOM      9  C   UNL     1      33.740 -21.915 -18.366  0.00  0.00    +0.152 C 
ATOM     10  C   UNL     1      32.275 -23.100 -16.601  0.00  0.00    +0.184 C 
ATOM     11  C   UNL     1      30.952 -23.315 -16.272  0.00  0.00    +0.151 C 
ATOM     12  C   UNL     1      32.973 -24.315 -14.806  0.00  0.00    +0.205 C 
ATOM     13  C   UNL     1      30.733 -24.077 -15.143  0.00  0.00    +0.179 C 
ATOM     14  H   UNL     1      36.700 -21.639 -18.799  0.00  0.00    +0.174 HD
ATOM     15  H   UNL     1      31.733 -22.005 -18.215  0.00  0.00    +0.156 HD
ATOM     16  H   UNL     1      33.733 -25.363 -13.261  0.00  0.00    +0.166 HD
ATOM     17  N   UNL     1      29.389 -24.322 -14.771  0.00  0.00    -0.309 N 
ATOM     18  C   UNL     1      29.035 -25.095 -13.625  0.00  0.00    +0.110 C 
ATOM     19  H   UNL     1      28.670 -23.943 -15.325  0.00  0.00    +0.149 HD
ENDROOT
BRANCH   5  20
ATOM     20  C   UNL     1      35.433 -24.757 -14.165  0.00  0.00    +0.058 C 
ATOM     21  C   UNL     1      38.207 -24.599 -14.418  0.00  0.00    -0.007 C 
ATOM     22  C   UNL     1      36.091 -23.558 -13.896  0.00  0.00    +0.015 C 
ATOM     23  C   UNL     1      36.163 -25.879 -14.561  0.00  0.00    +0.015 C 
ATOM     24  C   UNL     1      37.478 -23.477 -14.023  0.00  0.00    -0.002 C 
ATOM     25  C   UNL     1      37.549 -25.800 -14.687  0.00  0.00    -0.002 C 
BRANCH  21  26
ATOM     26  C   UNL     1      39.690 -24.514 -14.553  0.00  0.00    +0.132 C 
BRANCH  26  28
ATOM     27  N   UNL     1      40.891 -26.796 -14.011  0.00  0.00    -0.196 NA
ATOM     28  C   UNL     1      40.359 -25.792 -14.247  0.00  0.00    +0.078 C 
ENDBRANCH  26  28
ENDBRANCH  21  26
ENDBRANCH   5  20
BRANCH   7  29
ATOM     29  C   UNL     1      35.613 -20.168 -20.970  0.00  0.00    +0.037 C 
ATOM     30  C   UNL     1      36.672 -19.130 -20.699  0.00  0.00    +0.006 C 
ATOM     31  C   UNL     1      35.292 -18.701 -21.107  0.00  0.00    +0.006 C 
ENDBRANCH   7  29
TORSDOF 4
ENDMDL
MODEL 4
REMARK VINA RESULT:     -10.7      1.175      1.243
REMARK  Name = 23624249
REMARK  4 active torsions:
REMARK  status: ('A' for Active; 'I' for Inactive)
REMARK    1  A    between atoms: N_5  and  C_17
REMARK    2  A    between atoms: C_7  and  C_29
REMARK    3  A    between atoms: C_18  and  C_23
REMARK    4  A    between atoms: C_23  and  C_25
REMARK                            x       y       z     vdW  Elec       q    Type
REMARK                         _______ _______ _______ _____ _____    ______ ____
ROOT
ATOM      1  N   UNL     1      33.797 -21.808 -18.779  0.00  0.00    -0.239 N 
ATOM      2  N   UNL     1      34.138 -22.339 -17.592  0.00  0.00    -0.166 NA
ATOM      3  N   UNL     1      36.270 -22.462 -16.500  0.00  0.00    -0.275 N 
ATOM      4  N   UNL     1      34.778 -23.526 -14.980  0.00  0.00    -0.317 NA
ATOM      5  N   UNL     1      33.340 -24.581 -13.455  0.00  0.00    -0.238 N 
ATOM      6  N   UNL     1      35.613 -24.407 -12.899  0.00  0.00    -0.317 NA
ATOM      7  C   UNL     1      34.843 -21.257 -19.458  0.00  0.00    +0.045 C 
ATOM      8  C   UNL     1      35.946 -21.438 -18.659  0.00  0.00    +0.048 C 
ATOM      9  C   UNL     1      35.425 -22.097 -17.560  0.00  0.00    +0.152 C 
ATOM     10  C   UNL     1      36.034 -23.127 -15.272  0.00  0.00    +0.184 C 
ATOM     11  C   UNL     1      37.116 -23.330 -14.440  0.00  0.00    +0.151 C 
ATOM     12  C   UNL     1      34.637 -24.150 -13.794  0.00  0.00    +0.205 C 
ATOM     13  C   UNL     1      36.843 -23.980 -13.254  0.00  0.00    +0.179 C 
ATOM     14  H   UNL     1      32.876 -21.816 -19.127  0.00  0.00    +0.174 HD
ATOM     15  H   UNL     1      37.211 -22.206 -16.637  0.00  0.00    +0.156 HD
ATOM     16  H   UNL     1      33.288 -25.030 -12.582  0.00  0.00    +0.166 HD
ATOM     17  N   UNL     1      37.926 -24.208 -12.370  0.00  0.00    -0.309 N 
ATOM     18  C   UNL     1      37.771 -24.869 -11.116  0.00  0.00    +0.110 C 
ATOM     19  H   UNL     1      38.822 -23.898 -12.633  0.00  0.00    +0.149 HD
ENDROOT
BRANCH   5  20
ATOM     20  C   UNL     1      32.101 -24.494 -14.124  0.00  0.00    +0.058 C 
ATOM     21  C   UNL     1      29.649 -24.323 -15.444  0.00  0.00    -0.007 C 
ATOM     22  C   UNL     1      31.879 -23.480 -15.055  0.00  0.00    +0.015 C 
ATOM     23  C   UNL     1      31.097 -25.424 -13.852  0.00  0.00    +0.015 C 
ATOM     24  C   UNL     1      30.653 -23.394 -15.715  0.00  0.00    -0.002 C 
ATOM     25  C   UNL     1      29.871 -25.339 -14.512  0.00  0.00    -0.002 C 
BRANCH  21  26
ATOM     26  C   UNL     1      28.338 -24.233 -16.149  0.00  0.00    +0.132 C 
BRANCH  26  28
ATOM     27  N   UNL     1      27.570 -21.745 -16.553  0.00  0.00    -0.196 NA
ATOM     28  C   UNL     1      27.912 -22.840 -16.374  0.00  0.00    +0.078 C 
ENDBRANCH  26  28
ENDBRANCH  21  26
ENDBRANCH   5  20
BRANCH   7  29
ATOM     29  C   UNL     1      34.790 -20.579 -20.821  0.00  0.00    +0.037 C 
ATOM     30  C   UNL     1      35.794 -19.503 -21.147  0.00  0.00    +0.006 C 
ATOM     31  C   UNL     1      34.357 -19.137 -20.910  0.00  0.00    +0.006 C 
ENDBRANCH   7  29
TORSDOF 4
ENDMDL
MODEL 5
REMARK VINA RESULT:      -8.6      2.031      7.930
REMARK  Name = 23624249
REMARK  4 active torsions:
REMARK  status: ('A' for Active; 'I' for Inactive)
REMARK    1  A    between atoms: N_5  and  C_17
REMARK    2  A    between atoms: C_7  and  C_29
REMARK    3  A    between atoms: C_18  and  C_23
REMARK    4  A    between atoms: C_23  and  C_25
REMARK                            x       y       z     vdW  Elec       q    Type
REMARK                         _______ _______ _______ _____ _____    ______ ____
ROOT
ATOM      1  N   UNL     1      31.920 -24.147 -14.754  0.00  0.00    -0.239 N 
ATOM      2  N   UNL     1      32.871 -23.575 -15.512  0.00  0.00    -0.166 NA
ATOM      3  N   UNL     1      32.697 -22.381 -17.585  0.00  0.00    -0.275 N 
ATOM      4  N   UNL     1      35.026 -22.353 -17.094  0.00  0.00    -0.317 NA
ATOM      5  N   UNL     1      37.329 -22.304 -16.645  0.00  0.00    -0.238 N 
ATOM      6  N   UNL     1      36.557 -21.261 -18.600  0.00  0.00    -0.317 NA
ATOM      7  C   UNL     1      30.660 -24.021 -15.261  0.00  0.00    +0.045 C 
ATOM      8  C   UNL     1      30.796 -23.315 -16.431  0.00  0.00    +0.048 C 
ATOM      9  C   UNL     1      32.160 -23.091 -16.499  0.00  0.00    +0.152 C 
ATOM     10  C   UNL     1      34.020 -22.003 -17.921  0.00  0.00    +0.184 C 
ATOM     11  C   UNL     1      34.200 -21.292 -19.091  0.00  0.00    +0.151 C 
ATOM     12  C   UNL     1      36.253 -21.956 -17.485  0.00  0.00    +0.205 C 
ATOM     13  C   UNL     1      35.503 -20.944 -19.382  0.00  0.00    +0.179 C 
ATOM     14  H   UNL     1      32.114 -24.616 -13.910  0.00  0.00    +0.174 HD
ATOM     15  H   UNL     1      32.022 -22.089 -18.240  0.00  0.00    +0.156 HD
ATOM     16  H   UNL     1      38.202 -21.992 -16.972  0.00  0.00    +0.166 HD
ATOM     17  N   UNL     1      35.732 -20.213 -20.573  0.00  0.00    -0.309 N 
ATOM     18  C   UNL     1      37.034 -19.794 -20.982  0.00  0.00    +0.110 C 
ATOM     19  H   UNL     1      34.963 -19.984 -21.142  0.00  0.00    +0.149 HD
ENDROOT
BRANCH   5  20
ATOM     20  C   UNL     1      37.399 -23.012 -15.427  0.00  0.00    +0.058 C 
ATOM     21  C   UNL     1      37.539 -24.411 -13.018  0.00  0.00    -0.007 C 
ATOM     22  C   UNL     1      36.429 -22.810 -14.445  0.00  0.00    +0.015 C 
ATOM     23  C   UNL     1      38.439 -23.914 -15.205  0.00  0.00    +0.015 C 
ATOM     24  C   UNL     1      36.500 -23.508 -13.240  0.00  0.00    -0.002 C 
ATOM     25  C   UNL     1      38.509 -24.614 -14.001  0.00  0.00    -0.002 C 
BRANCH  21  26
ATOM     26  C   UNL     1      37.614 -25.161 -11.730  0.00  0.00    +0.132 C 
BRANCH  26  28
ATOM     27  N   UNL     1      35.411 -24.949 -10.301  0.00  0.00    -0.196 NA
ATOM     28  C   UNL     1      36.380 -25.041 -10.934  0.00  0.00    +0.078 C 
ENDBRANCH  26  28
ENDBRANCH  21  26
ENDBRANCH   5  20
BRANCH   7  29
ATOM     29  C   UNL     1      29.372 -24.555 -14.647  0.00  0.00    +0.037 C 
ATOM     30  C   UNL     1      29.429 -25.256 -13.314  0.00  0.00    +0.006 C 
ATOM     31  C   UNL     1      29.160 -26.045 -14.562  0.00  0.00    +0.006 C 
ENDBRANCH   7  29
TORSDOF 4
ENDMDL
