MODEL 1
REMARK VINA RESULT:     -12.2      0.000      0.000
REMARK  Name = 5289109
REMARK  6 active torsions:
REMARK  status: ('A' for Active; 'I' for Inactive)
REMARK    1  A    between atoms: C_3  and  C_9
REMARK    2  A    between atoms: C_4  and  C_21
REMARK    3  A    between atoms: N_8  and  C_11
REMARK    4  A    between atoms: C_11  and  C_12
REMARK    5  A    between atoms: N_20  and  C_23
REMARK    6  A    between atoms: C_23  and  C_24
REMARK                            x       y       z     vdW  Elec       q    Type
REMARK                         _______ _______ _______ _____ _____    ______ ____
ROOT
ATOM      1  N   UNL     1      33.237 -14.185 -24.661  0.00  0.00    -0.244 NA
ATOM      2  N   UNL     1      34.433 -16.170 -24.004  0.00  0.00    -0.244 NA
ATOM      3  C   UNL     1      33.399 -13.717 -23.406  0.00  0.00    +0.115 C 
ATOM      4  C   UNL     1      34.543 -15.624 -22.791  0.00  0.00    +0.115 C 
ATOM      5  C   UNL     1      34.057 -14.408 -22.409  0.00  0.00    +0.100 C 
ATOM      6  C   UNL     1      33.772 -15.400 -24.887  0.00  0.00    +0.250 C 
ENDROOT
BRANCH   3   9
ATOM      7  O   UNL     1      33.404 -11.375 -23.533  0.00  0.00    -0.269 OA
ATOM      8  N   UNL     1      31.610 -12.371 -22.452  0.00  0.00    -0.296 N 
ATOM      9  C   UNL     1      32.830 -12.407 -23.141  0.00  0.00    +0.260 C 
ATOM     10  H   UNL     1      31.210 -13.224 -22.170  0.00  0.00    +0.150 HD
BRANCH   8  11
ATOM     11  C   UNL     1      30.907 -11.149 -22.135  0.00  0.00    +0.117 C 
BRANCH  11  12
ATOM     12  C   UNL     1      31.443 -10.500 -20.892  0.00  0.00    -0.003 C 
ATOM     13  C   UNL     1      31.949  -9.207 -20.955  0.00  0.00    -0.007 C 
ATOM     14  C   UNL     1      32.445  -8.603 -19.799  0.00  0.00    -0.022 C 
ATOM     15  C   UNL     1      31.427 -11.198 -19.689  0.00  0.00    -0.003 C 
ATOM     16  C   UNL     1      32.433  -9.296 -18.589  0.00  0.00    -0.004 C 
ATOM     17  C   UNL     1      31.923 -10.594 -18.534  0.00  0.00    -0.001 C 
ATOM     18  C   UNL     1      32.991  -7.216 -19.858  0.00  0.00    +0.031 C 
ENDBRANCH  11  12
ENDBRANCH   8  11
ENDBRANCH   3   9
BRANCH   4  21
ATOM     19  O   UNL     1      35.247 -16.138 -20.615  0.00  0.00    -0.269 OA
ATOM     20  N   UNL     1      35.915 -17.578 -22.306  0.00  0.00    -0.296 N 
ATOM     21  C   UNL     1      35.269 -16.458 -21.801  0.00  0.00    +0.260 C 
ATOM     22  H   UNL     1      35.876 -17.751 -23.274  0.00  0.00    +0.150 HD
BRANCH  20  23
ATOM     23  C   UNL     1      36.641 -18.499 -21.468  0.00  0.00    +0.117 C 
BRANCH  23  24
ATOM     24  C   UNL     1      35.739 -19.453 -20.760  0.00  0.00    -0.003 C 
ATOM     25  C   UNL     1      36.247 -20.278 -19.757  0.00  0.00    -0.007 C 
ATOM     26  C   UNL     1      35.403 -21.171 -19.094  0.00  0.00    -0.022 C 
ATOM     27  C   UNL     1      34.388 -19.519 -21.099  0.00  0.00    -0.003 C 
ATOM     28  C   UNL     1      34.052 -21.235 -19.434  0.00  0.00    -0.004 C 
ATOM     29  C   UNL     1      33.544 -20.410 -20.437  0.00  0.00    -0.001 C 
ATOM     30  C   UNL     1      35.945 -22.054 -18.022  0.00  0.00    +0.031 C 
ENDBRANCH  23  24
ENDBRANCH  20  23
ENDBRANCH   4  21
TORSDOF 6
ENDMDL
MODEL 2
REMARK VINA RESULT:     -12.2      0.054      9.148
REMARK  Name = 5289109
REMARK  6 active torsions:
REMARK  status: ('A' for Active; 'I' for Inactive)
REMARK    1  A    between atoms: C_3  and  C_9
REMARK    2  A    between atoms: C_4  and  C_21
REMARK    3  A    between atoms: N_8  and  C_11
REMARK    4  A    between atoms: C_11  and  C_12
REMARK    5  A    between atoms: N_20  and  C_23
REMARK    6  A    between atoms: C_23  and  C_24
REMARK                            x       y       z     vdW  Elec       q    Type
REMARK                         _______ _______ _______ _____ _____    ______ ____
ROOT
ATOM      1  N   UNL     1      34.431 -16.195 -24.026  0.00  0.00    -0.244 NA
ATOM      2  N   UNL     1      33.222 -14.221 -24.697  0.00  0.00    -0.244 NA
ATOM      3  C   UNL     1      34.548 -15.658 -22.793  0.00  0.00    +0.115 C 
ATOM      4  C   UNL     1      33.390 -13.774 -23.451  0.00  0.00    +0.115 C 
ATOM      5  C   UNL     1      34.037 -14.425 -22.442  0.00  0.00    +0.100 C 
ATOM      6  C   UNL     1      33.765 -15.433 -24.915  0.00  0.00    +0.250 C 
ENDROOT
BRANCH   3   9
ATOM      7  O   UNL     1      35.250 -16.156 -20.612  0.00  0.00    -0.269 OA
ATOM      8  N   UNL     1      35.934 -17.595 -22.297  0.00  0.00    -0.296 N 
ATOM      9  C   UNL     1      35.263 -16.463 -21.818  0.00  0.00    +0.260 C 
ATOM     10  H   UNL     1      35.905 -17.780 -23.263  0.00  0.00    +0.150 HD
BRANCH   8  11
ATOM     11  C   UNL     1      36.669 -18.507 -21.449  0.00  0.00    +0.117 C 
BRANCH  11  12
ATOM     12  C   UNL     1      35.761 -19.468 -20.738  0.00  0.00    -0.003 C 
ATOM     13  C   UNL     1      36.274 -20.287 -19.740  0.00  0.00    -0.007 C 
ATOM     14  C   UNL     1      35.429 -21.178 -19.077  0.00  0.00    -0.022 C 
ATOM     15  C   UNL     1      34.415 -19.527 -21.083  0.00  0.00    -0.003 C 
ATOM     16  C   UNL     1      34.078 -21.244 -19.418  0.00  0.00    -0.004 C 
ATOM     17  C   UNL     1      33.571 -20.418 -20.421  0.00  0.00    -0.001 C 
ATOM     18  C   UNL     1      35.972 -22.063 -18.005  0.00  0.00    +0.031 C 
ENDBRANCH  11  12
ENDBRANCH   8  11
ENDBRANCH   3   9
BRANCH   4  21
ATOM     19  O   UNL     1      33.352 -11.437 -23.639  0.00  0.00    -0.269 OA
ATOM     20  N   UNL     1      31.620 -12.427 -22.455  0.00  0.00    -0.296 N 
ATOM     21  C   UNL     1      32.798 -12.438 -23.189  0.00  0.00    +0.260 C 
ATOM     22  H   UNL     1      31.253 -13.283 -22.137  0.00  0.00    +0.150 HD
BRANCH  20  23
ATOM     23  C   UNL     1      30.913 -11.211 -22.141  0.00  0.00    +0.117 C 
BRANCH  23  24
ATOM     24  C   UNL     1      31.439 -10.551 -20.911  0.00  0.00    -0.003 C 
ATOM     25  C   UNL     1      31.902  -9.237 -20.969  0.00  0.00    -0.007 C 
ATOM     26  C   UNL     1      32.393  -8.619 -19.817  0.00  0.00    -0.022 C 
ATOM     27  C   UNL     1      31.468 -11.248 -19.703  0.00  0.00    -0.003 C 
ATOM     28  C   UNL     1      32.421  -9.317 -18.610  0.00  0.00    -0.004 C 
ATOM     29  C   UNL     1      31.959 -10.631 -18.553  0.00  0.00    -0.001 C 
ATOM     30  C   UNL     1      32.889  -7.214 -19.879  0.00  0.00    +0.031 C 
ENDBRANCH  23  24
ENDBRANCH  20  23
ENDBRANCH   4  21
TORSDOF 6
ENDMDL
MODEL 3
REMARK VINA RESULT:     -11.8      2.022      9.451
REMARK  Name = 5289109
REMARK  6 active torsions:
REMARK  status: ('A' for Active; 'I' for Inactive)
REMARK    1  A    between atoms: C_3  and  C_9
REMARK    2  A    between atoms: C_4  and  C_21
REMARK    3  A    between atoms: N_8  and  C_11
REMARK    4  A    between atoms: C_11  and  C_12
REMARK    5  A    between atoms: N_20  and  C_23
REMARK    6  A    between atoms: C_23  and  C_24
REMARK                            x       y       z     vdW  Elec       q    Type
REMARK                         _______ _______ _______ _____ _____    ______ ____
ROOT
ATOM      1  N   UNL     1      34.879 -19.678 -23.094  0.00  0.00    -0.244 NA
ATOM      2  N   UNL     1      34.019 -18.039 -24.637  0.00  0.00    -0.244 NA
ATOM      3  C   UNL     1      35.341 -18.664 -22.333  0.00  0.00    +0.115 C 
ATOM      4  C   UNL     1      34.513 -17.107 -23.819  0.00  0.00    +0.115 C 
ATOM      5  C   UNL     1      35.184 -17.331 -22.654  0.00  0.00    +0.100 C 
ATOM      6  C   UNL     1      34.236 -19.299 -24.215  0.00  0.00    +0.250 C 
ENDROOT
BRANCH   3   9
ATOM      7  O   UNL     1      36.798 -18.252 -20.542  0.00  0.00    -0.269 OA
ATOM      8  N   UNL     1      35.791 -20.340 -20.627  0.00  0.00    -0.296 N 
ATOM      9  C   UNL     1      36.037 -19.051 -21.118  0.00  0.00    +0.260 C 
ATOM     10  H   UNL     1      35.179 -20.922 -21.131  0.00  0.00    +0.150 HD
BRANCH   8  11
ATOM     11  C   UNL     1      36.388 -20.862 -19.419  0.00  0.00    +0.117 C 
BRANCH  11  12
ATOM     12  C   UNL     1      35.393 -21.607 -18.576  0.00  0.00    -0.003 C 
ATOM     13  C   UNL     1      35.783 -22.122 -17.347  0.00  0.00    -0.007 C 
ATOM     14  C   UNL     1      34.857 -22.811 -16.563  0.00  0.00    -0.022 C 
ATOM     15  C   UNL     1      34.091 -21.772 -19.035  0.00  0.00    -0.003 C 
ATOM     16  C   UNL     1      33.549 -22.982 -17.016  0.00  0.00    -0.004 C 
ATOM     17  C   UNL     1      33.166 -22.462 -18.252  0.00  0.00    -0.001 C 
ATOM     18  C   UNL     1      35.267 -23.370 -15.241  0.00  0.00    +0.031 C 
ENDBRANCH  11  12
ENDBRANCH   8  11
ENDBRANCH   3   9
BRANCH   4  21
ATOM     19  O   UNL     1      34.043 -15.490 -25.452  0.00  0.00    -0.269 OA
ATOM     20  N   UNL     1      34.340 -14.737 -23.278  0.00  0.00    -0.296 N 
ATOM     21  C   UNL     1      34.284 -15.709 -24.267  0.00  0.00    +0.260 C 
ATOM     22  H   UNL     1      34.541 -15.012 -22.355  0.00  0.00    +0.150 HD
BRANCH  20  23
ATOM     23  C   UNL     1      34.116 -13.340 -23.550  0.00  0.00    +0.117 C 
BRANCH  23  24
ATOM     24  C   UNL     1      33.189 -12.712 -22.565  0.00  0.00    -0.003 C 
ATOM     25  C   UNL     1      32.683 -11.434 -22.800  0.00  0.00    -0.007 C 
ATOM     26  C   UNL     1      31.815 -10.846 -21.878  0.00  0.00    -0.022 C 
ATOM     27  C   UNL     1      32.827 -13.403 -21.408  0.00  0.00    -0.003 C 
ATOM     28  C   UNL     1      31.454 -11.538 -20.722  0.00  0.00    -0.004 C 
ATOM     29  C   UNL     1      31.960 -12.816 -20.487  0.00  0.00    -0.001 C 
ATOM     30  C   UNL     1      31.274  -9.479 -22.129  0.00  0.00    +0.031 C 
ENDBRANCH  23  24
ENDBRANCH  20  23
ENDBRANCH   4  21
TORSDOF 6
ENDMDL
MODEL 4
REMARK VINA RESULT:     -11.8      3.327      5.842
REMARK  Name = 5289109
REMARK  6 active torsions:
REMARK  status: ('A' for Active; 'I' for Inactive)
REMARK    1  A    between atoms: C_3  and  C_9
REMARK    2  A    between atoms: C_4  and  C_21
REMARK    3  A    between atoms: N_8  and  C_11
REMARK    4  A    between atoms: C_11  and  C_12
REMARK    5  A    between atoms: N_20  and  C_23
REMARK    6  A    between atoms: C_23  and  C_24
REMARK                            x       y       z     vdW  Elec       q    Type
REMARK                         _______ _______ _______ _____ _____    ______ ____
ROOT
ATOM      1  N   UNL     1      36.786 -18.742 -20.592  0.00  0.00    -0.244 NA
ATOM      2  N   UNL     1      36.115 -20.674 -19.320  0.00  0.00    -0.244 NA
ATOM      3  C   UNL     1      35.531 -18.675 -21.083  0.00  0.00    +0.115 C 
ATOM      4  C   UNL     1      34.903 -20.527 -19.859  0.00  0.00    +0.115 C 
ATOM      5  C   UNL     1      34.527 -19.561 -20.745  0.00  0.00    +0.100 C 
ATOM      6  C   UNL     1      37.005 -19.751 -19.728  0.00  0.00    +0.250 C 
ENDROOT
BRANCH   3   9
ATOM      7  O   UNL     1      35.177 -17.820 -23.238  0.00  0.00    -0.269 OA
ATOM      8  N   UNL     1      35.119 -16.310 -21.479  0.00  0.00    -0.296 N 
ATOM      9  C   UNL     1      35.273 -17.593 -22.018  0.00  0.00    +0.260 C 
ATOM     10  H   UNL     1      35.208 -16.200 -20.505  0.00  0.00    +0.150 HD
BRANCH   8  11
ATOM     11  C   UNL     1      34.835 -15.137 -22.274  0.00  0.00    +0.117 C 
BRANCH  11  12
ATOM     12  C   UNL     1      33.810 -14.252 -21.626  0.00  0.00    -0.003 C 
ATOM     13  C   UNL     1      33.334 -13.139 -22.306  0.00  0.00    -0.007 C 
ATOM     14  C   UNL     1      32.380 -12.318 -21.705  0.00  0.00    -0.022 C 
ATOM     15  C   UNL     1      33.347 -14.557 -20.351  0.00  0.00    -0.003 C 
ATOM     16  C   UNL     1      31.910 -12.616 -20.426  0.00  0.00    -0.004 C 
ATOM     17  C   UNL     1      32.393 -13.736 -19.749  0.00  0.00    -0.001 C 
ATOM     18  C   UNL     1      31.864 -11.119 -22.428  0.00  0.00    +0.031 C 
ENDBRANCH  11  12
ENDBRANCH   8  11
ENDBRANCH   3   9
BRANCH   4  21
ATOM     19  O   UNL     1      32.769 -21.499 -19.888  0.00  0.00    -0.269 OA
ATOM     20  N   UNL     1      34.357 -22.484 -18.514  0.00  0.00    -0.296 N 
ATOM     21  C   UNL     1      33.905 -21.536 -19.422  0.00  0.00    +0.260 C 
ATOM     22  H   UNL     1      35.288 -22.431 -18.198  0.00  0.00    +0.150 HD
BRANCH  20  23
ATOM     23  C   UNL     1      33.516 -23.543 -18.015  0.00  0.00    +0.117 C 
BRANCH  23  24
ATOM     24  C   UNL     1      33.134 -23.338 -16.587  0.00  0.00    -0.003 C 
ATOM     25  C   UNL     1      31.798 -23.131 -16.246  0.00  0.00    -0.007 C 
ATOM     26  C   UNL     1      31.440 -22.940 -14.911  0.00  0.00    -0.022 C 
ATOM     27  C   UNL     1      34.113 -23.355 -15.594  0.00  0.00    -0.003 C 
ATOM     28  C   UNL     1      32.419 -22.957 -13.918  0.00  0.00    -0.004 C 
ATOM     29  C   UNL     1      33.756 -23.164 -14.259  0.00  0.00    -0.001 C 
ATOM     30  C   UNL     1      30.011 -22.718 -14.545  0.00  0.00    +0.031 C 
ENDBRANCH  23  24
ENDBRANCH  20  23
ENDBRANCH   4  21
TORSDOF 6
ENDMDL
MODEL 5
REMARK VINA RESULT:     -11.8      3.318      9.958
REMARK  Name = 5289109
REMARK  6 active torsions:
REMARK  status: ('A' for Active; 'I' for Inactive)
REMARK    1  A    between atoms: C_3  and  C_9
REMARK    2  A    between atoms: C_4  and  C_21
REMARK    3  A    between atoms: N_8  and  C_11
REMARK    4  A    between atoms: C_11  and  C_12
REMARK    5  A    between atoms: N_20  and  C_23
REMARK    6  A    between atoms: C_23  and  C_24
REMARK                            x       y       z     vdW  Elec       q    Type
REMARK                         _______ _______ _______ _____ _____    ______ ____
ROOT
ATOM      1  N   UNL     1      36.130 -20.651 -19.328  0.00  0.00    -0.244 NA
ATOM      2  N   UNL     1      36.790 -18.718 -20.606  0.00  0.00    -0.244 NA
ATOM      3  C   UNL     1      34.895 -20.532 -19.858  0.00  0.00    +0.115 C 
ATOM      4  C   UNL     1      35.542 -18.683 -21.075  0.00  0.00    +0.115 C 
ATOM      5  C   UNL     1      34.536 -19.546 -20.755  0.00  0.00    +0.100 C 
ATOM      6  C   UNL     1      37.015 -19.724 -19.740  0.00  0.00    +0.250 C 
ENDROOT
BRANCH   3   9
ATOM      7  O   UNL     1      32.758 -21.499 -19.862  0.00  0.00    -0.269 OA
ATOM      8  N   UNL     1      34.369 -22.503 -18.530  0.00  0.00    -0.296 N 
ATOM      9  C   UNL     1      33.923 -21.523 -19.427  0.00  0.00    +0.260 C 
ATOM     10  H   UNL     1      35.304 -22.464 -18.224  0.00  0.00    +0.150 HD
BRANCH   8  11
ATOM     11  C   UNL     1      33.531 -23.568 -18.028  0.00  0.00    +0.117 C 
BRANCH  11  12
ATOM     12  C   UNL     1      33.140 -23.348 -16.596  0.00  0.00    -0.003 C 
ATOM     13  C   UNL     1      31.806 -23.133 -16.272  0.00  0.00    -0.007 C 
ATOM     14  C   UNL     1      31.442 -22.931 -14.941  0.00  0.00    -0.022 C 
ATOM     15  C   UNL     1      34.117 -23.362 -15.606  0.00  0.00    -0.003 C 
ATOM     16  C   UNL     1      32.416 -22.943 -13.942  0.00  0.00    -0.004 C 
ATOM     17  C   UNL     1      33.754 -23.159 -14.275  0.00  0.00    -0.001 C 
ATOM     18  C   UNL     1      30.013 -22.698 -14.584  0.00  0.00    +0.031 C 
ENDBRANCH  11  12
ENDBRANCH   8  11
ENDBRANCH   3   9
BRANCH   4  21
ATOM     19  O   UNL     1      35.171 -17.834 -23.229  0.00  0.00    -0.269 OA
ATOM     20  N   UNL     1      35.128 -16.315 -21.477  0.00  0.00    -0.296 N 
ATOM     21  C   UNL     1      35.272 -17.579 -22.032  0.00  0.00    +0.260 C 
ATOM     22  H   UNL     1      35.227 -16.211 -20.503  0.00  0.00    +0.150 HD
BRANCH  20  23
ATOM     23  C   UNL     1      34.840 -15.147 -22.271  0.00  0.00    +0.117 C 
BRANCH  23  24
ATOM     24  C   UNL     1      33.823 -14.263 -21.631  0.00  0.00    -0.003 C 
ATOM     25  C   UNL     1      33.343 -13.146 -22.314  0.00  0.00    -0.007 C 
ATOM     26  C   UNL     1      32.391 -12.318 -21.715  0.00  0.00    -0.022 C 
ATOM     27  C   UNL     1      33.353 -14.554 -20.351  0.00  0.00    -0.003 C 
ATOM     28  C   UNL     1      31.922 -12.610 -20.435  0.00  0.00    -0.004 C 
ATOM     29  C   UNL     1      32.402 -13.727 -19.752  0.00  0.00    -0.001 C 
ATOM     30  C   UNL     1      31.878 -11.123 -22.444  0.00  0.00    +0.031 C 
ENDBRANCH  23  24
ENDBRANCH  20  23
ENDBRANCH   4  21
TORSDOF 6
ENDMDL
MODEL 6
REMARK VINA RESULT:     -11.8      2.241     10.049
REMARK  Name = 5289109
REMARK  6 active torsions:
REMARK  status: ('A' for Active; 'I' for Inactive)
REMARK    1  A    between atoms: C_3  and  C_9
REMARK    2  A    between atoms: C_4  and  C_21
REMARK    3  A    between atoms: N_8  and  C_11
REMARK    4  A    between atoms: C_11  and  C_12
REMARK    5  A    between atoms: N_20  and  C_23
REMARK    6  A    between atoms: C_23  and  C_24
REMARK                            x       y       z     vdW  Elec       q    Type
REMARK                         _______ _______ _______ _____ _____    ______ ____
ROOT
ATOM      1  N   UNL     1      34.927 -15.937 -20.266  0.00  0.00    -0.244 NA
ATOM      2  N   UNL     1      34.149 -13.802 -21.065  0.00  0.00    -0.244 NA
ATOM      3  C   UNL     1      35.100 -16.313 -21.550  0.00  0.00    +0.115 C 
ATOM      4  C   UNL     1      34.352 -14.263 -22.301  0.00  0.00    +0.115 C 
ATOM      5  C   UNL     1      34.822 -15.500 -22.631  0.00  0.00    +0.100 C 
ATOM      6  C   UNL     1      34.456 -14.686 -20.099  0.00  0.00    +0.250 C 
ENDROOT
BRANCH   3   9
ATOM      7  O   UNL     1      35.684 -18.141 -22.898  0.00  0.00    -0.269 OA
ATOM      8  N   UNL     1      36.022 -18.361 -20.614  0.00  0.00    -0.296 N 
ATOM      9  C   UNL     1      35.608 -17.658 -21.753  0.00  0.00    +0.260 C 
ATOM     10  H   UNL     1      35.935 -17.921 -19.738  0.00  0.00    +0.150 HD
BRANCH   8  11
ATOM     11  C   UNL     1      36.572 -19.697 -20.655  0.00  0.00    +0.117 C 
BRANCH  11  12
ATOM     12  C   UNL     1      35.902 -20.610 -19.669  0.00  0.00    -0.003 C 
ATOM     13  C   UNL     1      36.600 -21.043 -18.549  0.00  0.00    -0.007 C 
ATOM     14  C   UNL     1      35.977 -21.890 -17.632  0.00  0.00    -0.022 C 
ATOM     15  C   UNL     1      34.588 -21.012 -19.886  0.00  0.00    -0.003 C 
ATOM     16  C   UNL     1      34.660 -22.298 -17.843  0.00  0.00    -0.004 C 
ATOM     17  C   UNL     1      33.965 -21.858 -18.970  0.00  0.00    -0.001 C 
ATOM     18  C   UNL     1      36.719 -22.361 -16.427  0.00  0.00    +0.031 C 
ENDBRANCH  11  12
ENDBRANCH   8  11
ENDBRANCH   3   9
BRANCH   4  21
ATOM     19  O   UNL     1      33.533 -13.722 -24.430  0.00  0.00    -0.269 OA
ATOM     20  N   UNL     1      34.267 -11.965 -23.106  0.00  0.00    -0.296 N 
ATOM     21  C   UNL     1      34.018 -13.302 -23.382  0.00  0.00    +0.260 C 
ATOM     22  H   UNL     1      34.659 -11.727 -22.235  0.00  0.00    +0.150 HD
BRANCH  20  23
ATOM     23  C   UNL     1      33.973 -10.911 -24.044  0.00  0.00    +0.117 C 
BRANCH  23  24
ATOM     24  C   UNL     1      34.085  -9.557 -23.429  0.00  0.00    -0.003 C 
ATOM     25  C   UNL     1      33.056  -9.071 -22.623  0.00  0.00    -0.007 C 
ATOM     26  C   UNL     1      33.160  -7.804 -22.046  0.00  0.00    -0.022 C 
ATOM     27  C   UNL     1      35.218  -8.777 -23.659  0.00  0.00    -0.003 C 
ATOM     28  C   UNL     1      34.294  -7.025 -22.277  0.00  0.00    -0.004 C 
ATOM     29  C   UNL     1      35.323  -7.511 -23.083  0.00  0.00    -0.001 C 
ATOM     30  C   UNL     1      32.059  -7.284 -21.185  0.00  0.00    +0.031 C 
ENDBRANCH  23  24
ENDBRANCH  20  23
ENDBRANCH   4  21
TORSDOF 6
ENDMDL
MODEL 7
REMARK VINA RESULT:     -11.7      2.044      3.353
REMARK  Name = 5289109
REMARK  6 active torsions:
REMARK  status: ('A' for Active; 'I' for Inactive)
REMARK    1  A    between atoms: C_3  and  C_9
REMARK    2  A    between atoms: C_4  and  C_21
REMARK    3  A    between atoms: N_8  and  C_11
REMARK    4  A    between atoms: C_11  and  C_12
REMARK    5  A    between atoms: N_20  and  C_23
REMARK    6  A    between atoms: C_23  and  C_24
REMARK                            x       y       z     vdW  Elec       q    Type
REMARK                         _______ _______ _______ _____ _____    ______ ____
ROOT
ATOM      1  N   UNL     1      34.016 -18.015 -24.658  0.00  0.00    -0.244 NA
ATOM      2  N   UNL     1      34.894 -19.652 -23.124  0.00  0.00    -0.244 NA
ATOM      3  C   UNL     1      34.502 -17.051 -23.848  0.00  0.00    +0.115 C 
ATOM      4  C   UNL     1      35.337 -18.630 -22.389  0.00  0.00    +0.115 C 
ATOM      5  C   UNL     1      35.185 -17.306 -22.676  0.00  0.00    +0.100 C 
ATOM      6  C   UNL     1      34.245 -19.274 -24.241  0.00  0.00    +0.250 C 
ENDROOT
BRANCH   3   9
ATOM      7  O   UNL     1      33.951 -15.436 -25.457  0.00  0.00    -0.269 OA
ATOM      8  N   UNL     1      34.389 -14.680 -23.309  0.00  0.00    -0.296 N 
ATOM      9  C   UNL     1      34.267 -15.683 -24.280  0.00  0.00    +0.260 C 
ATOM     10  H   UNL     1      34.643 -14.944 -22.396  0.00  0.00    +0.150 HD
BRANCH   8  11
ATOM     11  C   UNL     1      34.163 -13.278 -23.576  0.00  0.00    +0.117 C 
BRANCH  11  12
ATOM     12  C   UNL     1      33.166 -12.679 -22.627  0.00  0.00    -0.003 C 
ATOM     13  C   UNL     1      32.689 -11.394 -22.853  0.00  0.00    -0.007 C 
ATOM     14  C   UNL     1      31.761 -10.838 -21.972  0.00  0.00    -0.022 C 
ATOM     15  C   UNL     1      32.729 -13.416 -21.533  0.00  0.00    -0.003 C 
ATOM     16  C   UNL     1      31.318 -11.571 -20.871  0.00  0.00    -0.004 C 
ATOM     17  C   UNL     1      31.802 -12.861 -20.652  0.00  0.00    -0.001 C 
ATOM     18  C   UNL     1      31.244  -9.458 -22.206  0.00  0.00    +0.031 C 
ENDBRANCH  11  12
ENDBRANCH   8  11
ENDBRANCH   3   9
BRANCH   4  21
ATOM     19  O   UNL     1      36.835 -18.232 -20.630  0.00  0.00    -0.269 OA
ATOM     20  N   UNL     1      35.763 -20.288 -20.655  0.00  0.00    -0.296 N 
ATOM     21  C   UNL     1      36.056 -19.026 -21.151  0.00  0.00    +0.260 C 
ATOM     22  H   UNL     1      35.123 -20.853 -21.145  0.00  0.00    +0.150 HD
BRANCH  20  23
ATOM     23  C   UNL     1      36.360 -20.805 -19.449  0.00  0.00    +0.117 C 
BRANCH  23  24
ATOM     24  C   UNL     1      35.384 -21.564 -18.614  0.00  0.00    -0.003 C 
ATOM     25  C   UNL     1      35.787 -22.110 -17.396  0.00  0.00    -0.007 C 
ATOM     26  C   UNL     1      34.874 -22.820 -16.613  0.00  0.00    -0.022 C 
ATOM     27  C   UNL     1      34.070 -21.726 -19.050  0.00  0.00    -0.003 C 
ATOM     28  C   UNL     1      33.560 -22.981 -17.051  0.00  0.00    -0.004 C 
ATOM     29  C   UNL     1      33.157 -22.434 -18.269  0.00  0.00    -0.001 C 
ATOM     30  C   UNL     1      35.305 -23.405 -15.311  0.00  0.00    +0.031 C 
ENDBRANCH  23  24
ENDBRANCH  20  23
ENDBRANCH   4  21
TORSDOF 6
ENDMDL
MODEL 8
REMARK VINA RESULT:     -11.7      2.234      3.005
REMARK  Name = 5289109
REMARK  6 active torsions:
REMARK  status: ('A' for Active; 'I' for Inactive)
REMARK    1  A    between atoms: C_3  and  C_9
REMARK    2  A    between atoms: C_4  and  C_21
REMARK    3  A    between atoms: N_8  and  C_11
REMARK    4  A    between atoms: C_11  and  C_12
REMARK    5  A    between atoms: N_20  and  C_23
REMARK    6  A    between atoms: C_23  and  C_24
REMARK                            x       y       z     vdW  Elec       q    Type
REMARK                         _______ _______ _______ _____ _____    ______ ____
ROOT
ATOM      1  N   UNL     1      34.139 -13.826 -21.095  0.00  0.00    -0.244 NA
ATOM      2  N   UNL     1      34.911 -15.968 -20.308  0.00  0.00    -0.244 NA
ATOM      3  C   UNL     1      34.332 -14.262 -22.357  0.00  0.00    +0.115 C 
ATOM      4  C   UNL     1      35.069 -16.308 -21.589  0.00  0.00    +0.115 C 
ATOM      5  C   UNL     1      34.806 -15.520 -22.670  0.00  0.00    +0.100 C 
ATOM      6  C   UNL     1      34.443 -14.718 -20.134  0.00  0.00    +0.250 C 
ENDROOT
BRANCH   3   9
ATOM      7  O   UNL     1      33.560 -13.710 -24.502  0.00  0.00    -0.269 OA
ATOM      8  N   UNL     1      34.204 -11.957 -23.127  0.00  0.00    -0.296 N 
ATOM      9  C   UNL     1      34.009 -13.315 -23.411  0.00  0.00    +0.260 C 
ATOM     10  H   UNL     1      34.563 -11.712 -22.244  0.00  0.00    +0.150 HD
BRANCH   8  11
ATOM     11  C   UNL     1      33.908 -10.895 -24.061  0.00  0.00    +0.117 C 
BRANCH  11  12
ATOM     12  C   UNL     1      34.049  -9.539 -23.433  0.00  0.00    -0.003 C 
ATOM     13  C   UNL     1      33.031  -9.046 -22.626  0.00  0.00    -0.007 C 
ATOM     14  C   UNL     1      33.162  -7.787 -22.040  0.00  0.00    -0.022 C 
ATOM     15  C   UNL     1      35.197  -8.789 -23.665  0.00  0.00    -0.003 C 
ATOM     16  C   UNL     1      34.311  -7.028 -22.268  0.00  0.00    -0.004 C 
ATOM     17  C   UNL     1      35.328  -7.530 -23.080  0.00  0.00    -0.001 C 
ATOM     18  C   UNL     1      32.074  -7.249 -21.173  0.00  0.00    +0.031 C 
ENDBRANCH  11  12
ENDBRANCH   8  11
ENDBRANCH   3   9
BRANCH   4  21
ATOM     19  O   UNL     1      35.725 -18.101 -22.951  0.00  0.00    -0.269 OA
ATOM     20  N   UNL     1      35.897 -18.402 -20.657  0.00  0.00    -0.296 N 
ATOM     21  C   UNL     1      35.584 -17.684 -21.803  0.00  0.00    +0.260 C 
ATOM     22  H   UNL     1      35.749 -17.981 -19.780  0.00  0.00    +0.150 HD
BRANCH  20  23
ATOM     23  C   UNL     1      36.430 -19.741 -20.702  0.00  0.00    +0.117 C 
BRANCH  23  24
ATOM     24  C   UNL     1      35.795 -20.638 -19.694  0.00  0.00    -0.003 C 
ATOM     25  C   UNL     1      36.526 -21.072 -18.589  0.00  0.00    -0.007 C 
ATOM     26  C   UNL     1      35.931 -21.911 -17.644  0.00  0.00    -0.022 C 
ATOM     27  C   UNL     1      34.470 -21.042 -19.856  0.00  0.00    -0.003 C 
ATOM     28  C   UNL     1      34.606 -22.314 -17.808  0.00  0.00    -0.004 C 
ATOM     29  C   UNL     1      33.875 -21.880 -18.914  0.00  0.00    -0.001 C 
ATOM     30  C   UNL     1      36.712 -22.376 -16.463  0.00  0.00    +0.031 C 
ENDBRANCH  23  24
ENDBRANCH  20  23
ENDBRANCH   4  21
TORSDOF 6
ENDMDL
MODEL 9
REMARK VINA RESULT:     -11.7      1.303      1.685
REMARK  Name = 5289109
REMARK  6 active torsions:
REMARK  status: ('A' for Active; 'I' for Inactive)
REMARK    1  A    between atoms: C_3  and  C_9
REMARK    2  A    between atoms: C_4  and  C_21
REMARK    3  A    between atoms: N_8  and  C_11
REMARK    4  A    between atoms: C_11  and  C_12
REMARK    5  A    between atoms: N_20  and  C_23
REMARK    6  A    between atoms: C_23  and  C_24
REMARK                            x       y       z     vdW  Elec       q    Type
REMARK                         _______ _______ _______ _____ _____    ______ ____
ROOT
ATOM      1  N   UNL     1      33.029 -13.640 -23.730  0.00  0.00    -0.244 NA
ATOM      2  N   UNL     1      34.541 -15.510 -23.579  0.00  0.00    -0.244 NA
ATOM      3  C   UNL     1      32.983 -13.617 -22.382  0.00  0.00    +0.115 C 
ATOM      4  C   UNL     1      34.430 -15.408 -22.253  0.00  0.00    +0.115 C 
ATOM      5  C   UNL     1      33.677 -14.496 -21.575  0.00  0.00    +0.100 C 
ATOM      6  C   UNL     1      33.817 -14.598 -24.254  0.00  0.00    +0.250 C 
ENDROOT
BRANCH   3   9
ATOM      7  O   UNL     1      31.639 -12.750 -20.667  0.00  0.00    -0.269 OA
ATOM      8  N   UNL     1      31.941 -11.423 -22.545  0.00  0.00    -0.296 N 
ATOM      9  C   UNL     1      32.138 -12.590 -21.795  0.00  0.00    +0.260 C 
ATOM     10  H   UNL     1      32.365 -11.362 -23.431  0.00  0.00    +0.150 HD
BRANCH   8  11
ATOM     11  C   UNL     1      31.149 -10.304 -22.088  0.00  0.00    +0.117 C 
BRANCH  11  12
ATOM     12  C   UNL     1      32.005  -9.164 -21.619  0.00  0.00    -0.003 C 
ATOM     13  C   UNL     1      32.981  -8.645 -22.460  0.00  0.00    -0.007 C 
ATOM     14  C   UNL     1      33.775  -7.584 -22.025  0.00  0.00    -0.022 C 
ATOM     15  C   UNL     1      31.813  -8.638 -20.346  0.00  0.00    -0.003 C 
ATOM     16  C   UNL     1      33.589  -7.051 -20.749  0.00  0.00    -0.004 C 
ATOM     17  C   UNL     1      32.607  -7.578 -19.910  0.00  0.00    -0.001 C 
ATOM     18  C   UNL     1      34.826  -7.020 -22.922  0.00  0.00    +0.031 C 
ENDBRANCH  11  12
ENDBRANCH   8  11
ENDBRANCH   3   9
BRANCH   4  21
ATOM     19  O   UNL     1      35.316 -16.290 -20.269  0.00  0.00    -0.269 OA
ATOM     20  N   UNL     1      35.787 -17.432 -22.233  0.00  0.00    -0.296 N 
ATOM     21  C   UNL     1      35.221 -16.406 -21.489  0.00  0.00    +0.260 C 
ATOM     22  H   UNL     1      35.654 -17.439 -23.208  0.00  0.00    +0.150 HD
BRANCH  20  23
ATOM     23  C   UNL     1      36.561 -18.490 -21.632  0.00  0.00    +0.117 C 
BRANCH  23  24
ATOM     24  C   UNL     1      35.714 -19.444 -20.860  0.00  0.00    -0.003 C 
ATOM     25  C   UNL     1      36.281 -20.215 -19.846  0.00  0.00    -0.007 C 
ATOM     26  C   UNL     1      35.488 -21.108 -19.122  0.00  0.00    -0.022 C 
ATOM     27  C   UNL     1      34.355 -19.564 -21.151  0.00  0.00    -0.003 C 
ATOM     28  C   UNL     1      34.130 -21.227 -19.414  0.00  0.00    -0.004 C 
ATOM     29  C   UNL     1      33.563 -20.456 -20.428  0.00  0.00    -0.001 C 
ATOM     30  C   UNL     1      36.094 -21.934 -18.039  0.00  0.00    +0.031 C 
ENDBRANCH  23  24
ENDBRANCH  20  23
ENDBRANCH   4  21
TORSDOF 6
ENDMDL
