MODEL 1
REMARK VINA RESULT:     -12.5      0.000      0.000
REMARK  Name = 448408
REMARK  8 active torsions:
REMARK  status: ('A' for Active; 'I' for Inactive)
REMARK    1  A    between atoms: N_2  and  C_25
REMARK    2  A    between atoms: C_3  and  C_6
REMARK    3  A    between atoms: C_5  and  N_12
REMARK    4  A    between atoms: C_25  and  C_26
REMARK    5  A    between atoms: C_27  and  S_32
REMARK    6  A    between atoms: S_32  and  C_33
REMARK    7  A    between atoms: C_34  and  C_39
REMARK    8  A    between atoms: C_39  and  O_40
REMARK                            x       y       z     vdW  Elec       q    Type
REMARK                         _______ _______ _______ _____ _____    ______ ____
ROOT
ATOM      1  O   UNL     1      37.632 -19.372 -19.312  0.00  0.00    -0.270 OA
ATOM      2  N   UNL     1      35.972 -20.990 -19.258  0.00  0.00    -0.297 N 
ATOM      3  C   UNL     1      36.588 -19.851 -19.790  0.00  0.00    +0.246 C 
ATOM      4  H   UNL     1      35.146 -21.315 -19.686  0.00  0.00    +0.150 HD
ENDROOT
BRANCH   3   6
ATOM      5  C   UNL     1      35.148 -17.211 -22.051  0.00  0.00    +0.090 C 
ATOM      6  C   UNL     1      35.940 -19.220 -20.929  0.00  0.00    +0.055 C 
ATOM      7  C   UNL     1      35.773 -17.836 -20.957  0.00  0.00    +0.023 C 
ATOM      8  C   UNL     1      34.695 -18.011 -23.113  0.00  0.00    +0.018 C 
ATOM      9  C   UNL     1      35.485 -20.000 -21.993  0.00  0.00    +0.005 C 
ATOM     10  C   UNL     1      34.863 -19.396 -23.084  0.00  0.00    +0.002 C 
BRANCH   5  12
ATOM     11  O   UNL     1      32.501 -13.290 -19.903  0.00  0.00    -0.207 OA
ATOM     12  N   UNL     1      34.981 -15.831 -22.080  0.00  0.00    -0.137 N 
ATOM     13  N   UNL     1      35.029 -15.068 -23.204  0.00  0.00    -0.215 N 
ATOM     14  N   UNL     1      34.191 -15.239 -21.098  0.00  0.00    -0.143 NA
ATOM     15  N   UNL     1      33.949 -12.907 -23.656  0.00  0.00    -0.309 NA
ATOM     16  N   UNL     1      32.618 -12.027 -21.844  0.00  0.00    -0.251 NA
ATOM     17  N   UNL     1      32.807 -10.852 -23.827  0.00  0.00    -0.283 N 
ATOM     18  C   UNL     1      34.279 -13.956 -23.000  0.00  0.00    +0.243 C 
ATOM     19  C   UNL     1      33.773 -14.133 -21.630  0.00  0.00    +0.241 C 
ATOM     20  C   UNL     1      32.903 -13.108 -21.043  0.00  0.00    +0.239 C 
ATOM     21  C   UNL     1      33.117 -11.953 -23.062  0.00  0.00    +0.208 C 
ATOM     22  H   UNL     1      35.525 -15.285 -24.026  0.00  0.00    +0.175 HD
ATOM     23  H   UNL     1      33.165 -10.769 -24.740  0.00  0.00    +0.156 HD
ATOM     24  H   UNL     1      32.225 -10.147 -23.462  0.00  0.00    +0.156 HD
ENDBRANCH   5  12
ENDBRANCH   3   6
BRANCH   2  25
ATOM     25  C   UNL     1      36.479 -21.714 -18.115  0.00  0.00    +0.117 C 
BRANCH  25  26
ATOM     26  C   UNL     1      35.375 -22.322 -17.300  0.00  0.00    +0.003 C 
ATOM     27  C   UNL     1      35.584 -22.767 -15.998  0.00  0.00    +0.027 C 
ATOM     28  C   UNL     1      34.119 -22.433 -17.890  0.00  0.00    -0.002 C 
ATOM     29  C   UNL     1      34.528 -23.327 -15.280  0.00  0.00    +0.006 C 
ATOM     30  C   UNL     1      33.063 -22.994 -17.172  0.00  0.00    -0.000 C 
ATOM     31  C   UNL     1      33.267 -23.440 -15.866  0.00  0.00    +0.000 C 
BRANCH  27  32
ATOM     32  S   UNL     1      37.180 -22.644 -15.202  0.00  0.00    -0.087 S 
BRANCH  32  33
ATOM     33  C   UNL     1      37.196 -24.144 -14.232  0.00  0.00    +0.028 C 
ATOM     34  C   UNL     1      37.223 -24.117 -12.836  0.00  0.00    +0.013 C 
ATOM     35  C   UNL     1      37.182 -25.368 -14.903  0.00  0.00    +0.006 C 
ATOM     36  C   UNL     1      37.235 -25.310 -12.114  0.00  0.00    -0.001 C 
ATOM     37  C   UNL     1      37.194 -26.561 -14.181  0.00  0.00    +0.000 C 
ATOM     38  C   UNL     1      37.220 -26.532 -12.786  0.00  0.00    -0.000 C 
BRANCH  34  39
ATOM     39  C   UNL     1      37.239 -22.833 -12.071  0.00  0.00    +0.164 C 
BRANCH  39  40
ATOM     40  O   UNL     1      38.303 -22.863 -11.129  0.00  0.00    -0.377 OA
ATOM     41  H   UNL     1      38.276 -22.060 -10.584  0.00  0.00    +0.211 HD
ENDBRANCH  39  40
ENDBRANCH  34  39
ENDBRANCH  32  33
ENDBRANCH  27  32
ENDBRANCH  25  26
ENDBRANCH   2  25
TORSDOF 8
ENDMDL
MODEL 2
REMARK VINA RESULT:     -12.3      2.123      3.086
REMARK  Name = 448408
REMARK  8 active torsions:
REMARK  status: ('A' for Active; 'I' for Inactive)
REMARK    1  A    between atoms: N_2  and  C_25
REMARK    2  A    between atoms: C_3  and  C_6
REMARK    3  A    between atoms: C_5  and  N_12
REMARK    4  A    between atoms: C_25  and  C_26
REMARK    5  A    between atoms: C_27  and  S_32
REMARK    6  A    between atoms: S_32  and  C_33
REMARK    7  A    between atoms: C_34  and  C_39
REMARK    8  A    between atoms: C_39  and  O_40
REMARK                            x       y       z     vdW  Elec       q    Type
REMARK                         _______ _______ _______ _____ _____    ______ ____
ROOT
ATOM      1  O   UNL     1      32.843 -21.349 -19.885  0.00  0.00    -0.270 OA
ATOM      2  N   UNL     1      34.228 -22.502 -18.426  0.00  0.00    -0.297 N 
ATOM      3  C   UNL     1      33.966 -21.506 -19.374  0.00  0.00    +0.246 C 
ATOM      4  H   UNL     1      35.140 -22.571 -18.063  0.00  0.00    +0.150 HD
ENDROOT
BRANCH   3   6
ATOM      5  C   UNL     1      35.955 -18.808 -21.083  0.00  0.00    +0.090 C 
ATOM      6  C   UNL     1      35.081 -20.658 -19.766  0.00  0.00    +0.055 C 
ATOM      7  C   UNL     1      34.887 -19.635 -20.694  0.00  0.00    +0.023 C 
ATOM      8  C   UNL     1      37.221 -19.034 -20.518  0.00  0.00    +0.018 C 
ATOM      9  C   UNL     1      36.345 -20.869 -19.213  0.00  0.00    +0.005 C 
ATOM     10  C   UNL     1      37.414 -20.058 -19.590  0.00  0.00    +0.002 C 
BRANCH   5  12
ATOM     11  O   UNL     1      34.335 -13.897 -21.587  0.00  0.00    -0.207 OA
ATOM     12  N   UNL     1      35.762 -17.788 -22.008  0.00  0.00    -0.137 N 
ATOM     13  N   UNL     1      35.329 -17.969 -23.284  0.00  0.00    -0.215 N 
ATOM     14  N   UNL     1      35.430 -16.520 -21.535  0.00  0.00    -0.143 NA
ATOM     15  N   UNL     1      34.112 -16.410 -24.743  0.00  0.00    -0.309 NA
ATOM     16  N   UNL     1      33.621 -14.260 -23.762  0.00  0.00    -0.251 NA
ATOM     17  N   UNL     1      32.955 -14.732 -25.927  0.00  0.00    -0.283 N 
ATOM     18  C   UNL     1      34.704 -16.837 -23.690  0.00  0.00    +0.243 C 
ATOM     19  C   UNL     1      34.807 -15.952 -22.520  0.00  0.00    +0.241 C 
ATOM     20  C   UNL     1      34.231 -14.603 -22.579  0.00  0.00    +0.239 C 
ATOM     21  C   UNL     1      33.576 -15.119 -24.761  0.00  0.00    +0.208 C 
ATOM     22  H   UNL     1      35.449 -18.785 -23.822  0.00  0.00    +0.175 HD
ATOM     23  H   UNL     1      32.907 -15.353 -26.690  0.00  0.00    +0.156 HD
ATOM     24  H   UNL     1      32.559 -13.833 -25.998  0.00  0.00    +0.156 HD
ENDBRANCH   5  12
ENDBRANCH   3   6
BRANCH   2  25
ATOM     25  C   UNL     1      33.232 -23.437 -17.954  0.00  0.00    +0.117 C 
BRANCH  25  26
ATOM     26  C   UNL     1      32.891 -23.212 -16.509  0.00  0.00    +0.003 C 
ATOM     27  C   UNL     1      33.869 -23.194 -15.519  0.00  0.00    +0.027 C 
ATOM     28  C   UNL     1      31.553 -23.018 -16.180  0.00  0.00    -0.002 C 
ATOM     29  C   UNL     1      33.506 -22.982 -14.190  0.00  0.00    +0.006 C 
ATOM     30  C   UNL     1      31.189 -22.806 -14.851  0.00  0.00    -0.000 C 
ATOM     31  C   UNL     1      32.165 -22.787 -13.856  0.00  0.00    +0.000 C 
BRANCH  27  32
ATOM     32  S   UNL     1      35.600 -23.439 -15.896  0.00  0.00    -0.087 S 
BRANCH  32  33
ATOM     33  C   UNL     1      36.231 -23.938 -14.302  0.00  0.00    +0.028 C 
ATOM     34  C   UNL     1      36.450 -25.280 -13.985  0.00  0.00    +0.013 C 
ATOM     35  C   UNL     1      36.508 -22.947 -13.358  0.00  0.00    +0.006 C 
ATOM     36  C   UNL     1      36.944 -25.630 -12.729  0.00  0.00    -0.001 C 
ATOM     37  C   UNL     1      37.002 -23.297 -12.101  0.00  0.00    +0.000 C 
ATOM     38  C   UNL     1      37.220 -24.639 -11.787  0.00  0.00    -0.000 C 
BRANCH  34  39
ATOM     39  C   UNL     1      36.170 -26.379 -14.960  0.00  0.00    +0.164 C 
BRANCH  39  40
ATOM     40  O   UNL     1      37.399 -26.871 -15.475  0.00  0.00    -0.377 OA
ATOM     41  H   UNL     1      37.229 -27.648 -16.030  0.00  0.00    +0.211 HD
ENDBRANCH  39  40
ENDBRANCH  34  39
ENDBRANCH  32  33
ENDBRANCH  27  32
ENDBRANCH  25  26
ENDBRANCH   2  25
TORSDOF 8
ENDMDL
MODEL 3
REMARK VINA RESULT:     -12.1      3.578     11.461
REMARK  Name = 448408
REMARK  8 active torsions:
REMARK  status: ('A' for Active; 'I' for Inactive)
REMARK    1  A    between atoms: N_2  and  C_25
REMARK    2  A    between atoms: C_3  and  C_6
REMARK    3  A    between atoms: C_5  and  N_12
REMARK    4  A    between atoms: C_25  and  C_26
REMARK    5  A    between atoms: C_27  and  S_32
REMARK    6  A    between atoms: S_32  and  C_33
REMARK    7  A    between atoms: C_34  and  C_39
REMARK    8  A    between atoms: C_39  and  O_40
REMARK                            x       y       z     vdW  Elec       q    Type
REMARK                         _______ _______ _______ _____ _____    ______ ____
ROOT
ATOM      1  O   UNL     1      37.122 -20.404 -20.110  0.00  0.00    -0.270 OA
ATOM      2  N   UNL     1      35.240 -19.127 -20.560  0.00  0.00    -0.297 N 
ATOM      3  C   UNL     1      35.908 -20.192 -19.944  0.00  0.00    +0.246 C 
ATOM      4  H   UNL     1      34.277 -19.018 -20.385  0.00  0.00    +0.150 HD
ENDROOT
BRANCH   3   6
ATOM      5  C   UNL     1      34.937 -22.557 -17.184  0.00  0.00    +0.090 C 
ATOM      6  C   UNL     1      35.112 -21.074 -19.105  0.00  0.00    +0.055 C 
ATOM      7  C   UNL     1      35.693 -21.701 -18.003  0.00  0.00    +0.023 C 
ATOM      8  C   UNL     1      33.584 -22.767 -17.498  0.00  0.00    +0.018 C 
ATOM      9  C   UNL     1      33.766 -21.293 -19.404  0.00  0.00    +0.005 C 
ATOM     10  C   UNL     1      33.003 -22.139 -18.601  0.00  0.00    +0.002 C 
BRANCH   5  12
ATOM     11  O   UNL     1      33.907 -24.495 -12.475  0.00  0.00    -0.207 OA
ATOM     12  N   UNL     1      35.516 -23.181 -16.085  0.00  0.00    -0.137 N 
ATOM     13  N   UNL     1      36.760 -22.912 -15.606  0.00  0.00    -0.215 N 
ATOM     14  N   UNL     1      34.680 -23.665 -15.081  0.00  0.00    -0.143 NA
ATOM     15  N   UNL     1      37.629 -23.170 -13.321  0.00  0.00    -0.309 NA
ATOM     16  N   UNL     1      36.044 -24.020 -11.711  0.00  0.00    -0.251 NA
ATOM     17  N   UNL     1      38.205 -23.511 -11.061  0.00  0.00    -0.283 N 
ATOM     18  C   UNL     1      36.783 -23.207 -14.282  0.00  0.00    +0.243 C 
ATOM     19  C   UNL     1      35.417 -23.684 -14.015  0.00  0.00    +0.241 C 
ATOM     20  C   UNL     1      35.051 -24.106 -12.658  0.00  0.00    +0.239 C 
ATOM     21  C   UNL     1      37.242 -23.579 -12.042  0.00  0.00    +0.208 C 
ATOM     22  H   UNL     1      37.515 -22.562 -16.131  0.00  0.00    +0.175 HD
ATOM     23  H   UNL     1      39.108 -23.187 -11.279  0.00  0.00    +0.156 HD
ATOM     24  H   UNL     1      37.990 -23.787 -10.141  0.00  0.00    +0.156 HD
ENDBRANCH   5  12
ENDBRANCH   3   6
BRANCH   2  25
ATOM     25  C   UNL     1      35.886 -18.180 -21.440  0.00  0.00    +0.117 C 
BRANCH  25  26
ATOM     26  C   UNL     1      35.100 -17.957 -22.700  0.00  0.00    +0.003 C 
ATOM     27  C   UNL     1      34.914 -16.684 -23.232  0.00  0.00    +0.027 C 
ATOM     28  C   UNL     1      34.553 -19.071 -23.329  0.00  0.00    -0.002 C 
ATOM     29  C   UNL     1      34.175 -16.525 -24.404  0.00  0.00    +0.006 C 
ATOM     30  C   UNL     1      33.814 -18.912 -24.501  0.00  0.00    -0.000 C 
ATOM     31  C   UNL     1      33.625 -17.639 -25.039  0.00  0.00    +0.000 C 
BRANCH  27  32
ATOM     32  S   UNL     1      35.598 -15.226 -22.456  0.00  0.00    -0.087 S 
BRANCH  32  33
ATOM     33  C   UNL     1      34.143 -14.533 -21.686  0.00  0.00    +0.028 C 
ATOM     34  C   UNL     1      33.369 -13.560 -22.320  0.00  0.00    +0.013 C 
ATOM     35  C   UNL     1      33.785 -14.987 -20.415  0.00  0.00    +0.006 C 
ATOM     36  C   UNL     1      32.239 -13.043 -21.685  0.00  0.00    -0.001 C 
ATOM     37  C   UNL     1      32.656 -14.470 -19.781  0.00  0.00    +0.000 C 
ATOM     38  C   UNL     1      31.883 -13.498 -20.416  0.00  0.00    -0.000 C 
BRANCH  34  39
ATOM     39  C   UNL     1      33.709 -13.040 -23.680  0.00  0.00    +0.164 C 
BRANCH  39  40
ATOM     40  O   UNL     1      34.435 -11.825 -23.549  0.00  0.00    -0.377 OA
ATOM     41  H   UNL     1      34.918 -11.827 -22.708  0.00  0.00    +0.211 HD
ENDBRANCH  39  40
ENDBRANCH  34  39
ENDBRANCH  32  33
ENDBRANCH  27  32
ENDBRANCH  25  26
ENDBRANCH   2  25
TORSDOF 8
ENDMDL
MODEL 4
REMARK VINA RESULT:     -11.5      4.743     12.803
REMARK  Name = 448408
REMARK  8 active torsions:
REMARK  status: ('A' for Active; 'I' for Inactive)
REMARK    1  A    between atoms: N_2  and  C_25
REMARK    2  A    between atoms: C_3  and  C_6
REMARK    3  A    between atoms: C_5  and  N_12
REMARK    4  A    between atoms: C_25  and  C_26
REMARK    5  A    between atoms: C_27  and  S_32
REMARK    6  A    between atoms: S_32  and  C_33
REMARK    7  A    between atoms: C_34  and  C_39
REMARK    8  A    between atoms: C_39  and  O_40
REMARK                            x       y       z     vdW  Elec       q    Type
REMARK                         _______ _______ _______ _____ _____    ______ ____
ROOT
ATOM      1  O   UNL     1      35.197 -14.052 -21.596  0.00  0.00    -0.270 OA
ATOM      2  N   UNL     1      34.050 -13.326 -23.476  0.00  0.00    -0.297 N 
ATOM      3  C   UNL     1      34.631 -14.314 -22.672  0.00  0.00    +0.246 C 
ATOM      4  H   UNL     1      33.618 -13.603 -24.316  0.00  0.00    +0.150 HD
ENDROOT
BRANCH   3   6
ATOM      5  C   UNL     1      34.898 -18.065 -22.789  0.00  0.00    +0.090 C 
ATOM      6  C   UNL     1      34.570 -15.682 -23.161  0.00  0.00    +0.055 C 
ATOM      7  C   UNL     1      34.951 -16.737 -22.331  0.00  0.00    +0.023 C 
ATOM      8  C   UNL     1      34.454 -18.307 -24.100  0.00  0.00    +0.018 C 
ATOM      9  C   UNL     1      34.132 -15.940 -24.461  0.00  0.00    +0.005 C 
ATOM     10  C   UNL     1      34.074 -17.251 -24.930  0.00  0.00    +0.002 C 
BRANCH   5  12
ATOM     11  O   UNL     1      33.045 -21.774 -19.659  0.00  0.00    -0.207 OA
ATOM     12  N   UNL     1      35.276 -19.116 -21.962  0.00  0.00    -0.137 N 
ATOM     13  N   UNL     1      36.380 -19.121 -21.169  0.00  0.00    -0.215 N 
ATOM     14  N   UNL     1      34.282 -19.948 -21.452  0.00  0.00    -0.143 NA
ATOM     15  N   UNL     1      36.782 -20.352 -19.081  0.00  0.00    -0.309 NA
ATOM     16  N   UNL     1      34.954 -21.745 -18.343  0.00  0.00    -0.251 NA
ATOM     17  N   UNL     1      36.908 -21.638 -17.110  0.00  0.00    -0.283 N 
ATOM     18  C   UNL     1      36.152 -19.949 -20.120  0.00  0.00    +0.243 C 
ATOM     19  C   UNL     1      34.789 -20.443 -20.366  0.00  0.00    +0.241 C 
ATOM     20  C   UNL     1      34.179 -21.386 -19.421  0.00  0.00    +0.239 C 
ATOM     21  C   UNL     1      36.168 -21.250 -18.203  0.00  0.00    +0.208 C 
ATOM     22  H   UNL     1      37.206 -18.609 -21.330  0.00  0.00    +0.175 HD
ATOM     23  H   UNL     1      37.817 -21.286 -16.979  0.00  0.00    +0.156 HD
ATOM     24  H   UNL     1      36.526 -22.270 -16.457  0.00  0.00    +0.156 HD
ENDBRANCH   5  12
ENDBRANCH   3   6
BRANCH   2  25
ATOM     25  C   UNL     1      34.050 -11.920 -23.139  0.00  0.00    +0.117 C 
BRANCH  25  26
ATOM     26  C   UNL     1      32.853 -11.539 -22.317  0.00  0.00    +0.003 C 
ATOM     27  C   UNL     1      32.354 -10.240 -22.306  0.00  0.00    +0.027 C 
ATOM     28  C   UNL     1      32.246 -12.533 -21.555  0.00  0.00    -0.002 C 
ATOM     29  C   UNL     1      31.240  -9.932 -21.526  0.00  0.00    +0.006 C 
ATOM     30  C   UNL     1      31.132 -12.226 -20.775  0.00  0.00    -0.000 C 
ATOM     31  C   UNL     1      30.629 -10.926 -20.761  0.00  0.00    +0.000 C 
BRANCH  27  32
ATOM     32  S   UNL     1      33.102  -8.932 -23.268  0.00  0.00    -0.087 S 
BRANCH  32  33
ATOM     33  C   UNL     1      32.224  -7.505 -22.649  0.00  0.00    +0.028 C 
ATOM     34  C   UNL     1      32.610  -6.859 -21.473  0.00  0.00    +0.013 C 
ATOM     35  C   UNL     1      31.125  -7.037 -23.371  0.00  0.00    +0.006 C 
ATOM     36  C   UNL     1      31.899  -5.747 -21.021  0.00  0.00    -0.001 C 
ATOM     37  C   UNL     1      30.414  -5.925 -22.919  0.00  0.00    +0.000 C 
ATOM     38  C   UNL     1      30.801  -5.280 -21.744  0.00  0.00    -0.000 C 
BRANCH  34  39
ATOM     39  C   UNL     1      33.779  -7.320 -20.663  0.00  0.00    +0.164 C 
BRANCH  39  40
ATOM     40  O   UNL     1      33.398  -7.404 -19.296  0.00  0.00    -0.377 OA
ATOM     41  H   UNL     1      32.602  -7.953 -19.216  0.00  0.00    +0.211 HD
ENDBRANCH  39  40
ENDBRANCH  34  39
ENDBRANCH  32  33
ENDBRANCH  27  32
ENDBRANCH  25  26
ENDBRANCH   2  25
TORSDOF 8
ENDMDL
MODEL 5
REMARK VINA RESULT:     -11.4      4.444     12.275
REMARK  Name = 448408
REMARK  8 active torsions:
REMARK  status: ('A' for Active; 'I' for Inactive)
REMARK    1  A    between atoms: N_2  and  C_25
REMARK    2  A    between atoms: C_3  and  C_6
REMARK    3  A    between atoms: C_5  and  N_12
REMARK    4  A    between atoms: C_25  and  C_26
REMARK    5  A    between atoms: C_27  and  S_32
REMARK    6  A    between atoms: S_32  and  C_33
REMARK    7  A    between atoms: C_34  and  C_39
REMARK    8  A    between atoms: C_39  and  O_40
REMARK                            x       y       z     vdW  Elec       q    Type
REMARK                         _______ _______ _______ _____ _____    ______ ____
ROOT
ATOM      1  O   UNL     1      35.638 -14.627 -22.710  0.00  0.00    -0.270 OA
ATOM      2  N   UNL     1      33.435 -14.569 -23.431  0.00  0.00    -0.297 N 
ATOM      3  C   UNL     1      34.619 -15.232 -23.090  0.00  0.00    +0.246 C 
ATOM      4  H   UNL     1      32.666 -15.111 -23.724  0.00  0.00    +0.150 HD
ENDROOT
BRANCH   3   6
ATOM      5  C   UNL     1      35.248 -18.867 -22.351  0.00  0.00    +0.090 C 
ATOM      6  C   UNL     1      34.626 -16.681 -23.219  0.00  0.00    +0.055 C 
ATOM      7  C   UNL     1      35.233 -17.466 -22.240  0.00  0.00    +0.023 C 
ATOM      8  C   UNL     1      34.640 -19.459 -23.471  0.00  0.00    +0.018 C 
ATOM      9  C   UNL     1      34.026 -17.284 -24.326  0.00  0.00    +0.005 C 
ATOM     10  C   UNL     1      34.033 -18.673 -24.451  0.00  0.00    +0.002 C 
BRANCH   5  12
ATOM     11  O   UNL     1      34.465 -22.909 -19.183  0.00  0.00    -0.207 OA
ATOM     12  N   UNL     1      35.852 -19.651 -21.374  0.00  0.00    -0.137 N 
ATOM     13  N   UNL     1      36.707 -19.184 -20.426  0.00  0.00    -0.215 N 
ATOM     14  N   UNL     1      35.190 -20.796 -20.941  0.00  0.00    -0.143 NA
ATOM     15  N   UNL     1      37.175 -20.084 -18.187  0.00  0.00    -0.309 NA
ATOM     16  N   UNL     1      35.938 -22.072 -17.601  0.00  0.00    -0.251 NA
ATOM     17  N   UNL     1      37.437 -21.148 -16.100  0.00  0.00    -0.283 N 
ATOM     18  C   UNL     1      36.636 -20.001 -19.345  0.00  0.00    +0.243 C 
ATOM     19  C   UNL     1      35.644 -21.011 -19.746  0.00  0.00    +0.241 C 
ATOM     20  C   UNL     1      35.294 -22.090 -18.815  0.00  0.00    +0.239 C 
ATOM     21  C   UNL     1      36.814 -21.125 -17.327  0.00  0.00    +0.208 C 
ATOM     22  H   UNL     1      37.281 -18.388 -20.509  0.00  0.00    +0.175 HD
ATOM     23  H   UNL     1      38.095 -20.455 -15.868  0.00  0.00    +0.156 HD
ATOM     24  H   UNL     1      37.222 -21.859 -15.453  0.00  0.00    +0.156 HD
ENDBRANCH   5  12
ENDBRANCH   3   6
BRANCH   2  25
ATOM     25  C   UNL     1      33.279 -13.133 -23.378  0.00  0.00    +0.117 C 
BRANCH  25  26
ATOM     26  C   UNL     1      32.806 -12.669 -22.031  0.00  0.00    +0.003 C 
ATOM     27  C   UNL     1      32.154 -11.451 -21.862  0.00  0.00    +0.027 C 
ATOM     28  C   UNL     1      33.041 -13.500 -20.939  0.00  0.00    -0.002 C 
ATOM     29  C   UNL     1      31.734 -11.061 -20.591  0.00  0.00    +0.006 C 
ATOM     30  C   UNL     1      32.621 -13.110 -19.668  0.00  0.00    -0.000 C 
ATOM     31  C   UNL     1      31.967 -11.891 -19.493  0.00  0.00    +0.000 C 
BRANCH  27  32
ATOM     32  S   UNL     1      31.831 -10.353 -23.235  0.00  0.00    -0.087 S 
BRANCH  32  33
ATOM     33  C   UNL     1      33.153  -9.166 -23.043  0.00  0.00    +0.028 C 
ATOM     34  C   UNL     1      32.970  -7.970 -22.347  0.00  0.00    +0.013 C 
ATOM     35  C   UNL     1      34.394  -9.458 -23.610  0.00  0.00    +0.006 C 
ATOM     36  C   UNL     1      34.026  -7.068 -22.218  0.00  0.00    -0.001 C 
ATOM     37  C   UNL     1      35.450  -8.555 -23.482  0.00  0.00    +0.000 C 
ATOM     38  C   UNL     1      35.266  -7.361 -22.786  0.00  0.00    -0.000 C 
BRANCH  34  39
ATOM     39  C   UNL     1      31.660  -7.611 -21.721  0.00  0.00    +0.164 C 
BRANCH  39  40
ATOM     40  O   UNL     1      30.846  -6.954 -22.683  0.00  0.00    -0.377 OA
ATOM     41  H   UNL     1      31.123  -6.028 -22.762  0.00  0.00    +0.211 HD
ENDBRANCH  39  40
ENDBRANCH  34  39
ENDBRANCH  32  33
ENDBRANCH  27  32
ENDBRANCH  25  26
ENDBRANCH   2  25
TORSDOF 8
ENDMDL
MODEL 6
REMARK VINA RESULT:     -11.2      3.944      7.375
REMARK  Name = 448408
REMARK  8 active torsions:
REMARK  status: ('A' for Active; 'I' for Inactive)
REMARK    1  A    between atoms: N_2  and  C_25
REMARK    2  A    between atoms: C_3  and  C_6
REMARK    3  A    between atoms: C_5  and  N_12
REMARK    4  A    between atoms: C_25  and  C_26
REMARK    5  A    between atoms: C_27  and  S_32
REMARK    6  A    between atoms: S_32  and  C_33
REMARK    7  A    between atoms: C_34  and  C_39
REMARK    8  A    between atoms: C_39  and  O_40
REMARK                            x       y       z     vdW  Elec       q    Type
REMARK                         _______ _______ _______ _____ _____    ______ ____
ROOT
ATOM      1  O   UNL     1      34.967 -14.029 -23.503  0.00  0.00    -0.270 OA
ATOM      2  N   UNL     1      34.721 -15.329 -21.599  0.00  0.00    -0.297 N 
ATOM      3  C   UNL     1      34.402 -14.238 -22.415  0.00  0.00    +0.246 C 
ATOM      4  H   UNL     1      34.234 -15.434 -20.750  0.00  0.00    +0.150 HD
ENDROOT
BRANCH   3   6
ATOM      5  C   UNL     1      32.232 -11.183 -22.068  0.00  0.00    +0.090 C 
ATOM      6  C   UNL     1      33.382 -13.324 -21.926  0.00  0.00    +0.055 C 
ATOM      7  C   UNL     1      33.213 -12.078 -22.530  0.00  0.00    +0.023 C 
ATOM      8  C   UNL     1      31.426 -11.570 -20.984  0.00  0.00    +0.018 C 
ATOM      9  C   UNL     1      32.573 -13.693 -20.850  0.00  0.00    +0.005 C 
ATOM     10  C   UNL     1      31.595 -12.817 -20.380  0.00  0.00    +0.002 C 
BRANCH   5  12
ATOM     11  O   UNL     1      34.586  -6.642 -22.977  0.00  0.00    -0.207 OA
ATOM     12  N   UNL     1      32.063  -9.942 -22.671  0.00  0.00    -0.137 N 
ATOM     13  N   UNL     1      30.898  -9.243 -22.693  0.00  0.00    -0.215 N 
ATOM     14  N   UNL     1      33.165  -9.095 -22.761  0.00  0.00    -0.143 NA
ATOM     15  N   UNL     1      30.551  -6.816 -22.864  0.00  0.00    -0.309 NA
ATOM     16  N   UNL     1      32.569  -5.499 -23.011  0.00  0.00    -0.251 NA
ATOM     17  N   UNL     1      30.500  -4.466 -23.037  0.00  0.00    -0.283 N 
ATOM     18  C   UNL     1      31.191  -7.923 -22.798  0.00  0.00    +0.243 C 
ATOM     19  C   UNL     1      32.661  -7.902 -22.836  0.00  0.00    +0.241 C 
ATOM     20  C   UNL     1      33.364  -6.619 -22.949  0.00  0.00    +0.239 C 
ATOM     21  C   UNL     1      31.256  -5.613 -22.970  0.00  0.00    +0.208 C 
ATOM     22  H   UNL     1      29.994  -9.630 -22.642  0.00  0.00    +0.175 HD
ATOM     23  H   UNL     1      29.517  -4.520 -23.009  0.00  0.00    +0.156 HD
ATOM     24  H   UNL     1      30.942  -3.589 -23.113  0.00  0.00    +0.156 HD
ENDBRANCH   5  12
ENDBRANCH   3   6
BRANCH   2  25
ATOM     25  C   UNL     1      35.728 -16.311 -21.935  0.00  0.00    +0.117 C 
BRANCH  25  26
ATOM     26  C   UNL     1      35.171 -17.419 -22.780  0.00  0.00    +0.003 C 
ATOM     27  C   UNL     1      35.340 -18.758 -22.437  0.00  0.00    +0.027 C 
ATOM     28  C   UNL     1      34.472 -17.070 -23.932  0.00  0.00    -0.002 C 
ATOM     29  C   UNL     1      34.806 -19.754 -23.253  0.00  0.00    +0.006 C 
ATOM     30  C   UNL     1      33.938 -18.066 -24.748  0.00  0.00    -0.000 C 
ATOM     31  C   UNL     1      34.104 -19.408 -24.409  0.00  0.00    +0.000 C 
BRANCH  27  32
ATOM     32  S   UNL     1      36.231 -19.252 -20.968  0.00  0.00    -0.087 S 
BRANCH  32  33
ATOM     33  C   UNL     1      34.991 -20.225 -20.126  0.00  0.00    +0.028 C 
ATOM     34  C   UNL     1      35.336 -21.233 -19.225  0.00  0.00    +0.013 C 
ATOM     35  C   UNL     1      33.646 -19.957 -20.389  0.00  0.00    +0.006 C 
ATOM     36  C   UNL     1      34.338 -21.971 -18.587  0.00  0.00    -0.001 C 
ATOM     37  C   UNL     1      32.649 -20.695 -19.752  0.00  0.00    +0.000 C 
ATOM     38  C   UNL     1      32.995 -21.702 -18.851  0.00  0.00    -0.000 C 
BRANCH  34  39
ATOM     39  C   UNL     1      36.760 -21.559 -18.908  0.00  0.00    +0.164 C 
BRANCH  39  40
ATOM     40  O   UNL     1      36.834 -22.117 -17.603  0.00  0.00    -0.377 OA
ATOM     41  H   UNL     1      36.441 -23.004 -17.608  0.00  0.00    +0.211 HD
ENDBRANCH  39  40
ENDBRANCH  34  39
ENDBRANCH  32  33
ENDBRANCH  27  32
ENDBRANCH  25  26
ENDBRANCH   2  25
TORSDOF 8
ENDMDL
MODEL 7
REMARK VINA RESULT:     -10.9      8.572     16.026
REMARK  Name = 448408
REMARK  8 active torsions:
REMARK  status: ('A' for Active; 'I' for Inactive)
REMARK    1  A    between atoms: N_2  and  C_25
REMARK    2  A    between atoms: C_3  and  C_6
REMARK    3  A    between atoms: C_5  and  N_12
REMARK    4  A    between atoms: C_25  and  C_26
REMARK    5  A    between atoms: C_27  and  S_32
REMARK    6  A    between atoms: S_32  and  C_33
REMARK    7  A    between atoms: C_34  and  C_39
REMARK    8  A    between atoms: C_39  and  O_40
REMARK                            x       y       z     vdW  Elec       q    Type
REMARK                         _______ _______ _______ _____ _____    ______ ____
ROOT
ATOM      1  O   UNL     1      32.971  -8.121 -24.266  0.00  0.00    -0.270 OA
ATOM      2  N   UNL     1      30.751  -7.767 -23.696  0.00  0.00    -0.297 N 
ATOM      3  C   UNL     1      31.950  -8.488 -23.656  0.00  0.00    +0.246 C 
ATOM      4  H   UNL     1      29.982  -8.115 -23.190  0.00  0.00    +0.150 HD
ENDROOT
BRANCH   3   6
ATOM      5  C   UNL     1      32.818 -11.963 -22.503  0.00  0.00    +0.090 C 
ATOM      6  C   UNL     1      31.955  -9.719 -22.882  0.00  0.00    +0.055 C 
ATOM      7  C   UNL     1      32.802 -10.767 -23.242  0.00  0.00    +0.023 C 
ATOM      8  C   UNL     1      31.962 -12.080 -21.395  0.00  0.00    +0.018 C 
ATOM      9  C   UNL     1      31.111  -9.851 -21.778  0.00  0.00    +0.005 C 
ATOM     10  C   UNL     1      31.115 -11.031 -21.036  0.00  0.00    +0.002 C 
BRANCH   5  12
ATOM     11  O   UNL     1      33.322 -15.981 -25.757  0.00  0.00    -0.207 OA
ATOM     12  N   UNL     1      33.663 -13.007 -22.861  0.00  0.00    -0.137 N 
ATOM     13  N   UNL     1      34.413 -13.732 -21.989  0.00  0.00    -0.215 N 
ATOM     14  N   UNL     1      33.356 -13.745 -24.002  0.00  0.00    -0.143 NA
ATOM     15  N   UNL     1      35.228 -16.041 -22.196  0.00  0.00    -0.309 NA
ATOM     16  N   UNL     1      34.603 -17.171 -24.235  0.00  0.00    -0.251 NA
ATOM     17  N   UNL     1      35.881 -18.261 -22.644  0.00  0.00    -0.283 N 
ATOM     18  C   UNL     1      34.623 -14.961 -22.522  0.00  0.00    +0.243 C 
ATOM     19  C   UNL     1      33.917 -14.899 -23.812  0.00  0.00    +0.241 C 
ATOM     20  C   UNL     1      33.920 -16.070 -24.695  0.00  0.00    +0.239 C 
ATOM     21  C   UNL     1      35.208 -17.137 -23.064  0.00  0.00    +0.208 C 
ATOM     22  H   UNL     1      34.747 -13.417 -21.118  0.00  0.00    +0.175 HD
ATOM     23  H   UNL     1      36.342 -18.264 -21.775  0.00  0.00    +0.156 HD
ATOM     24  H   UNL     1      35.901 -19.064 -23.214  0.00  0.00    +0.156 HD
ENDBRANCH   5  12
ENDBRANCH   3   6
BRANCH   2  25
ATOM     25  C   UNL     1      30.581  -6.540 -24.441  0.00  0.00    +0.117 C 
BRANCH  25  26
ATOM     26  C   UNL     1      30.953  -5.334 -23.628  0.00  0.00    +0.003 C 
ATOM     27  C   UNL     1      31.393  -4.155 -24.223  0.00  0.00    +0.027 C 
ATOM     28  C   UNL     1      30.845  -5.426 -22.243  0.00  0.00    -0.002 C 
ATOM     29  C   UNL     1      31.728  -3.060 -23.427  0.00  0.00    +0.006 C 
ATOM     30  C   UNL     1      31.181  -4.332 -21.447  0.00  0.00    -0.000 C 
ATOM     31  C   UNL     1      31.622  -3.149 -22.038  0.00  0.00    +0.000 C 
BRANCH  27  32
ATOM     32  S   UNL     1      31.546  -3.992 -25.997  0.00  0.00    -0.087 S 
BRANCH  32  33
ATOM     33  C   UNL     1      33.148  -4.736 -26.272  0.00  0.00    +0.028 C 
ATOM     34  C   UNL     1      33.596  -5.061 -27.554  0.00  0.00    +0.013 C 
ATOM     35  C   UNL     1      33.959  -4.993 -25.165  0.00  0.00    +0.006 C 
ATOM     36  C   UNL     1      34.853  -5.640 -27.728  0.00  0.00    -0.001 C 
ATOM     37  C   UNL     1      35.215  -5.572 -25.340  0.00  0.00    +0.000 C 
ATOM     38  C   UNL     1      35.663  -5.896 -26.621  0.00  0.00    -0.000 C 
BRANCH  34  39
ATOM     39  C   UNL     1      32.766  -4.806 -28.771  0.00  0.00    +0.164 C 
BRANCH  39  40
ATOM     40  O   UNL     1      32.899  -5.902 -29.666  0.00  0.00    -0.377 OA
ATOM     41  H   UNL     1      32.035  -6.324 -29.790  0.00  0.00    +0.211 HD
ENDBRANCH  39  40
ENDBRANCH  34  39
ENDBRANCH  32  33
ENDBRANCH  27  32
ENDBRANCH  25  26
ENDBRANCH   2  25
TORSDOF 8
ENDMDL
MODEL 8
REMARK VINA RESULT:     -10.7      8.633     15.886
REMARK  Name = 448408
REMARK  8 active torsions:
REMARK  status: ('A' for Active; 'I' for Inactive)
REMARK    1  A    between atoms: N_2  and  C_25
REMARK    2  A    between atoms: C_3  and  C_6
REMARK    3  A    between atoms: C_5  and  N_12
REMARK    4  A    between atoms: C_25  and  C_26
REMARK    5  A    between atoms: C_27  and  S_32
REMARK    6  A    between atoms: S_32  and  C_33
REMARK    7  A    between atoms: C_34  and  C_39
REMARK    8  A    between atoms: C_39  and  O_40
REMARK                            x       y       z     vdW  Elec       q    Type
REMARK                         _______ _______ _______ _____ _____    ______ ____
ROOT
ATOM      1  O   UNL     1      33.458  -7.142 -21.613  0.00  0.00    -0.270 OA
ATOM      2  N   UNL     1      34.067  -7.495 -23.822  0.00  0.00    -0.297 N 
ATOM      3  C   UNL     1      33.471  -7.879 -22.615  0.00  0.00    +0.246 C 
ATOM      4  H   UNL     1      34.041  -8.128 -24.576  0.00  0.00    +0.150 HD
ENDROOT
BRANCH   3   6
ATOM      5  C   UNL     1      33.069 -11.610 -22.885  0.00  0.00    +0.090 C 
ATOM      6  C   UNL     1      32.877  -9.205 -22.565  0.00  0.00    +0.055 C 
ATOM      7  C   UNL     1      33.630 -10.322 -22.927  0.00  0.00    +0.023 C 
ATOM      8  C   UNL     1      31.734 -11.749 -22.470  0.00  0.00    +0.018 C 
ATOM      9  C   UNL     1      31.551  -9.360 -22.155  0.00  0.00    +0.005 C 
ATOM     10  C   UNL     1      30.981 -10.631 -22.108  0.00  0.00    +0.002 C 
BRANCH   5  12
ATOM     11  O   UNL     1      33.071 -15.826 -25.920  0.00  0.00    -0.207 OA
ATOM     12  N   UNL     1      33.820 -12.723 -23.245  0.00  0.00    -0.137 N 
ATOM     13  N   UNL     1      34.597 -13.444 -22.393  0.00  0.00    -0.215 N 
ATOM     14  N   UNL     1      33.378 -13.503 -24.311  0.00  0.00    -0.143 NA
ATOM     15  N   UNL     1      35.258 -15.807 -22.523  0.00  0.00    -0.309 NA
ATOM     16  N   UNL     1      34.403 -17.007 -24.435  0.00  0.00    -0.251 NA
ATOM     17  N   UNL     1      35.743 -18.085 -22.888  0.00  0.00    -0.283 N 
ATOM     18  C   UNL     1      34.692 -14.711 -22.866  0.00  0.00    +0.243 C 
ATOM     19  C   UNL     1      33.886 -14.677 -24.097  0.00  0.00    +0.241 C 
ATOM     20  C   UNL     1      33.749 -15.893 -24.905  0.00  0.00    +0.239 C 
ATOM     21  C   UNL     1      35.103 -16.946 -23.320  0.00  0.00    +0.208 C 
ATOM     22  H   UNL     1      35.019 -13.102 -21.571  0.00  0.00    +0.175 HD
ATOM     23  H   UNL     1      36.273 -18.069 -22.059  0.00  0.00    +0.156 HD
ATOM     24  H   UNL     1      35.669 -18.917 -23.408  0.00  0.00    +0.156 HD
ENDBRANCH   5  12
ENDBRANCH   3   6
BRANCH   2  25
ATOM     25  C   UNL     1      34.719  -6.220 -24.021  0.00  0.00    +0.117 C 
BRANCH  25  26
ATOM     26  C   UNL     1      34.467  -5.669 -25.395  0.00  0.00    +0.003 C 
ATOM     27  C   UNL     1      33.178  -5.433 -25.864  0.00  0.00    +0.027 C 
ATOM     28  C   UNL     1      35.570  -5.398 -26.198  0.00  0.00    -0.002 C 
ATOM     29  C   UNL     1      32.991  -4.921 -27.148  0.00  0.00    +0.006 C 
ATOM     30  C   UNL     1      35.383  -4.887 -27.482  0.00  0.00    -0.000 C 
ATOM     31  C   UNL     1      34.094  -4.648 -27.957  0.00  0.00    +0.000 C 
BRANCH  27  32
ATOM     32  S   UNL     1      31.732  -5.767 -24.865  0.00  0.00    -0.087 S 
BRANCH  32  33
ATOM     33  C   UNL     1      31.662  -4.292 -23.860  0.00  0.00    +0.028 C 
ATOM     34  C   UNL     1      31.052  -4.287 -22.604  0.00  0.00    +0.013 C 
ATOM     35  C   UNL     1      32.237  -3.121 -24.358  0.00  0.00    +0.006 C 
ATOM     36  C   UNL     1      31.018  -3.115 -21.849  0.00  0.00    -0.001 C 
ATOM     37  C   UNL     1      32.201  -1.949 -23.603  0.00  0.00    +0.000 C 
ATOM     38  C   UNL     1      31.592  -1.946 -22.348  0.00  0.00    -0.000 C 
BRANCH  34  39
ATOM     39  C   UNL     1      30.423  -5.514 -22.025  0.00  0.00    +0.164 C 
BRANCH  39  40
ATOM     40  O   UNL     1      31.124  -5.888 -20.847  0.00  0.00    -0.377 OA
ATOM     41  H   UNL     1      31.658  -6.678 -21.026  0.00  0.00    +0.211 HD
ENDBRANCH  39  40
ENDBRANCH  34  39
ENDBRANCH  32  33
ENDBRANCH  27  32
ENDBRANCH  25  26
ENDBRANCH   2  25
TORSDOF 8
ENDMDL
MODEL 9
REMARK VINA RESULT:     -10.7      6.306     14.735
REMARK  Name = 448408
REMARK  8 active torsions:
REMARK  status: ('A' for Active; 'I' for Inactive)
REMARK    1  A    between atoms: N_2  and  C_25
REMARK    2  A    between atoms: C_3  and  C_6
REMARK    3  A    between atoms: C_5  and  N_12
REMARK    4  A    between atoms: C_25  and  C_26
REMARK    5  A    between atoms: C_27  and  S_32
REMARK    6  A    between atoms: S_32  and  C_33
REMARK    7  A    between atoms: C_34  and  C_39
REMARK    8  A    between atoms: C_39  and  O_40
REMARK                            x       y       z     vdW  Elec       q    Type
REMARK                         _______ _______ _______ _____ _____    ______ ____
ROOT
ATOM      1  O   UNL     1      32.682 -11.797 -21.564  0.00  0.00    -0.270 OA
ATOM      2  N   UNL     1      32.610 -10.516 -23.495  0.00  0.00    -0.297 N 
ATOM      3  C   UNL     1      32.773 -11.721 -22.802  0.00  0.00    +0.246 C 
ATOM      4  H   UNL     1      32.697 -10.528 -24.476  0.00  0.00    +0.150 HD
ENDROOT
BRANCH   3   6
ATOM      5  C   UNL     1      34.148 -15.081 -23.791  0.00  0.00    +0.090 C 
ATOM      6  C   UNL     1      33.085 -12.901 -23.593  0.00  0.00    +0.055 C 
ATOM      7  C   UNL     1      33.839 -13.934 -23.038  0.00  0.00    +0.023 C 
ATOM      8  C   UNL     1      33.682 -15.163 -25.113  0.00  0.00    +0.018 C 
ATOM      9  C   UNL     1      32.629 -12.998 -24.909  0.00  0.00    +0.005 C 
ATOM     10  C   UNL     1      32.927 -14.129 -25.668  0.00  0.00    +0.002 C 
BRANCH   5  12
ATOM     11  O   UNL     1      34.845 -20.229 -23.866  0.00  0.00    -0.207 OA
ATOM     12  N   UNL     1      34.899 -16.112 -23.237  0.00  0.00    -0.137 N 
ATOM     13  N   UNL     1      35.311 -16.163 -21.942  0.00  0.00    -0.215 N 
ATOM     14  N   UNL     1      34.773 -17.388 -23.780  0.00  0.00    -0.143 NA
ATOM     15  N   UNL     1      35.820 -18.127 -20.555  0.00  0.00    -0.309 NA
ATOM     16  N   UNL     1      35.547 -20.258 -21.656  0.00  0.00    -0.251 NA
ATOM     17  N   UNL     1      36.242 -20.166 -19.452  0.00  0.00    -0.283 N 
ATOM     18  C   UNL     1      35.468 -17.463 -21.593  0.00  0.00    +0.243 C 
ATOM     19  C   UNL     1      35.105 -18.192 -22.818  0.00  0.00    +0.241 C 
ATOM     20  C   UNL     1      35.155 -19.659 -22.830  0.00  0.00    +0.239 C 
ATOM     21  C   UNL     1      35.854 -19.523 -20.605  0.00  0.00    +0.208 C 
ATOM     22  H   UNL     1      35.468 -15.386 -21.358  0.00  0.00    +0.175 HD
ATOM     23  H   UNL     1      36.478 -19.644 -18.651  0.00  0.00    +0.156 HD
ATOM     24  H   UNL     1      36.285 -21.150 -19.428  0.00  0.00    +0.156 HD
ENDBRANCH   5  12
ENDBRANCH   3   6
BRANCH   2  25
ATOM     25  C   UNL     1      32.323  -9.255 -22.849  0.00  0.00    +0.117 C 
BRANCH  25  26
ATOM     26  C   UNL     1      33.268  -8.173 -23.285  0.00  0.00    +0.003 C 
ATOM     27  C   UNL     1      32.815  -7.006 -23.894  0.00  0.00    +0.027 C 
ATOM     28  C   UNL     1      34.627  -8.370 -23.064  0.00  0.00    -0.002 C 
ATOM     29  C   UNL     1      33.730  -6.028 -24.284  0.00  0.00    +0.006 C 
ATOM     30  C   UNL     1      35.542  -7.393 -23.454  0.00  0.00    -0.000 C 
ATOM     31  C   UNL     1      35.094  -6.221 -24.063  0.00  0.00    +0.000 C 
BRANCH  27  32
ATOM     32  S   UNL     1      31.078  -6.711 -24.198  0.00  0.00    -0.087 S 
BRANCH  32  33
ATOM     33  C   UNL     1      30.886  -5.068 -23.524  0.00  0.00    +0.028 C 
ATOM     34  C   UNL     1      30.924  -4.829 -22.148  0.00  0.00    +0.013 C 
ATOM     35  C   UNL     1      30.692  -4.006 -24.409  0.00  0.00    +0.006 C 
ATOM     36  C   UNL     1      30.770  -3.531 -21.661  0.00  0.00    -0.001 C 
ATOM     37  C   UNL     1      30.538  -2.708 -23.920  0.00  0.00    +0.000 C 
ATOM     38  C   UNL     1      30.577  -2.471 -22.546  0.00  0.00    -0.000 C 
BRANCH  34  39
ATOM     39  C   UNL     1      31.129  -5.931 -21.159  0.00  0.00    +0.164 C 
BRANCH  39  40
ATOM     40  O   UNL     1      32.409  -5.789 -20.559  0.00  0.00    -0.377 OA
ATOM     41  H   UNL     1      33.043  -5.471 -21.221  0.00  0.00    +0.211 HD
ENDBRANCH  39  40
ENDBRANCH  34  39
ENDBRANCH  32  33
ENDBRANCH  27  32
ENDBRANCH  25  26
ENDBRANCH   2  25
TORSDOF 8
ENDMDL
