MODEL 1
REMARK VINA RESULT:     -11.9      0.000      0.000
REMARK  Name = 5326929
REMARK  3 active torsions:
REMARK  status: ('A' for Active; 'I' for Inactive)
REMARK    1  A    between atoms: C_7  and  C_21
REMARK    2  A    between atoms: C_21  and  C_22
REMARK    3  A    between atoms: C_22  and  C_23
REMARK                            x       y       z     vdW  Elec       q    Type
REMARK                         _______ _______ _______ _____ _____    ______ ____
ROOT
ATOM      1  O   UNL     1      34.898 -24.909 -11.638  0.00  0.00    -0.209 OA
ATOM      2  N   UNL     1      34.783 -22.952 -15.130  0.00  0.00    -0.275 N 
ATOM      3  N   UNL     1      30.036 -25.271 -13.598  0.00  0.00    -0.315 N 
ATOM      4  N   UNL     1      30.004 -24.176 -15.531  0.00  0.00    -0.316 N 
ATOM      5  N   UNL     1      36.002 -23.672 -13.218  0.00  0.00    -0.302 NA
ATOM      6  N   UNL     1      36.999 -22.400 -14.914  0.00  0.00    -0.320 N 
ATOM      7  C   UNL     1      32.426 -23.482 -15.461  0.00  0.00    +0.007 C 
ATOM      8  C   UNL     1      33.601 -23.559 -14.697  0.00  0.00    +0.060 C 
ATOM      9  C   UNL     1      31.263 -24.109 -14.979  0.00  0.00    +0.056 C 
ATOM     10  C   UNL     1      31.309 -24.788 -13.766  0.00  0.00    +0.060 C 
ATOM     11  C   UNL     1      33.608 -24.253 -13.476  0.00  0.00    +0.109 C 
ATOM     12  C   UNL     1      32.458 -24.887 -12.980  0.00  0.00    +0.029 C 
ATOM     13  C   UNL     1      34.884 -24.305 -12.706  0.00  0.00    +0.208 C 
ATOM     14  C   UNL     1      29.295 -24.880 -14.679  0.00  0.00    +0.182 C 
ATOM     15  C   UNL     1      35.920 -23.044 -14.361  0.00  0.00    +0.248 C 
ATOM     16  H   UNL     1      34.802 -22.461 -15.983  0.00  0.00    +0.156 HD
ATOM     17  H   UNL     1      29.714 -25.804 -12.836  0.00  0.00    +0.148 HD
ATOM     18  H   UNL     1      29.702 -23.783 -16.381  0.00  0.00    +0.148 HD
ATOM     19  H   UNL     1      36.906 -21.936 -15.778  0.00  0.00    +0.146 HD
ATOM     20  H   UNL     1      37.865 -22.402 -14.448  0.00  0.00    +0.146 HD
ENDROOT
BRANCH   7  21
ATOM     21  C   UNL     1      32.412 -22.743 -16.761  0.00  0.00    +0.034 C 
BRANCH  21  22
ATOM     22  C   UNL     1      33.489 -23.213 -17.757  0.00  0.00    +0.031 C 
BRANCH  22  23
ATOM     23  C   UNL     1      33.962 -22.121 -18.683  0.00  0.00    -0.022 C 
ATOM     24  C   UNL     1      35.323 -21.926 -18.867  0.00  0.00    -0.005 C 
ATOM     25  C   UNL     1      33.029 -21.331 -19.336  0.00  0.00    -0.005 C 
ATOM     26  C   UNL     1      34.831 -20.112 -20.386  0.00  0.00    -0.022 C 
ATOM     27  C   UNL     1      35.759 -20.916 -19.724  0.00  0.00    -0.005 C 
ATOM     28  C   UNL     1      33.465 -20.320 -20.192  0.00  0.00    -0.005 C 
ATOM     29  C   UNL     1      35.298 -19.034 -21.302  0.00  0.00    +0.031 C 
ENDBRANCH  22  23
ENDBRANCH  21  22
ENDBRANCH   7  21
TORSDOF 3
ENDMDL
MODEL 2
REMARK VINA RESULT:     -11.7      1.805      2.642
REMARK  Name = 5326929
REMARK  3 active torsions:
REMARK  status: ('A' for Active; 'I' for Inactive)
REMARK    1  A    between atoms: C_7  and  C_21
REMARK    2  A    between atoms: C_21  and  C_22
REMARK    3  A    between atoms: C_22  and  C_23
REMARK                            x       y       z     vdW  Elec       q    Type
REMARK                         _______ _______ _______ _____ _____    ______ ____
ROOT
ATOM      1  O   UNL     1      36.832 -26.156 -11.446  0.00  0.00    -0.209 OA
ATOM      2  N   UNL     1      37.515 -24.294 -14.926  0.00  0.00    -0.275 N 
ATOM      3  N   UNL     1      32.478 -23.565 -12.838  0.00  0.00    -0.315 N 
ATOM      4  N   UNL     1      32.888 -22.544 -14.768  0.00  0.00    -0.316 N 
ATOM      5  N   UNL     1      38.283 -25.687 -13.155  0.00  0.00    -0.302 NA
ATOM      6  N   UNL     1      39.654 -25.120 -14.968  0.00  0.00    -0.320 N 
ATOM      7  C   UNL     1      35.262 -23.362 -14.980  0.00  0.00    +0.007 C 
ATOM      8  C   UNL     1      36.249 -24.140 -14.354  0.00  0.00    +0.060 C 
ATOM      9  C   UNL     1      34.005 -23.239 -14.363  0.00  0.00    +0.056 C 
ATOM     10  C   UNL     1      33.773 -23.887 -13.155  0.00  0.00    +0.060 C 
ATOM     11  C   UNL     1      35.977 -24.780 -13.134  0.00  0.00    +0.109 C 
ATOM     12  C   UNL     1      34.729 -24.669 -12.503  0.00  0.00    +0.029 C 
ATOM     13  C   UNL     1      37.061 -25.594 -12.513  0.00  0.00    +0.208 C 
ATOM     14  C   UNL     1      31.993 -22.762 -13.833  0.00  0.00    +0.182 C 
ATOM     15  C   UNL     1      38.463 -25.062 -14.289  0.00  0.00    +0.248 C 
ATOM     16  H   UNL     1      37.728 -23.855 -15.780  0.00  0.00    +0.156 HD
ATOM     17  H   UNL     1      31.986 -23.860 -12.039  0.00  0.00    +0.148 HD
ATOM     18  H   UNL     1      32.784 -22.002 -15.583  0.00  0.00    +0.148 HD
ATOM     19  H   UNL     1      39.759 -24.639 -15.821  0.00  0.00    +0.146 HD
ATOM     20  H   UNL     1      40.404 -25.643 -14.603  0.00  0.00    +0.146 HD
ENDROOT
BRANCH   7  21
ATOM     21  C   UNL     1      35.546 -22.677 -16.280  0.00  0.00    +0.034 C 
BRANCH  21  22
ATOM     22  C   UNL     1      34.456 -22.890 -17.347  0.00  0.00    +0.031 C 
BRANCH  22  23
ATOM     23  C   UNL     1      34.547 -21.915 -18.495  0.00  0.00    -0.022 C 
ATOM     24  C   UNL     1      33.383 -21.441 -19.080  0.00  0.00    -0.005 C 
ATOM     25  C   UNL     1      35.793 -21.509 -18.944  0.00  0.00    -0.005 C 
ATOM     26  C   UNL     1      34.716 -20.124 -20.604  0.00  0.00    -0.022 C 
ATOM     27  C   UNL     1      33.468 -20.540 -20.141  0.00  0.00    -0.005 C 
ATOM     28  C   UNL     1      35.879 -20.608 -20.006  0.00  0.00    -0.005 C 
ATOM     29  C   UNL     1      34.807 -19.160 -21.738  0.00  0.00    +0.031 C 
ENDBRANCH  22  23
ENDBRANCH  21  22
ENDBRANCH   7  21
TORSDOF 3
ENDMDL
MODEL 3
REMARK VINA RESULT:     -10.3      2.921      5.847
REMARK  Name = 5326929
REMARK  3 active torsions:
REMARK  status: ('A' for Active; 'I' for Inactive)
REMARK    1  A    between atoms: C_7  and  C_21
REMARK    2  A    between atoms: C_21  and  C_22
REMARK    3  A    between atoms: C_22  and  C_23
REMARK                            x       y       z     vdW  Elec       q    Type
REMARK                         _______ _______ _______ _____ _____    ______ ____
ROOT
ATOM      1  O   UNL     1      37.435 -21.789 -16.562  0.00  0.00    -0.209 OA
ATOM      2  N   UNL     1      33.866 -23.535 -16.059  0.00  0.00    -0.275 N 
ATOM      3  N   UNL     1      37.269 -23.897 -11.752  0.00  0.00    -0.315 N 
ATOM      4  N   UNL     1      35.279 -24.855 -11.503  0.00  0.00    -0.316 N 
ATOM      5  N   UNL     1      35.379 -22.307 -17.426  0.00  0.00    -0.302 NA
ATOM      6  N   UNL     1      33.242 -22.907 -18.175  0.00  0.00    -0.320 N 
ATOM      7  C   UNL     1      34.427 -24.252 -13.797  0.00  0.00    +0.007 C 
ATOM      8  C   UNL     1      34.768 -23.600 -14.993  0.00  0.00    +0.060 C 
ATOM      9  C   UNL     1      35.370 -24.288 -12.754  0.00  0.00    +0.056 C 
ATOM     10  C   UNL     1      36.607 -23.681 -12.934  0.00  0.00    +0.060 C 
ATOM     11  C   UNL     1      36.028 -22.998 -15.136  0.00  0.00    +0.109 C 
ATOM     12  C   UNL     1      36.981 -23.024 -14.108  0.00  0.00    +0.029 C 
ATOM     13  C   UNL     1      36.336 -22.319 -16.428  0.00  0.00    +0.208 C 
ATOM     14  C   UNL     1      36.434 -24.603 -10.930  0.00  0.00    +0.182 C 
ATOM     15  C   UNL     1      34.227 -22.889 -17.219  0.00  0.00    +0.248 C 
ATOM     16  H   UNL     1      32.978 -23.951 -15.981  0.00  0.00    +0.156 HD
ATOM     17  H   UNL     1      38.181 -23.599 -11.534  0.00  0.00    +0.148 HD
ATOM     18  H   UNL     1      34.515 -25.345 -11.121  0.00  0.00    +0.148 HD
ATOM     19  H   UNL     1      32.384 -23.354 -17.989  0.00  0.00    +0.146 HD
ATOM     20  H   UNL     1      33.392 -22.474 -19.045  0.00  0.00    +0.146 HD
ENDROOT
BRANCH   7  21
ATOM     21  C   UNL     1      33.086 -24.895 -13.637  0.00  0.00    +0.034 C 
BRANCH  21  22
ATOM     22  C   UNL     1      31.984 -23.927 -13.167  0.00  0.00    +0.031 C 
BRANCH  22  23
ATOM     23  C   UNL     1      30.856 -23.782 -14.159  0.00  0.00    -0.022 C 
ATOM     24  C   UNL     1      29.933 -24.807 -14.296  0.00  0.00    -0.005 C 
ATOM     25  C   UNL     1      30.762 -22.624 -14.915  0.00  0.00    -0.005 C 
ATOM     26  C   UNL     1      28.785 -23.513 -15.982  0.00  0.00    -0.022 C 
ATOM     27  C   UNL     1      28.891 -24.671 -15.214  0.00  0.00    -0.005 C 
ATOM     28  C   UNL     1      29.720 -22.488 -15.833  0.00  0.00    -0.005 C 
ATOM     29  C   UNL     1      27.671 -23.367 -16.962  0.00  0.00    +0.031 C 
ENDBRANCH  22  23
ENDBRANCH  21  22
ENDBRANCH   7  21
TORSDOF 3
ENDMDL
MODEL 4
REMARK VINA RESULT:     -10.1      3.750      7.095
REMARK  Name = 5326929
REMARK  3 active torsions:
REMARK  status: ('A' for Active; 'I' for Inactive)
REMARK    1  A    between atoms: C_7  and  C_21
REMARK    2  A    between atoms: C_21  and  C_22
REMARK    3  A    between atoms: C_22  and  C_23
REMARK                            x       y       z     vdW  Elec       q    Type
REMARK                         _______ _______ _______ _____ _____    ______ ____
ROOT
ATOM      1  O   UNL     1      33.404 -19.518 -21.596  0.00  0.00    -0.209 OA
ATOM      2  N   UNL     1      36.823 -20.266 -19.650  0.00  0.00    -0.275 N 
ATOM      3  N   UNL     1      32.401 -22.885 -17.689  0.00  0.00    -0.315 N 
ATOM      4  N   UNL     1      34.314 -23.280 -16.631  0.00  0.00    -0.316 N 
ATOM      5  N   UNL     1      35.654 -19.146 -21.394  0.00  0.00    -0.302 NA
ATOM      6  N   UNL     1      37.956 -18.863 -21.067  0.00  0.00    -0.320 N 
ATOM      7  C   UNL     1      35.717 -21.778 -18.089  0.00  0.00    +0.007 C 
ATOM      8  C   UNL     1      35.669 -20.908 -19.189  0.00  0.00    +0.060 C 
ATOM      9  C   UNL     1      34.528 -22.399 -17.666  0.00  0.00    +0.056 C 
ATOM     10  C   UNL     1      33.344 -22.136 -18.345  0.00  0.00    +0.060 C 
ATOM     11  C   UNL     1      34.454 -20.667 -19.850  0.00  0.00    +0.109 C 
ATOM     12  C   UNL     1      33.258 -21.277 -19.442  0.00  0.00    +0.029 C 
ATOM     13  C   UNL     1      34.461 -19.734 -21.013  0.00  0.00    +0.208 C 
ATOM     14  C   UNL     1      33.030 -23.550 -16.673  0.00  0.00    +0.182 C 
ATOM     15  C   UNL     1      36.747 -19.418 -20.731  0.00  0.00    +0.248 C 
ATOM     16  H   UNL     1      37.686 -20.419 -19.202  0.00  0.00    +0.156 HD
ATOM     17  H   UNL     1      31.443 -22.935 -17.910  0.00  0.00    +0.148 HD
ATOM     18  H   UNL     1      34.979 -23.631 -15.996  0.00  0.00    +0.148 HD
ATOM     19  H   UNL     1      38.763 -19.088 -20.547  0.00  0.00    +0.146 HD
ATOM     20  H   UNL     1      38.018 -18.240 -21.826  0.00  0.00    +0.146 HD
ENDROOT
BRANCH   7  21
ATOM     21  C   UNL     1      37.009 -22.039 -17.381  0.00  0.00    +0.034 C 
BRANCH  21  22
ATOM     22  C   UNL     1      37.008 -21.607 -15.903  0.00  0.00    +0.031 C 
BRANCH  22  23
ATOM     23  C   UNL     1      37.226 -22.754 -14.947  0.00  0.00    -0.022 C 
ATOM     24  C   UNL     1      38.286 -23.623 -15.156  0.00  0.00    -0.005 C 
ATOM     25  C   UNL     1      36.364 -22.918 -13.874  0.00  0.00    -0.005 C 
ATOM     26  C   UNL     1      37.626 -24.861 -13.189  0.00  0.00    -0.022 C 
ATOM     27  C   UNL     1      38.486 -24.683 -14.272  0.00  0.00    -0.005 C 
ATOM     28  C   UNL     1      36.564 -23.978 -12.990  0.00  0.00    -0.005 C 
ATOM     29  C   UNL     1      37.841 -25.993 -12.243  0.00  0.00    +0.031 C 
ENDBRANCH  22  23
ENDBRANCH  21  22
ENDBRANCH   7  21
TORSDOF 3
ENDMDL
MODEL 5
REMARK VINA RESULT:     -10.1      2.760      5.715
REMARK  Name = 5326929
REMARK  3 active torsions:
REMARK  status: ('A' for Active; 'I' for Inactive)
REMARK    1  A    between atoms: C_7  and  C_21
REMARK    2  A    between atoms: C_21  and  C_22
REMARK    3  A    between atoms: C_22  and  C_23
REMARK                            x       y       z     vdW  Elec       q    Type
REMARK                         _______ _______ _______ _____ _____    ______ ____
ROOT
ATOM      1  O   UNL     1      33.124 -22.706 -18.857  0.00  0.00    -0.209 OA
ATOM      2  N   UNL     1      35.433 -22.708 -15.584  0.00  0.00    -0.275 N 
ATOM      3  N   UNL     1      30.245 -24.350 -14.781  0.00  0.00    -0.315 N 
ATOM      4  N   UNL     1      31.551 -24.342 -12.984  0.00  0.00    -0.316 N 
ATOM      5  N   UNL     1      35.174 -22.310 -17.916  0.00  0.00    -0.302 NA
ATOM      6  N   UNL     1      37.212 -21.951 -16.818  0.00  0.00    -0.320 N 
ATOM      7  C   UNL     1      33.609 -23.511 -14.179  0.00  0.00    +0.007 C 
ATOM      8  C   UNL     1      34.105 -23.117 -15.432  0.00  0.00    +0.060 C 
ATOM      9  C   UNL     1      32.266 -23.915 -14.080  0.00  0.00    +0.056 C 
ATOM     10  C   UNL     1      31.468 -23.913 -15.220  0.00  0.00    +0.060 C 
ATOM     11  C   UNL     1      33.269 -23.128 -16.560  0.00  0.00    +0.109 C 
ATOM     12  C   UNL     1      31.926 -23.526 -16.481  0.00  0.00    +0.029 C 
ATOM     13  C   UNL     1      33.848 -22.699 -17.865  0.00  0.00    +0.208 C 
ATOM     14  C   UNL     1      30.346 -24.593 -13.439  0.00  0.00    +0.182 C 
ATOM     15  C   UNL     1      35.892 -22.326 -16.824  0.00  0.00    +0.248 C 
ATOM     16  H   UNL     1      36.037 -22.691 -14.807  0.00  0.00    +0.156 HD
ATOM     17  H   UNL     1      29.439 -24.468 -15.332  0.00  0.00    +0.148 HD
ATOM     18  H   UNL     1      31.875 -24.437 -12.059  0.00  0.00    +0.148 HD
ATOM     19  H   UNL     1      37.727 -21.974 -15.978  0.00  0.00    +0.146 HD
ATOM     20  H   UNL     1      37.645 -21.659 -17.652  0.00  0.00    +0.146 HD
ENDROOT
BRANCH   7  21
ATOM     21  C   UNL     1      34.495 -23.503 -12.973  0.00  0.00    +0.034 C 
BRANCH  21  22
ATOM     22  C   UNL     1      34.978 -24.902 -12.546  0.00  0.00    +0.031 C 
BRANCH  22  23
ATOM     23  C   UNL     1      36.398 -25.194 -12.962  0.00  0.00    -0.022 C 
ATOM     24  C   UNL     1      36.634 -25.873 -14.148  0.00  0.00    -0.005 C 
ATOM     25  C   UNL     1      37.443 -24.779 -12.152  0.00  0.00    -0.005 C 
ATOM     26  C   UNL     1      39.009 -25.732 -13.726  0.00  0.00    -0.022 C 
ATOM     27  C   UNL     1      37.947 -26.143 -14.532  0.00  0.00    -0.005 C 
ATOM     28  C   UNL     1      38.756 -25.049 -12.536  0.00  0.00    -0.005 C 
ATOM     29  C   UNL     1      40.412 -26.019 -14.137  0.00  0.00    +0.031 C 
ENDBRANCH  22  23
ENDBRANCH  21  22
ENDBRANCH   7  21
TORSDOF 3
ENDMDL
MODEL 6
REMARK VINA RESULT:      -9.9      2.930      5.679
REMARK  Name = 5326929
REMARK  3 active torsions:
REMARK  status: ('A' for Active; 'I' for Inactive)
REMARK    1  A    between atoms: C_7  and  C_21
REMARK    2  A    between atoms: C_21  and  C_22
REMARK    3  A    between atoms: C_22  and  C_23
REMARK                            x       y       z     vdW  Elec       q    Type
REMARK                         _______ _______ _______ _____ _____    ______ ____
ROOT
ATOM      1  O   UNL     1      38.638 -22.842 -11.275  0.00  0.00    -0.209 OA
ATOM      2  N   UNL     1      35.054 -24.626 -11.391  0.00  0.00    -0.275 N 
ATOM      3  N   UNL     1      36.616 -22.217 -16.084  0.00  0.00    -0.315 N 
ATOM      4  N   UNL     1      34.632 -23.216 -16.117  0.00  0.00    -0.316 N 
ATOM      5  N   UNL     1      37.020 -24.040 -10.184  0.00  0.00    -0.302 NA
ATOM      6  N   UNL     1      35.282 -25.264  -9.200  0.00  0.00    -0.320 N 
ATOM      7  C   UNL     1      34.710 -23.998 -13.722  0.00  0.00    +0.007 C 
ATOM      8  C   UNL     1      35.497 -23.998 -12.559  0.00  0.00    +0.060 C 
ATOM      9  C   UNL     1      35.201 -23.354 -14.871  0.00  0.00    +0.056 C 
ATOM     10  C   UNL     1      36.447 -22.736 -14.825  0.00  0.00    +0.060 C 
ATOM     11  C   UNL     1      36.749 -23.364 -12.552  0.00  0.00    +0.109 C 
ATOM     12  C   UNL     1      37.256 -22.715 -13.688  0.00  0.00    +0.029 C 
ATOM     13  C   UNL     1      37.542 -23.394 -11.290  0.00  0.00    +0.208 C 
ATOM     14  C   UNL     1      35.505 -22.530 -16.817  0.00  0.00    +0.182 C 
ATOM     15  C   UNL     1      35.846 -24.609 -10.266  0.00  0.00    +0.248 C 
ATOM     16  H   UNL     1      34.179 -25.076 -11.373  0.00  0.00    +0.156 HD
ATOM     17  H   UNL     1      37.397 -21.709 -16.401  0.00  0.00    +0.148 HD
ATOM     18  H   UNL     1      33.759 -23.558 -16.417  0.00  0.00    +0.148 HD
ATOM     19  H   UNL     1      34.395 -25.683  -9.293  0.00  0.00    +0.146 HD
ATOM     20  H   UNL     1      35.761 -25.314  -8.343  0.00  0.00    +0.146 HD
ENDROOT
BRANCH   7  21
ATOM     21  C   UNL     1      33.375 -24.674 -13.738  0.00  0.00    +0.034 C 
BRANCH  21  22
ATOM     22  C   UNL     1      32.225 -23.792 -13.216  0.00  0.00    +0.031 C 
BRANCH  22  23
ATOM     23  C   UNL     1      31.070 -23.687 -14.182  0.00  0.00    -0.022 C 
ATOM     24  C   UNL     1      31.134 -22.774 -15.223  0.00  0.00    -0.005 C 
ATOM     25  C   UNL     1      29.965 -24.505 -14.011  0.00  0.00    -0.005 C 
ATOM     26  C   UNL     1      28.947 -23.494 -15.955  0.00  0.00    -0.022 C 
ATOM     27  C   UNL     1      30.066 -22.677 -16.115  0.00  0.00    -0.005 C 
ATOM     28  C   UNL     1      28.897 -24.409 -14.902  0.00  0.00    -0.005 C 
ATOM     29  C   UNL     1      27.806 -23.392 -16.908  0.00  0.00    +0.031 C 
ENDBRANCH  22  23
ENDBRANCH  21  22
ENDBRANCH   7  21
TORSDOF 3
ENDMDL
MODEL 7
REMARK VINA RESULT:      -9.8      2.991      6.412
REMARK  Name = 5326929
REMARK  3 active torsions:
REMARK  status: ('A' for Active; 'I' for Inactive)
REMARK    1  A    between atoms: C_7  and  C_21
REMARK    2  A    between atoms: C_21  and  C_22
REMARK    3  A    between atoms: C_22  and  C_23
REMARK                            x       y       z     vdW  Elec       q    Type
REMARK                         _______ _______ _______ _____ _____    ______ ____
ROOT
ATOM      1  O   UNL     1      37.128 -20.624 -19.200  0.00  0.00    -0.209 OA
ATOM      2  N   UNL     1      33.675 -22.295 -18.048  0.00  0.00    -0.275 N 
ATOM      3  N   UNL     1      37.933 -23.179 -14.680  0.00  0.00    -0.315 N 
ATOM      4  N   UNL     1      36.003 -24.092 -14.067  0.00  0.00    -0.316 N 
ATOM      5  N   UNL     1      34.905 -20.991 -19.613  0.00  0.00    -0.302 NA
ATOM      6  N   UNL     1      32.626 -21.447 -19.903  0.00  0.00    -0.320 N 
ATOM      7  C   UNL     1      34.690 -23.244 -16.045  0.00  0.00    +0.007 C 
ATOM      8  C   UNL     1      34.788 -22.491 -17.226  0.00  0.00    +0.060 C 
ATOM      9  C   UNL     1      35.840 -23.410 -15.252  0.00  0.00    +0.056 C 
ATOM     10  C   UNL     1      37.036 -22.828 -15.657  0.00  0.00    +0.060 C 
ATOM     11  C   UNL     1      36.014 -21.919 -17.601  0.00  0.00    +0.109 C 
ATOM     12  C   UNL     1      37.171 -22.075 -16.824  0.00  0.00    +0.029 C 
ATOM     13  C   UNL     1      36.060 -21.129 -18.865  0.00  0.00    +0.208 C 
ATOM     14  C   UNL     1      37.268 -23.933 -13.754  0.00  0.00    +0.182 C 
ATOM     15  C   UNL     1      33.800 -21.552 -19.200  0.00  0.00    +0.248 C 
ATOM     16  H   UNL     1      32.806 -22.687 -17.805  0.00  0.00    +0.156 HD
ATOM     17  H   UNL     1      38.885 -22.932 -14.651  0.00  0.00    +0.148 HD
ATOM     18  H   UNL     1      35.319 -24.591 -13.565  0.00  0.00    +0.148 HD
ATOM     19  H   UNL     1      31.808 -21.882 -19.565  0.00  0.00    +0.146 HD
ATOM     20  H   UNL     1      32.600 -20.937 -20.744  0.00  0.00    +0.146 HD
ENDROOT
BRANCH   7  21
ATOM     21  C   UNL     1      33.387 -23.856 -15.638  0.00  0.00    +0.034 C 
BRANCH  21  22
ATOM     22  C   UNL     1      32.612 -23.033 -14.592  0.00  0.00    +0.031 C 
BRANCH  22  23
ATOM     23  C   UNL     1      31.149 -22.873 -14.923  0.00  0.00    -0.022 C 
ATOM     24  C   UNL     1      30.250 -22.577 -13.910  0.00  0.00    -0.005 C 
ATOM     25  C   UNL     1      30.729 -23.024 -16.235  0.00  0.00    -0.005 C 
ATOM     26  C   UNL     1      28.461 -22.580 -15.534  0.00  0.00    -0.022 C 
ATOM     27  C   UNL     1      28.898 -22.430 -14.218  0.00  0.00    -0.005 C 
ATOM     28  C   UNL     1      29.377 -22.877 -16.543  0.00  0.00    -0.005 C 
ATOM     29  C   UNL     1      27.016 -22.421 -15.862  0.00  0.00    +0.031 C 
ENDBRANCH  22  23
ENDBRANCH  21  22
ENDBRANCH   7  21
TORSDOF 3
ENDMDL
MODEL 8
REMARK VINA RESULT:      -9.8     11.869     15.217
REMARK  Name = 5326929
REMARK  3 active torsions:
REMARK  status: ('A' for Active; 'I' for Inactive)
REMARK    1  A    between atoms: C_7  and  C_21
REMARK    2  A    between atoms: C_21  and  C_22
REMARK    3  A    between atoms: C_22  and  C_23
REMARK                            x       y       z     vdW  Elec       q    Type
REMARK                         _______ _______ _______ _____ _____    ______ ____
ROOT
ATOM      1  O   UNL     1      32.309  -5.099 -21.224  0.00  0.00    -0.209 OA
ATOM      2  N   UNL     1      32.242  -8.308 -23.620  0.00  0.00    -0.275 N 
ATOM      3  N   UNL     1      31.909  -9.404 -18.239  0.00  0.00    -0.315 N 
ATOM      4  N   UNL     1      31.873 -11.164 -19.595  0.00  0.00    -0.316 N 
ATOM      5  N   UNL     1      32.367  -5.947 -23.350  0.00  0.00    -0.302 NA
ATOM      6  N   UNL     1      32.413  -6.956 -25.464  0.00  0.00    -0.320 N 
ATOM      7  C   UNL     1      32.059  -9.836 -21.728  0.00  0.00    +0.007 C 
ATOM      8  C   UNL     1      32.160  -8.534 -22.242  0.00  0.00    +0.060 C 
ATOM      9  C   UNL     1      31.978 -10.009 -20.335  0.00  0.00    +0.056 C 
ATOM     10  C   UNL     1      32.002  -8.892 -19.508  0.00  0.00    +0.060 C 
ATOM     11  C   UNL     1      32.181  -7.430 -21.375  0.00  0.00    +0.109 C 
ATOM     12  C   UNL     1      32.103  -7.583 -19.982  0.00  0.00    +0.029 C 
ATOM     13  C   UNL     1      32.291  -6.069 -21.975  0.00  0.00    +0.208 C 
ATOM     14  C   UNL     1      31.834 -10.766 -18.344  0.00  0.00    +0.182 C 
ATOM     15  C   UNL     1      32.341  -7.021 -24.095  0.00  0.00    +0.248 C 
ATOM     16  H   UNL     1      32.230  -9.067 -24.246  0.00  0.00    +0.156 HD
ATOM     17  H   UNL     1      31.898  -8.886 -17.403  0.00  0.00    +0.148 HD
ATOM     18  H   UNL     1      31.835 -12.089 -19.930  0.00  0.00    +0.148 HD
ATOM     19  H   UNL     1      32.391  -7.784 -25.998  0.00  0.00    +0.146 HD
ATOM     20  H   UNL     1      32.486  -6.083 -25.913  0.00  0.00    +0.146 HD
ENDROOT
BRANCH   7  21
ATOM     21  C   UNL     1      32.035 -11.017 -22.647  0.00  0.00    +0.034 C 
BRANCH  21  22
ATOM     22  C   UNL     1      33.377 -11.283 -23.354  0.00  0.00    +0.031 C 
BRANCH  22  23
ATOM     23  C   UNL     1      33.704 -12.751 -23.478  0.00  0.00    -0.022 C 
ATOM     24  C   UNL     1      34.341 -13.397 -22.429  0.00  0.00    -0.005 C 
ATOM     25  C   UNL     1      33.362 -13.428 -24.638  0.00  0.00    -0.005 C 
ATOM     26  C   UNL     1      34.307 -15.447 -23.707  0.00  0.00    -0.022 C 
ATOM     27  C   UNL     1      34.644 -14.753 -22.545  0.00  0.00    -0.005 C 
ATOM     28  C   UNL     1      33.665 -14.784 -24.753  0.00  0.00    -0.005 C 
ATOM     29  C   UNL     1      34.629 -16.897 -23.829  0.00  0.00    +0.031 C 
ENDBRANCH  22  23
ENDBRANCH  21  22
ENDBRANCH   7  21
TORSDOF 3
ENDMDL
MODEL 9
REMARK VINA RESULT:      -9.7      3.017      6.497
REMARK  Name = 5326929
REMARK  3 active torsions:
REMARK  status: ('A' for Active; 'I' for Inactive)
REMARK    1  A    between atoms: C_7  and  C_21
REMARK    2  A    between atoms: C_21  and  C_22
REMARK    3  A    between atoms: C_22  and  C_23
REMARK                            x       y       z     vdW  Elec       q    Type
REMARK                         _______ _______ _______ _____ _____    ______ ____
ROOT
ATOM      1  O   UNL     1      29.146 -22.701 -16.670  0.00  0.00    -0.209 OA
ATOM      2  N   UNL     1      31.927 -23.887 -14.043  0.00  0.00    -0.275 N 
ATOM      3  N   UNL     1      33.890 -21.853 -18.762  0.00  0.00    -0.315 N 
ATOM      4  N   UNL     1      35.409 -22.518 -17.284  0.00  0.00    -0.316 N 
ATOM      5  N   UNL     1      29.637 -23.602 -14.623  0.00  0.00    -0.302 NA
ATOM      6  N   UNL     1      30.289 -24.509 -12.564  0.00  0.00    -0.320 N 
ATOM      7  C   UNL     1      33.747 -23.259 -15.540  0.00  0.00    +0.007 C 
ATOM      8  C   UNL     1      32.375 -23.362 -15.259  0.00  0.00    +0.060 C 
ATOM      9  C   UNL     1      34.146 -22.723 -16.777  0.00  0.00    +0.056 C 
ATOM     10  C   UNL     1      33.176 -22.313 -17.685  0.00  0.00    +0.060 C 
ATOM     11  C   UNL     1      31.426 -22.937 -16.202  0.00  0.00    +0.109 C 
ATOM     12  C   UNL     1      31.804 -22.401 -17.442  0.00  0.00    +0.029 C 
ATOM     13  C   UNL     1      29.983 -23.070 -15.852  0.00  0.00    +0.208 C 
ATOM     14  C   UNL     1      35.219 -21.997 -18.473  0.00  0.00    +0.182 C 
ATOM     15  C   UNL     1      30.577 -23.976 -13.795  0.00  0.00    +0.248 C 
ATOM     16  H   UNL     1      32.575 -24.191 -13.368  0.00  0.00    +0.156 HD
ATOM     17  H   UNL     1      33.514 -21.485 -19.594  0.00  0.00    +0.148 HD
ATOM     18  H   UNL     1      36.269 -22.720 -16.848  0.00  0.00    +0.148 HD
ATOM     19  H   UNL     1      31.020 -24.782 -11.962  0.00  0.00    +0.146 HD
ATOM     20  H   UNL     1      29.353 -24.620 -12.281  0.00  0.00    +0.146 HD
ENDROOT
BRANCH   7  21
ATOM     21  C   UNL     1      34.765 -23.709 -14.539  0.00  0.00    +0.034 C 
BRANCH  21  22
ATOM     22  C   UNL     1      35.156 -25.192 -14.673  0.00  0.00    +0.031 C 
BRANCH  22  23
ATOM     23  C   UNL     1      36.632 -25.438 -14.480  0.00  0.00    -0.022 C 
ATOM     24  C   UNL     1      37.074 -26.716 -14.172  0.00  0.00    -0.005 C 
ATOM     25  C   UNL     1      37.521 -24.384 -14.615  0.00  0.00    -0.005 C 
ATOM     26  C   UNL     1      39.345 -25.890 -14.125  0.00  0.00    -0.022 C 
ATOM     27  C   UNL     1      38.439 -26.943 -13.993  0.00  0.00    -0.005 C 
ATOM     28  C   UNL     1      38.885 -24.610 -14.436  0.00  0.00    -0.005 C 
ATOM     29  C   UNL     1      40.803 -26.133 -13.935  0.00  0.00    +0.031 C 
ENDBRANCH  22  23
ENDBRANCH  21  22
ENDBRANCH   7  21
TORSDOF 3
ENDMDL
