MODEL 1
REMARK VINA RESULT:     -11.2      0.000      0.000
REMARK  Name = 25195365
REMARK  5 active torsions:
REMARK  status: ('A' for Active; 'I' for Inactive)
REMARK    1  A    between atoms: C_1  and  C_3
REMARK    2  A    between atoms: C_1  and  C_17
REMARK    3  A    between atoms: C_4  and  C_9
REMARK    4  A    between atoms: C_6  and  O_15
REMARK    5  A    between atoms: C_18  and  C_23
REMARK                            x       y       z     vdW  Elec       q    Type
REMARK                         _______ _______ _______ _____ _____    ______ ____
ROOT
ATOM      1  C   UNL     1      32.966 -23.116 -17.245  0.00  0.00    +0.086 C 
ATOM      2  C   UNL     1      31.590 -22.779 -16.640  0.00  0.00    +0.019 C 
ENDROOT
BRANCH   1   3
ATOM      3  C   UNL     1      33.401 -22.131 -18.277  0.00  0.00    -0.007 C 
ATOM      4  C   UNL     1      34.213 -20.290 -20.208  0.00  0.00    +0.034 C 
ATOM      5  C   UNL     1      34.750 -22.024 -18.614  0.00  0.00    +0.034 C 
ATOM      6  C   UNL     1      35.157 -21.103 -19.580  0.00  0.00    +0.138 C 
ATOM      7  C   UNL     1      32.459 -21.318 -18.905  0.00  0.00    -0.003 C 
ATOM      8  C   UNL     1      32.864 -20.398 -19.871  0.00  0.00    +0.003 C 
BRANCH   4   9
ATOM      9  C   UNL     1      34.614 -19.327 -21.212  0.00  0.00    +0.003 C 
ATOM     10  C   UNL     1      34.527 -19.654 -22.566  0.00  0.00    +0.000 C 
ATOM     11  C   UNL     1      35.085 -18.072 -20.827  0.00  0.00    +0.000 C 
ATOM     12  C   UNL     1      34.912 -18.726 -23.533  0.00  0.00    +0.000 C 
ATOM     13  C   UNL     1      35.471 -17.145 -21.795  0.00  0.00    +0.000 C 
ATOM     14  C   UNL     1      35.384 -17.472 -23.147  0.00  0.00    +0.000 C 
ENDBRANCH   4   9
BRANCH   6  15
ATOM     15  O   UNL     1      36.482 -21.019 -19.891  0.00  0.00    -0.471 OA
ATOM     16  C   UNL     1      37.302 -20.236 -19.026  0.00  0.00    +0.252 C 
ENDBRANCH   6  15
ENDBRANCH   1   3
BRANCH   1  17
ATOM     17  C   UNL     1      33.964 -23.266 -16.154  0.00  0.00    -0.087 C 
ATOM     18  C   UNL     1      34.755 -23.399 -15.259  0.00  0.00    -0.076 C 
BRANCH  18  23
ATOM     19  N   UNL     1      37.915 -23.252 -13.318  0.00  0.00    -0.336 NA
ATOM     20  N   UNL     1      36.231 -24.337 -11.979  0.00  0.00    -0.317 NA
ATOM     21  N   UNL     1      34.043 -24.653 -12.820  0.00  0.00    -0.334 N 
ATOM     22  N   UNL     1      38.406 -24.018 -11.155  0.00  0.00    -0.283 N 
ATOM     23  C   UNL     1      35.694 -23.563 -14.193  0.00  0.00    +0.179 C 
ATOM     24  C   UNL     1      36.996 -23.119 -14.297  0.00  0.00    +0.120 C 
ATOM     25  C   UNL     1      35.365 -24.171 -12.999  0.00  0.00    +0.186 C 
ATOM     26  C   UNL     1      37.481 -22.443 -15.540  0.00  0.00    +0.064 C 
ATOM     27  C   UNL     1      37.471 -23.861 -12.202  0.00  0.00    +0.196 C 
ATOM     28  H   UNL     1      33.789 -25.090 -11.975  0.00  0.00    +0.144 HD
ATOM     29  H   UNL     1      33.380 -24.551 -13.541  0.00  0.00    +0.144 HD
ATOM     30  H   UNL     1      39.326 -23.688 -11.264  0.00  0.00    +0.156 HD
ATOM     31  H   UNL     1      38.135 -24.456 -10.316  0.00  0.00    +0.156 HD
ENDBRANCH  18  23
ENDBRANCH   1  17
TORSDOF 5
ENDMDL
MODEL 2
REMARK VINA RESULT:     -11.0      4.449      7.133
REMARK  Name = 25195365
REMARK  5 active torsions:
REMARK  status: ('A' for Active; 'I' for Inactive)
REMARK    1  A    between atoms: C_1  and  C_3
REMARK    2  A    between atoms: C_1  and  C_17
REMARK    3  A    between atoms: C_4  and  C_9
REMARK    4  A    between atoms: C_6  and  O_15
REMARK    5  A    between atoms: C_18  and  C_23
REMARK                            x       y       z     vdW  Elec       q    Type
REMARK                         _______ _______ _______ _____ _____    ______ ____
ROOT
ATOM      1  C   UNL     1      35.737 -18.020 -22.302  0.00  0.00    +0.086 C 
ATOM      2  C   UNL     1      35.577 -18.598 -23.721  0.00  0.00    +0.019 C 
ENDROOT
BRANCH   1   3
ATOM      3  C   UNL     1      35.040 -16.714 -22.126  0.00  0.00    -0.007 C 
ATOM      4  C   UNL     1      33.736 -14.271 -21.797  0.00  0.00    +0.034 C 
ATOM      5  C   UNL     1      34.530 -16.040 -23.236  0.00  0.00    +0.034 C 
ATOM      6  C   UNL     1      33.878 -14.818 -23.072  0.00  0.00    +0.138 C 
ATOM      7  C   UNL     1      34.898 -16.165 -20.852  0.00  0.00    -0.003 C 
ATOM      8  C   UNL     1      34.246 -14.944 -20.687  0.00  0.00    +0.003 C 
BRANCH   4   9
ATOM      9  C   UNL     1      33.063 -13.004 -21.604  0.00  0.00    +0.003 C 
ATOM     10  C   UNL     1      33.105 -12.032 -22.605  0.00  0.00    +0.000 C 
ATOM     11  C   UNL     1      32.373 -12.753 -20.417  0.00  0.00    +0.000 C 
ATOM     12  C   UNL     1      32.456 -10.812 -22.419  0.00  0.00    +0.000 C 
ATOM     13  C   UNL     1      31.725 -11.532 -20.232  0.00  0.00    +0.000 C 
ATOM     14  C   UNL     1      31.767 -10.562 -21.233  0.00  0.00    +0.000 C 
ENDBRANCH   4   9
BRANCH   6  15
ATOM     15  O   UNL     1      33.388 -14.182 -24.173  0.00  0.00    -0.471 OA
ATOM     16  C   UNL     1      33.350 -14.928 -25.388  0.00  0.00    +0.252 C 
ENDBRANCH   6  15
ENDBRANCH   1   3
BRANCH   1  17
ATOM     17  C   UNL     1      35.301 -19.030 -21.303  0.00  0.00    -0.087 C 
ATOM     18  C   UNL     1      34.941 -19.860 -20.512  0.00  0.00    -0.076 C 
BRANCH  18  23
ATOM     19  N   UNL     1      35.056 -22.509 -17.915  0.00  0.00    -0.336 NA
ATOM     20  N   UNL     1      32.755 -22.094 -18.499  0.00  0.00    -0.317 NA
ATOM     21  N   UNL     1      32.200 -20.471 -20.128  0.00  0.00    -0.334 N 
ATOM     22  N   UNL     1      33.318 -23.701 -16.884  0.00  0.00    -0.283 N 
ATOM     23  C   UNL     1      34.513 -20.853 -19.576  0.00  0.00    +0.179 C 
ATOM     24  C   UNL     1      35.413 -21.565 -18.810  0.00  0.00    +0.120 C 
ATOM     25  C   UNL     1      33.184 -21.163 -19.376  0.00  0.00    +0.186 C 
ATOM     26  C   UNL     1      36.884 -21.325 -18.932  0.00  0.00    +0.064 C 
ATOM     27  C   UNL     1      33.730 -22.719 -17.812  0.00  0.00    +0.196 C 
ATOM     28  H   UNL     1      31.247 -20.679 -19.999  0.00  0.00    +0.144 HD
ATOM     29  H   UNL     1      32.472 -19.784 -20.779  0.00  0.00    +0.144 HD
ATOM     30  H   UNL     1      33.988 -24.189 -16.354  0.00  0.00    +0.156 HD
ATOM     31  H   UNL     1      32.360 -23.896 -16.766  0.00  0.00    +0.156 HD
ENDBRANCH  18  23
ENDBRANCH   1  17
TORSDOF 5
ENDMDL
MODEL 3
REMARK VINA RESULT:     -10.7      4.834      8.004
REMARK  Name = 25195365
REMARK  5 active torsions:
REMARK  status: ('A' for Active; 'I' for Inactive)
REMARK    1  A    between atoms: C_1  and  C_3
REMARK    2  A    between atoms: C_1  and  C_17
REMARK    3  A    between atoms: C_4  and  C_9
REMARK    4  A    between atoms: C_6  and  O_15
REMARK    5  A    between atoms: C_18  and  C_23
REMARK                            x       y       z     vdW  Elec       q    Type
REMARK                         _______ _______ _______ _____ _____    ______ ____
ROOT
ATOM      1  C   UNL     1      34.531 -17.684 -24.253  0.00  0.00    +0.086 C 
ATOM      2  C   UNL     1      33.373 -18.408 -24.966  0.00  0.00    +0.019 C 
ENDROOT
BRANCH   1   3
ATOM      3  C   UNL     1      34.241 -16.244 -23.995  0.00  0.00    -0.007 C 
ATOM      4  C   UNL     1      33.698 -13.551 -23.514  0.00  0.00    +0.034 C 
ATOM      5  C   UNL     1      34.657 -15.651 -22.804  0.00  0.00    +0.034 C 
ATOM      6  C   UNL     1      34.385 -14.304 -22.563  0.00  0.00    +0.138 C 
ATOM      7  C   UNL     1      33.552 -15.490 -24.946  0.00  0.00    -0.003 C 
ATOM      8  C   UNL     1      33.281 -14.144 -24.706  0.00  0.00    +0.003 C 
BRANCH   4   9
ATOM      9  C   UNL     1      33.405 -12.152 -23.284  0.00  0.00    +0.003 C 
ATOM     10  C   UNL     1      32.301 -11.789 -22.511  0.00  0.00    +0.000 C 
ATOM     11  C   UNL     1      34.226 -11.167 -23.834  0.00  0.00    +0.000 C 
ATOM     12  C   UNL     1      32.019 -10.441 -22.289  0.00  0.00    +0.000 C 
ATOM     13  C   UNL     1      33.943  -9.820 -23.612  0.00  0.00    +0.000 C 
ATOM     14  C   UNL     1      32.840  -9.457 -22.839  0.00  0.00    +0.000 C 
ENDBRANCH   4   9
BRANCH   6  15
ATOM     15  O   UNL     1      34.805 -13.749 -21.390  0.00  0.00    -0.471 OA
ATOM     16  C   UNL     1      34.279 -14.304 -20.187  0.00  0.00    +0.252 C 
ENDBRANCH   6  15
ENDBRANCH   1   3
BRANCH   1  17
ATOM     17  C   UNL     1      34.886 -18.418 -23.011  0.00  0.00    -0.087 C 
ATOM     18  C   UNL     1      35.196 -19.010 -22.013  0.00  0.00    -0.076 C 
BRANCH  18  23
ATOM     19  N   UNL     1      34.964 -21.123 -18.970  0.00  0.00    -0.336 NA
ATOM     20  N   UNL     1      37.237 -20.358 -19.213  0.00  0.00    -0.317 NA
ATOM     21  N   UNL     1      37.853 -18.972 -21.027  0.00  0.00    -0.334 N 
ATOM     22  N   UNL     1      36.613 -21.735 -17.417  0.00  0.00    -0.283 N 
ATOM     23  C   UNL     1      35.570 -19.712 -20.824  0.00  0.00    +0.179 C 
ATOM     24  C   UNL     1      34.656 -20.445 -20.096  0.00  0.00    +0.120 C 
ATOM     25  C   UNL     1      36.858 -19.705 -20.331  0.00  0.00    +0.186 C 
ATOM     26  C   UNL     1      33.226 -20.534 -20.523  0.00  0.00    +0.064 C 
ATOM     27  C   UNL     1      36.253 -21.037 -18.592  0.00  0.00    +0.196 C 
ATOM     28  H   UNL     1      38.777 -18.954 -20.690  0.00  0.00    +0.144 HD
ATOM     29  H   UNL     1      37.617 -18.481 -21.848  0.00  0.00    +0.144 HD
ATOM     30  H   UNL     1      35.935 -22.247 -16.923  0.00  0.00    +0.156 HD
ATOM     31  H   UNL     1      37.543 -21.708 -17.094  0.00  0.00    +0.156 HD
ENDBRANCH  18  23
ENDBRANCH   1  17
TORSDOF 5
ENDMDL
MODEL 4
REMARK VINA RESULT:     -10.6      4.170      6.933
REMARK  Name = 25195365
REMARK  5 active torsions:
REMARK  status: ('A' for Active; 'I' for Inactive)
REMARK    1  A    between atoms: C_1  and  C_3
REMARK    2  A    between atoms: C_1  and  C_17
REMARK    3  A    between atoms: C_4  and  C_9
REMARK    4  A    between atoms: C_6  and  O_15
REMARK    5  A    between atoms: C_18  and  C_23
REMARK                            x       y       z     vdW  Elec       q    Type
REMARK                         _______ _______ _______ _____ _____    ______ ____
ROOT
ATOM      1  C   UNL     1      35.496 -18.693 -23.206  0.00  0.00    +0.086 C 
ATOM      2  C   UNL     1      35.067 -19.439 -24.484  0.00  0.00    +0.019 C 
ENDROOT
BRANCH   1   3
ATOM      3  C   UNL     1      34.980 -17.295 -23.152  0.00  0.00    -0.007 C 
ATOM      4  C   UNL     1      34.015 -14.680 -23.052  0.00  0.00    +0.034 C 
ATOM      5  C   UNL     1      35.079 -16.560 -21.970  0.00  0.00    +0.034 C 
ATOM      6  C   UNL     1      34.596 -15.252 -21.920  0.00  0.00    +0.138 C 
ATOM      7  C   UNL     1      34.398 -16.723 -24.282  0.00  0.00    -0.003 C 
ATOM      8  C   UNL     1      33.916 -15.415 -24.233  0.00  0.00    +0.003 C 
BRANCH   4   9
ATOM      9  C   UNL     1      33.507 -13.325 -23.021  0.00  0.00    +0.003 C 
ATOM     10  C   UNL     1      32.328 -13.038 -22.333  0.00  0.00    +0.000 C 
ATOM     11  C   UNL     1      34.197 -12.306 -23.679  0.00  0.00    +0.000 C 
ATOM     12  C   UNL     1      31.839 -11.732 -22.303  0.00  0.00    +0.000 C 
ATOM     13  C   UNL     1      33.707 -11.000 -23.649  0.00  0.00    +0.000 C 
ATOM     14  C   UNL     1      32.528 -10.714 -22.961  0.00  0.00    +0.000 C 
ENDBRANCH   4   9
BRANCH   6  15
ATOM     15  O   UNL     1      34.707 -14.556 -20.753  0.00  0.00    -0.471 OA
ATOM     16  C   UNL     1      33.706 -14.787 -19.764  0.00  0.00    +0.252 C 
ENDBRANCH   6  15
ENDBRANCH   1   3
BRANCH   1  17
ATOM     17  C   UNL     1      35.101 -19.486 -22.012  0.00  0.00    -0.087 C 
ATOM     18  C   UNL     1      34.802 -20.137 -21.048  0.00  0.00    -0.076 C 
BRANCH  18  23
ATOM     19  N   UNL     1      35.130 -22.228 -17.999  0.00  0.00    -0.336 NA
ATOM     20  N   UNL     1      32.789 -21.863 -18.442  0.00  0.00    -0.317 NA
ATOM     21  N   UNL     1      32.103 -20.575 -20.302  0.00  0.00    -0.334 N 
ATOM     22  N   UNL     1      33.483 -23.139 -16.598  0.00  0.00    -0.283 N 
ATOM     23  C   UNL     1      34.453 -20.913 -19.898  0.00  0.00    +0.179 C 
ATOM     24  C   UNL     1      35.413 -21.489 -19.092  0.00  0.00    +0.120 C 
ATOM     25  C   UNL     1      33.145 -21.136 -19.521  0.00  0.00    +0.186 C 
ATOM     26  C   UNL     1      36.869 -21.324 -19.392  0.00  0.00    +0.064 C 
ATOM     27  C   UNL     1      33.818 -22.372 -17.736  0.00  0.00    +0.196 C 
ATOM     28  H   UNL     1      31.163 -20.723 -20.049  0.00  0.00    +0.144 HD
ATOM     29  H   UNL     1      32.320 -20.038 -21.098  0.00  0.00    +0.144 HD
ATOM     30  H   UNL     1      34.195 -23.534 -16.045  0.00  0.00    +0.156 HD
ATOM     31  H   UNL     1      32.538 -23.276 -16.357  0.00  0.00    +0.156 HD
ENDBRANCH  18  23
ENDBRANCH   1  17
TORSDOF 5
ENDMDL
MODEL 5
REMARK VINA RESULT:     -10.4      4.236      7.184
REMARK  Name = 25195365
REMARK  5 active torsions:
REMARK  status: ('A' for Active; 'I' for Inactive)
REMARK    1  A    between atoms: C_1  and  C_3
REMARK    2  A    between atoms: C_1  and  C_17
REMARK    3  A    between atoms: C_4  and  C_9
REMARK    4  A    between atoms: C_6  and  O_15
REMARK    5  A    between atoms: C_18  and  C_23
REMARK                            x       y       z     vdW  Elec       q    Type
REMARK                         _______ _______ _______ _____ _____    ______ ____
ROOT
ATOM      1  C   UNL     1      35.730 -18.125 -22.377  0.00  0.00    +0.086 C 
ATOM      2  C   UNL     1      35.529 -18.719 -23.784  0.00  0.00    +0.019 C 
ENDROOT
BRANCH   1   3
ATOM      3  C   UNL     1      35.053 -16.808 -22.203  0.00  0.00    -0.007 C 
ATOM      4  C   UNL     1      33.786 -14.344 -21.876  0.00  0.00    +0.034 C 
ATOM      5  C   UNL     1      34.538 -16.136 -23.312  0.00  0.00    +0.034 C 
ATOM      6  C   UNL     1      33.904 -14.903 -23.149  0.00  0.00    +0.138 C 
ATOM      7  C   UNL     1      34.934 -16.247 -20.931  0.00  0.00    -0.003 C 
ATOM      8  C   UNL     1      34.301 -15.016 -20.768  0.00  0.00    +0.003 C 
BRANCH   4   9
ATOM      9  C   UNL     1      33.133 -13.067 -21.685  0.00  0.00    +0.003 C 
ATOM     10  C   UNL     1      32.447 -12.805 -20.499  0.00  0.00    +0.000 C 
ATOM     11  C   UNL     1      33.190 -12.097 -22.686  0.00  0.00    +0.000 C 
ATOM     12  C   UNL     1      31.818 -11.574 -20.314  0.00  0.00    +0.000 C 
ATOM     13  C   UNL     1      32.561 -10.866 -22.501  0.00  0.00    +0.000 C 
ATOM     14  C   UNL     1      31.875 -10.605 -21.315  0.00  0.00    +0.000 C 
ENDBRANCH   4   9
BRANCH   6  15
ATOM     15  O   UNL     1      33.409 -14.269 -24.249  0.00  0.00    -0.471 OA
ATOM     16  C   UNL     1      33.337 -15.027 -25.455  0.00  0.00    +0.252 C 
ENDBRANCH   6  15
ENDBRANCH   1   3
BRANCH   1  17
ATOM     17  C   UNL     1      35.305 -19.116 -21.354  0.00  0.00    -0.087 C 
ATOM     18  C   UNL     1      34.978 -19.932 -20.535  0.00  0.00    -0.076 C 
BRANCH  18  23
ATOM     19  N   UNL     1      32.865 -22.022 -18.313  0.00  0.00    -0.336 NA
ATOM     20  N   UNL     1      35.175 -22.617 -17.973  0.00  0.00    -0.317 NA
ATOM     21  N   UNL     1      36.890 -21.532 -19.188  0.00  0.00    -0.334 N 
ATOM     22  N   UNL     1      33.465 -23.688 -16.773  0.00  0.00    -0.283 N 
ATOM     23  C   UNL     1      34.594 -20.905 -19.560  0.00  0.00    +0.179 C 
ATOM     24  C   UNL     1      33.273 -21.116 -19.226  0.00  0.00    +0.120 C 
ATOM     25  C   UNL     1      35.511 -21.693 -18.895  0.00  0.00    +0.186 C 
ATOM     26  C   UNL     1      32.180 -20.327 -19.873  0.00  0.00    +0.064 C 
ATOM     27  C   UNL     1      33.854 -22.728 -17.734  0.00  0.00    +0.196 C 
ATOM     28  H   UNL     1      37.558 -22.085 -18.723  0.00  0.00    +0.144 HD
ATOM     29  H   UNL     1      37.176 -20.867 -19.855  0.00  0.00    +0.144 HD
ATOM     30  H   UNL     1      32.513 -23.811 -16.559  0.00  0.00    +0.156 HD
ATOM     31  H   UNL     1      34.147 -24.233 -16.318  0.00  0.00    +0.156 HD
ENDBRANCH  18  23
ENDBRANCH   1  17
TORSDOF 5
ENDMDL
MODEL 6
REMARK VINA RESULT:     -10.1      4.710      8.723
REMARK  Name = 25195365
REMARK  5 active torsions:
REMARK  status: ('A' for Active; 'I' for Inactive)
REMARK    1  A    between atoms: C_1  and  C_3
REMARK    2  A    between atoms: C_1  and  C_17
REMARK    3  A    between atoms: C_4  and  C_9
REMARK    4  A    between atoms: C_6  and  O_15
REMARK    5  A    between atoms: C_18  and  C_23
REMARK                            x       y       z     vdW  Elec       q    Type
REMARK                         _______ _______ _______ _____ _____    ______ ____
ROOT
ATOM      1  C   UNL     1      36.417 -22.048 -17.389  0.00  0.00    +0.086 C 
ATOM      2  C   UNL     1      37.312 -21.289 -16.391  0.00  0.00    +0.019 C 
ENDROOT
BRANCH   1   3
ATOM      3  C   UNL     1      35.155 -22.547 -16.770  0.00  0.00    -0.007 C 
ATOM      4  C   UNL     1      32.795 -23.482 -15.614  0.00  0.00    +0.034 C 
ATOM      5  C   UNL     1      35.122 -22.863 -15.412  0.00  0.00    +0.034 C 
ATOM      6  C   UNL     1      33.941 -23.331 -14.834  0.00  0.00    +0.138 C 
ATOM      7  C   UNL     1      34.009 -22.700 -17.550  0.00  0.00    -0.003 C 
ATOM      8  C   UNL     1      32.829 -23.166 -16.972  0.00  0.00    +0.003 C 
BRANCH   4   9
ATOM      9  C   UNL     1      31.561 -23.966 -15.034  0.00  0.00    +0.003 C 
ATOM     10  C   UNL     1      31.596 -24.885 -13.985  0.00  0.00    +0.000 C 
ATOM     11  C   UNL     1      30.335 -23.514 -15.524  0.00  0.00    +0.000 C 
ATOM     12  C   UNL     1      30.407 -25.351 -13.426  0.00  0.00    +0.000 C 
ATOM     13  C   UNL     1      29.146 -23.982 -14.965  0.00  0.00    +0.000 C 
ATOM     14  C   UNL     1      29.182 -24.900 -13.916  0.00  0.00    +0.000 C 
ENDBRANCH   4   9
BRANCH   6  15
ATOM     15  O   UNL     1      33.936 -23.631 -13.504  0.00  0.00    -0.471 OA
ATOM     16  C   UNL     1      35.193 -23.943 -12.906  0.00  0.00    +0.252 C 
ENDBRANCH   6  15
ENDBRANCH   1   3
BRANCH   1  17
ATOM     17  C   UNL     1      36.160 -21.191 -18.576  0.00  0.00    -0.087 C 
ATOM     18  C   UNL     1      35.937 -20.513 -19.543  0.00  0.00    -0.076 C 
BRANCH  18  23
ATOM     19  N   UNL     1      34.098 -18.882 -22.324  0.00  0.00    -0.336 NA
ATOM     20  N   UNL     1      36.408 -18.199 -22.414  0.00  0.00    -0.317 NA
ATOM     21  N   UNL     1      37.963 -19.000 -20.823  0.00  0.00    -0.334 N 
ATOM     22  N   UNL     1      34.855 -17.411 -23.988  0.00  0.00    -0.283 N 
ATOM     23  C   UNL     1      35.665 -19.709 -20.694  0.00  0.00    +0.179 C 
ATOM     24  C   UNL     1      34.401 -19.628 -21.240  0.00  0.00    +0.120 C 
ATOM     25  C   UNL     1      36.639 -18.966 -21.329  0.00  0.00    +0.186 C 
ATOM     26  C   UNL     1      33.256 -20.385 -20.647  0.00  0.00    +0.064 C 
ATOM     27  C   UNL     1      35.134 -18.203 -22.852  0.00  0.00    +0.196 C 
ATOM     28  H   UNL     1      38.671 -18.477 -21.262  0.00  0.00    +0.144 HD
ATOM     29  H   UNL     1      38.173 -19.547 -20.032  0.00  0.00    +0.144 HD
ATOM     30  H   UNL     1      33.941 -17.377 -24.351  0.00  0.00    +0.156 HD
ATOM     31  H   UNL     1      35.575 -16.893 -24.415  0.00  0.00    +0.156 HD
ENDBRANCH  18  23
ENDBRANCH   1  17
TORSDOF 5
ENDMDL
MODEL 7
REMARK VINA RESULT:      -9.8      5.599      9.465
REMARK  Name = 25195365
REMARK  5 active torsions:
REMARK  status: ('A' for Active; 'I' for Inactive)
REMARK    1  A    between atoms: C_1  and  C_3
REMARK    2  A    between atoms: C_1  and  C_17
REMARK    3  A    between atoms: C_4  and  C_9
REMARK    4  A    between atoms: C_6  and  O_15
REMARK    5  A    between atoms: C_18  and  C_23
REMARK                            x       y       z     vdW  Elec       q    Type
REMARK                         _______ _______ _______ _____ _____    ______ ____
ROOT
ATOM      1  C   UNL     1      36.279 -19.215 -21.636  0.00  0.00    +0.086 C 
ATOM      2  C   UNL     1      37.775 -19.006 -21.329  0.00  0.00    +0.019 C 
ENDROOT
BRANCH   1   3
ATOM      3  C   UNL     1      35.581 -20.015 -20.589  0.00  0.00    -0.007 C 
ATOM      4  C   UNL     1      34.272 -21.510 -18.631  0.00  0.00    +0.034 C 
ATOM      5  C   UNL     1      36.320 -20.696 -19.622  0.00  0.00    +0.034 C 
ATOM      6  C   UNL     1      35.666 -21.444 -18.643  0.00  0.00    +0.138 C 
ATOM      7  C   UNL     1      34.188 -20.082 -20.577  0.00  0.00    -0.003 C 
ATOM      8  C   UNL     1      33.533 -20.829 -19.599  0.00  0.00    +0.003 C 
BRANCH   4   9
ATOM      9  C   UNL     1      33.574 -22.281 -17.625  0.00  0.00    +0.003 C 
ATOM     10  C   UNL     1      34.289 -23.109 -16.760  0.00  0.00    +0.000 C 
ATOM     11  C   UNL     1      32.186 -22.196 -17.520  0.00  0.00    +0.000 C 
ATOM     12  C   UNL     1      33.617 -23.851 -15.790  0.00  0.00    +0.000 C 
ATOM     13  C   UNL     1      31.513 -22.939 -16.550  0.00  0.00    +0.000 C 
ATOM     14  C   UNL     1      32.229 -23.766 -15.685  0.00  0.00    +0.000 C 
ENDBRANCH   4   9
BRANCH   6  15
ATOM     15  O   UNL     1      36.413 -22.098 -17.709  0.00  0.00    -0.471 OA
ATOM     16  C   UNL     1      37.115 -21.295 -16.763  0.00  0.00    +0.252 C 
ENDBRANCH   6  15
ENDBRANCH   1   3
BRANCH   1  17
ATOM     17  C   UNL     1      35.630 -17.898 -21.865  0.00  0.00    -0.087 C 
ATOM     18  C   UNL     1      35.124 -16.827 -22.063  0.00  0.00    -0.076 C 
BRANCH  18  23
ATOM     19  N   UNL     1      33.544 -13.977 -23.841  0.00  0.00    -0.336 NA
ATOM     20  N   UNL     1      33.751 -13.417 -21.506  0.00  0.00    -0.317 NA
ATOM     21  N   UNL     1      34.711 -14.949 -19.981  0.00  0.00    -0.334 N 
ATOM     22  N   UNL     1      32.800 -11.905 -23.029  0.00  0.00    -0.283 N 
ATOM     23  C   UNL     1      34.524 -15.551 -22.305  0.00  0.00    +0.179 C 
ATOM     24  C   UNL     1      34.114 -15.169 -23.566  0.00  0.00    +0.120 C 
ATOM     25  C   UNL     1      34.315 -14.626 -21.304  0.00  0.00    +0.186 C 
ATOM     26  C   UNL     1      34.284 -16.080 -24.739  0.00  0.00    +0.064 C 
ATOM     27  C   UNL     1      33.394 -13.162 -22.779  0.00  0.00    +0.196 C 
ATOM     28  H   UNL     1      34.571 -14.301 -19.253  0.00  0.00    +0.144 HD
ATOM     29  H   UNL     1      35.127 -15.821 -19.792  0.00  0.00    +0.144 HD
ATOM     30  H   UNL     1      32.520 -11.666 -23.941  0.00  0.00    +0.156 HD
ATOM     31  H   UNL     1      32.665 -11.269 -22.289  0.00  0.00    +0.156 HD
ENDBRANCH  18  23
ENDBRANCH   1  17
TORSDOF 5
ENDMDL
MODEL 8
REMARK VINA RESULT:      -9.7      9.349     12.716
REMARK  Name = 25195365
REMARK  5 active torsions:
REMARK  status: ('A' for Active; 'I' for Inactive)
REMARK    1  A    between atoms: C_1  and  C_3
REMARK    2  A    between atoms: C_1  and  C_17
REMARK    3  A    between atoms: C_4  and  C_9
REMARK    4  A    between atoms: C_6  and  O_15
REMARK    5  A    between atoms: C_18  and  C_23
REMARK                            x       y       z     vdW  Elec       q    Type
REMARK                         _______ _______ _______ _____ _____    ______ ____
ROOT
ATOM      1  C   UNL     1      31.767 -11.462 -20.982  0.00  0.00    +0.086 C 
ATOM      2  C   UNL     1      31.843 -11.187 -19.468  0.00  0.00    +0.019 C 
ENDROOT
BRANCH   1   3
ATOM      3  C   UNL     1      32.145 -10.277 -21.805  0.00  0.00    -0.007 C 
ATOM      4  C   UNL     1      32.854  -8.062 -23.345  0.00  0.00    +0.034 C 
ATOM      5  C   UNL     1      32.222  -9.015 -21.217  0.00  0.00    +0.034 C 
ATOM      6  C   UNL     1      32.576  -7.907 -21.987  0.00  0.00    +0.138 C 
ATOM      7  C   UNL     1      32.423 -10.432 -23.163  0.00  0.00    -0.003 C 
ATOM      8  C   UNL     1      32.777  -9.325 -23.933  0.00  0.00    +0.003 C 
BRANCH   4   9
ATOM      9  C   UNL     1      33.223  -6.926 -24.162  0.00  0.00    +0.003 C 
ATOM     10  C   UNL     1      32.234  -6.172 -24.795  0.00  0.00    +0.000 C 
ATOM     11  C   UNL     1      34.566  -6.585 -24.318  0.00  0.00    +0.000 C 
ATOM     12  C   UNL     1      32.589  -5.077 -25.582  0.00  0.00    +0.000 C 
ATOM     13  C   UNL     1      34.921  -5.489 -25.106  0.00  0.00    +0.000 C 
ATOM     14  C   UNL     1      33.932  -4.736 -25.737  0.00  0.00    +0.000 C 
ENDBRANCH   4   9
BRANCH   6  15
ATOM     15  O   UNL     1      32.645  -6.685 -21.387  0.00  0.00    -0.471 OA
ATOM     16  C   UNL     1      31.409  -6.046 -21.075  0.00  0.00    +0.252 C 
ENDBRANCH   6  15
ENDBRANCH   1   3
BRANCH   1  17
ATOM     17  C   UNL     1      32.582 -12.660 -21.311  0.00  0.00    -0.087 C 
ATOM     18  C   UNL     1      33.223 -13.641 -21.575  0.00  0.00    -0.076 C 
BRANCH  18  23
ATOM     19  N   UNL     1      34.848 -16.338 -23.541  0.00  0.00    -0.336 NA
ATOM     20  N   UNL     1      35.312 -16.694 -21.203  0.00  0.00    -0.317 NA
ATOM     21  N   UNL     1      34.469 -15.207 -19.568  0.00  0.00    -0.334 N 
ATOM     22  N   UNL     1      36.144 -18.162 -22.835  0.00  0.00    -0.283 N 
ATOM     23  C   UNL     1      33.980 -14.812 -21.893  0.00  0.00    +0.179 C 
ATOM     24  C   UNL     1      34.143 -15.241 -23.195  0.00  0.00    +0.120 C 
ATOM     25  C   UNL     1      34.593 -15.586 -20.930  0.00  0.00    +0.186 C 
ATOM     26  C   UNL     1      33.528 -14.491 -24.333  0.00  0.00    +0.064 C 
ATOM     27  C   UNL     1      35.398 -17.007 -22.510  0.00  0.00    +0.196 C 
ATOM     28  H   UNL     1      34.900 -15.746 -18.867  0.00  0.00    +0.144 HD
ATOM     29  H   UNL     1      33.952 -14.405 -19.327  0.00  0.00    +0.144 HD
ATOM     30  H   UNL     1      36.239 -18.437 -23.774  0.00  0.00    +0.156 HD
ATOM     31  H   UNL     1      36.569 -18.690 -22.121  0.00  0.00    +0.156 HD
ENDBRANCH  18  23
ENDBRANCH   1  17
TORSDOF 5
ENDMDL
MODEL 9
REMARK VINA RESULT:      -9.6     10.084     13.423
REMARK  Name = 25195365
REMARK  5 active torsions:
REMARK  status: ('A' for Active; 'I' for Inactive)
REMARK    1  A    between atoms: C_1  and  C_3
REMARK    2  A    between atoms: C_1  and  C_17
REMARK    3  A    between atoms: C_4  and  C_9
REMARK    4  A    between atoms: C_6  and  O_15
REMARK    5  A    between atoms: C_18  and  C_23
REMARK                            x       y       z     vdW  Elec       q    Type
REMARK                         _______ _______ _______ _____ _____    ______ ____
ROOT
ATOM      1  C   UNL     1      31.521 -10.803 -21.478  0.00  0.00    +0.086 C 
ATOM      2  C   UNL     1      31.566 -10.571 -19.956  0.00  0.00    +0.019 C 
ENDROOT
BRANCH   1   3
ATOM      3  C   UNL     1      32.016  -9.632 -22.257  0.00  0.00    -0.007 C 
ATOM      4  C   UNL     1      32.941  -7.441 -23.715  0.00  0.00    +0.034 C 
ATOM      5  C   UNL     1      32.467  -8.492 -21.592  0.00  0.00    +0.034 C 
ATOM      6  C   UNL     1      32.929  -7.396 -22.321  0.00  0.00    +0.138 C 
ATOM      7  C   UNL     1      32.027  -9.676 -23.651  0.00  0.00    -0.003 C 
ATOM      8  C   UNL     1      32.490  -8.582 -24.380  0.00  0.00    +0.003 C 
BRANCH   4   9
ATOM      9  C   UNL     1      33.416  -6.316 -24.491  0.00  0.00    +0.003 C 
ATOM     10  C   UNL     1      34.744  -6.271 -24.916  0.00  0.00    +0.000 C 
ATOM     11  C   UNL     1      32.545  -5.274 -24.815  0.00  0.00    +0.000 C 
ATOM     12  C   UNL     1      35.201  -5.187 -25.664  0.00  0.00    +0.000 C 
ATOM     13  C   UNL     1      33.003  -4.190 -25.563  0.00  0.00    +0.000 C 
ATOM     14  C   UNL     1      34.331  -4.146 -25.987  0.00  0.00    +0.000 C 
ENDBRANCH   4   9
BRANCH   6  15
ATOM     15  O   UNL     1      33.366  -6.295 -21.646  0.00  0.00    -0.471 OA
ATOM     16  C   UNL     1      32.377  -5.502 -20.993  0.00  0.00    +0.252 C 
ENDBRANCH   6  15
ENDBRANCH   1   3
BRANCH   1  17
ATOM     17  C   UNL     1      32.256 -12.051 -21.811  0.00  0.00    -0.087 C 
ATOM     18  C   UNL     1      32.870 -13.049 -22.079  0.00  0.00    -0.076 C 
BRANCH  18  23
ATOM     19  N   UNL     1      35.061 -16.020 -21.695  0.00  0.00    -0.336 NA
ATOM     20  N   UNL     1      34.306 -15.902 -23.981  0.00  0.00    -0.317 NA
ATOM     21  N   UNL     1      32.878 -14.155 -24.688  0.00  0.00    -0.334 N 
ATOM     22  N   UNL     1      35.724 -17.631 -23.267  0.00  0.00    -0.283 N 
ATOM     23  C   UNL     1      33.606 -14.234 -22.394  0.00  0.00    +0.179 C 
ATOM     24  C   UNL     1      34.351 -14.900 -21.443  0.00  0.00    +0.120 C 
ATOM     25  C   UNL     1      33.621 -14.786 -23.658  0.00  0.00    +0.186 C 
ATOM     26  C   UNL     1      34.420 -14.405 -20.034  0.00  0.00    +0.064 C 
ATOM     27  C   UNL     1      34.994 -16.460 -22.966  0.00  0.00    +0.196 C 
ATOM     28  H   UNL     1      32.876 -14.533 -25.597  0.00  0.00    +0.144 HD
ATOM     29  H   UNL     1      32.364 -13.338 -24.494  0.00  0.00    +0.144 HD
ATOM     30  H   UNL     1      36.244 -18.081 -22.564  0.00  0.00    +0.156 HD
ATOM     31  H   UNL     1      35.711 -17.998 -24.181  0.00  0.00    +0.156 HD
ENDBRANCH  18  23
ENDBRANCH   1  17
TORSDOF 5
ENDMDL
