MODEL 1
REMARK VINA RESULT:     -12.4      0.000      0.000
REMARK  Name = 24752833
REMARK  4 active torsions:
REMARK  status: ('A' for Active; 'I' for Inactive)
REMARK    1  A    between atoms: C_1  and  N_8
REMARK    2  A    between atoms: C_2  and  N_23
REMARK    3  A    between atoms: C_9  and  C_14
REMARK    4  A    between atoms: C_24  and  C_28
REMARK                            x       y       z     vdW  Elec       q    Type
REMARK                         _______ _______ _______ _____ _____    ______ ____
ROOT
ATOM      1  C   UNL     1      31.388 -23.164 -14.863  0.00  0.00    +0.090 C 
ATOM      2  C   UNL     1      30.944 -23.267 -16.334  0.00  0.00    +0.090 C 
ATOM      3  C   UNL     1      30.443 -23.940 -13.940  0.00  0.00    +0.021 C 
ATOM      4  C   UNL     1      29.476 -22.867 -16.510  0.00  0.00    +0.021 C 
ATOM      5  C   UNL     1      28.988 -23.524 -14.128  0.00  0.00    +0.002 C 
ATOM      6  C   UNL     1      28.555 -23.655 -15.584  0.00  0.00    +0.002 C 
ENDROOT
BRANCH   1   8
ATOM      7  O   UNL     1      32.787 -23.503 -12.379  0.00  0.00    -0.267 OA
ATOM      8  N   UNL     1      32.743 -23.643 -14.693  0.00  0.00    -0.298 N 
ATOM      9  C   UNL     1      33.332 -23.773 -13.446  0.00  0.00    +0.282 C 
ATOM     10  H   UNL     1      33.264 -23.886 -15.492  0.00  0.00    +0.150 HD
BRANCH   9  14
ATOM     11  S   UNL     1      35.741 -24.025 -14.822  0.00  0.00    -0.074 S 
ATOM     12  N   UNL     1      39.081 -26.057 -13.722  0.00  0.00    +0.387 N 
ATOM     13  N   UNL     1      35.283 -24.867 -12.410  0.00  0.00    -0.399 NA
ATOM     14  C   UNL     1      34.738 -24.254 -13.441  0.00  0.00    +0.210 C 
ATOM     15  C   UNL     1      36.587 -25.176 -12.730  0.00  0.00    +0.093 C 
ATOM     16  C   UNL     1      37.001 -24.804 -13.991  0.00  0.00    +0.082 C 
ATOM     17  C   UNL     1      37.491 -25.894 -11.793  0.00  0.00    +0.032 C 
ATOM     18  C   UNL     1      38.377 -25.026 -14.523  0.00  0.00    -0.059 C 
ATOM     19  C   UNL     1      38.960 -25.799 -12.269  0.00  0.00    -0.070 C 
ATOM     20  C   UNL     1      40.486 -26.135 -14.117  0.00  0.00    -0.101 C 
ATOM     21  H   UNL     1      38.634 -26.956 -13.908  0.00  0.00    -0.080 HD
ENDBRANCH   9  14
ENDBRANCH   1   8
BRANCH   2  23
ATOM     22  O   UNL     1      33.389 -24.065 -17.610  0.00  0.00    -0.269 OA
ATOM     23  N   UNL     1      31.780 -22.452 -17.187  0.00  0.00    -0.300 N 
ATOM     24  C   UNL     1      32.947 -22.929 -17.759  0.00  0.00    +0.259 C 
ATOM     25  H   UNL     1      31.509 -21.522 -17.368  0.00  0.00    +0.150 HD
BRANCH  24  28
ATOM     26 CL   UNL     1      35.923 -17.582 -22.471  0.00  0.00    -0.082 Cl
ATOM     27  N   UNL     1      35.068 -21.821 -18.543  0.00  0.00    -0.309 N 
ATOM     28  C   UNL     1      33.706 -21.958 -18.589  0.00  0.00    +0.102 C 
ATOM     29  C   UNL     1      33.220 -21.058 -19.509  0.00  0.00    +0.020 C 
ATOM     30  C   UNL     1      35.476 -20.843 -19.422  0.00  0.00    +0.048 C 
ATOM     31  C   UNL     1      34.328 -20.346 -20.045  0.00  0.00    +0.016 C 
ATOM     32  C   UNL     1      36.759 -20.365 -19.711  0.00  0.00    +0.015 C 
ATOM     33  C   UNL     1      34.467 -19.321 -21.003  0.00  0.00    +0.013 C 
ATOM     34  C   UNL     1      35.744 -18.834 -21.302  0.00  0.00    +0.058 C 
ATOM     35  C   UNL     1      36.871 -19.350 -20.665  0.00  0.00    +0.013 C 
ATOM     36  H   UNL     1      35.668 -22.345 -17.966  0.00  0.00    +0.152 HD
ENDBRANCH  24  28
ENDBRANCH   2  23
TORSDOF 4
ENDMDL
MODEL 2
REMARK VINA RESULT:     -10.2      3.031      8.273
REMARK  Name = 24752833
REMARK  4 active torsions:
REMARK  status: ('A' for Active; 'I' for Inactive)
REMARK    1  A    between atoms: C_1  and  N_8
REMARK    2  A    between atoms: C_2  and  N_23
REMARK    3  A    between atoms: C_9  and  C_14
REMARK    4  A    between atoms: C_24  and  C_28
REMARK                            x       y       z     vdW  Elec       q    Type
REMARK                         _______ _______ _______ _____ _____    ______ ____
ROOT
ATOM      1  C   UNL     1      37.491 -23.940 -14.811  0.00  0.00    +0.090 C 
ATOM      2  C   UNL     1      36.706 -25.263 -14.798  0.00  0.00    +0.090 C 
ATOM      3  C   UNL     1      38.996 -24.182 -14.650  0.00  0.00    +0.021 C 
ATOM      4  C   UNL     1      37.046 -26.109 -13.567  0.00  0.00    +0.021 C 
ATOM      5  C   UNL     1      39.313 -25.022 -13.417  0.00  0.00    +0.002 C 
ATOM      6  C   UNL     1      38.548 -26.340 -13.431  0.00  0.00    +0.002 C 
ENDROOT
BRANCH   1   8
ATOM      7  O   UNL     1      35.452 -21.960 -15.223  0.00  0.00    -0.267 OA
ATOM      8  N   UNL     1      37.241 -23.197 -16.027  0.00  0.00    -0.298 N 
ATOM      9  C   UNL     1      36.228 -22.257 -16.128  0.00  0.00    +0.282 C 
ATOM     10  H   UNL     1      37.813 -23.364 -16.812  0.00  0.00    +0.150 HD
BRANCH   9  14
ATOM     11  S   UNL     1      34.691 -21.887 -18.422  0.00  0.00    -0.074 S 
ATOM     12  N   UNL     1      35.665 -19.893 -21.823  0.00  0.00    +0.387 N 
ATOM     13  N   UNL     1      36.990 -20.780 -17.948  0.00  0.00    -0.399 NA
ATOM     14  C   UNL     1      36.085 -21.599 -17.452  0.00  0.00    +0.210 C 
ATOM     15  C   UNL     1      36.553 -20.346 -19.179  0.00  0.00    +0.093 C 
ATOM     16  C   UNL     1      35.339 -20.846 -19.597  0.00  0.00    +0.082 C 
ATOM     17  C   UNL     1      37.347 -19.419 -20.029  0.00  0.00    +0.032 C 
ATOM     18  C   UNL     1      34.679 -20.485 -20.887  0.00  0.00    -0.059 C 
ATOM     19  C   UNL     1      36.478 -18.842 -21.170  0.00  0.00    -0.070 C 
ATOM     20  C   UNL     1      34.988 -19.364 -23.005  0.00  0.00    -0.101 C 
ATOM     21  H   UNL     1      36.305 -20.634 -22.112  0.00  0.00    -0.080 HD
ENDBRANCH   9  14
ENDBRANCH   1   8
BRANCH   2  23
ATOM     22  O   UNL     1      35.064 -24.234 -12.680  0.00  0.00    -0.269 OA
ATOM     23  N   UNL     1      35.281 -25.022 -14.849  0.00  0.00    -0.300 N 
ATOM     24  C   UNL     1      34.574 -24.521 -13.769  0.00  0.00    +0.259 C 
ATOM     25  H   UNL     1      34.796 -25.221 -15.682  0.00  0.00    +0.150 HD
BRANCH  24  28
ATOM     26 CL   UNL     1      27.207 -22.624 -15.099  0.00  0.00    -0.082 Cl
ATOM     27  N   UNL     1      32.201 -25.360 -13.795  0.00  0.00    -0.309 N 
ATOM     28  C   UNL     1      33.112 -24.354 -13.973  0.00  0.00    +0.102 C 
ATOM     29  C   UNL     1      32.428 -23.225 -14.361  0.00  0.00    +0.020 C 
ATOM     30  C   UNL     1      30.930 -24.901 -14.060  0.00  0.00    +0.048 C 
ATOM     31  C   UNL     1      31.045 -23.556 -14.420  0.00  0.00    +0.016 C 
ATOM     32  C   UNL     1      29.700 -25.567 -14.011  0.00  0.00    +0.015 C 
ATOM     33  C   UNL     1      29.877 -22.839 -14.747  0.00  0.00    +0.013 C 
ATOM     34  C   UNL     1      28.640 -23.492 -14.701  0.00  0.00    +0.058 C 
ATOM     35  C   UNL     1      28.555 -24.835 -14.339  0.00  0.00    +0.013 C 
ATOM     36  H   UNL     1      32.421 -26.277 -13.516  0.00  0.00    +0.152 HD
ENDBRANCH  24  28
ENDBRANCH   2  23
TORSDOF 4
ENDMDL
