MODEL 1
REMARK VINA RESULT:     -12.1      0.000      0.000
REMARK  Name = 5326869
REMARK  6 active torsions:
REMARK  status: ('A' for Active; 'I' for Inactive)
REMARK    1  A    between atoms: N_2  and  C_11
REMARK    2  A    between atoms: C_3  and  C_25
REMARK    3  A    between atoms: N_5  and  C_14
REMARK    4  A    between atoms: C_14  and  C_15
REMARK    5  A    between atoms: C_15  and  C_17
REMARK    6  A    between atoms: C_23  and  N_30
REMARK                            x       y       z     vdW  Elec       q    Type
REMARK                         _______ _______ _______ _____ _____    ______ ____
ROOT
ATOM      1  O   UNL     1      31.572 -13.692 -20.539  0.00  0.00    -0.270 OA
ATOM      2  N   UNL     1      33.191 -12.887 -22.042  0.00  0.00    -0.280 N 
ATOM      3  C   UNL     1      32.255 -12.786 -21.005  0.00  0.00    +0.250 C 
ATOM      4  H   UNL     1      33.652 -12.053 -22.290  0.00  0.00    +0.155 HD
ENDROOT
BRANCH   2  11
ATOM      5  N   UNL     1      35.175 -17.365 -22.507  0.00  0.00    -0.286 N 
ATOM      6  C   UNL     1      34.542 -16.199 -22.876  0.00  0.00    +0.053 C 
ATOM      7  C   UNL     1      34.262 -16.297 -24.240  0.00  0.00    +0.015 C 
ATOM      8  C   UNL     1      35.305 -18.194 -23.589  0.00  0.00    +0.065 C 
ATOM      9  C   UNL     1      34.200 -15.077 -22.112  0.00  0.00    +0.029 C 
ATOM     10  C   UNL     1      34.749 -17.561 -24.677  0.00  0.00    +0.017 C 
ATOM     11  C   UNL     1      33.552 -14.024 -22.766  0.00  0.00    +0.052 C 
ATOM     12  C   UNL     1      33.607 -15.224 -24.876  0.00  0.00    +0.003 C 
ATOM     13  C   UNL     1      33.259 -14.095 -24.126  0.00  0.00    +0.015 C 
BRANCH   5  14
ATOM     14  C   UNL     1      35.641 -17.684 -21.175  0.00  0.00    +0.100 C 
BRANCH  14  15
ATOM     15  C   UNL     1      36.252 -19.085 -21.060  0.00  0.00    +0.048 C 
BRANCH  15  17
ATOM     16  N   UNL     1      33.759 -21.863 -18.956  0.00  0.00    -0.242 NA
ATOM     17  C   UNL     1      35.374 -20.062 -20.319  0.00  0.00    -0.017 C 
ATOM     18  C   UNL     1      34.000 -19.949 -20.411  0.00  0.00    +0.016 C 
ATOM     19  C   UNL     1      35.957 -21.059 -19.559  0.00  0.00    +0.016 C 
ATOM     20  C   UNL     1      33.238 -20.871 -19.712  0.00  0.00    +0.099 C 
ATOM     21  C   UNL     1      35.108 -21.931 -18.898  0.00  0.00    +0.099 C 
ENDBRANCH  15  17
ENDBRANCH  14  15
ENDBRANCH   5  14
ENDBRANCH   2  11
BRANCH   3  25
ATOM     22  F   UNL     1      31.979  -9.784 -17.224  0.00  0.00    -0.204 F 
ATOM     23  C   UNL     1      31.691  -9.088 -20.783  0.00  0.00    +0.050 C 
ATOM     24  C   UNL     1      31.863 -10.369 -21.310  0.00  0.00    +0.019 C 
ATOM     25  C   UNL     1      32.069 -11.422 -20.444  0.00  0.00    +0.057 C 
ATOM     26  C   UNL     1      31.730  -8.891 -19.404  0.00  0.00    +0.044 C 
ATOM     27  C   UNL     1      32.112 -11.254 -19.076  0.00  0.00    +0.034 C 
ATOM     28  C   UNL     1      31.940  -9.974 -18.549  0.00  0.00    +0.142 C 
BRANCH  23  30
ATOM     29  O   UNL     1      31.331  -5.804 -23.384  0.00  0.00    -0.350 OA
ATOM     30  N   UNL     1      31.480  -8.003 -21.639  0.00  0.00    -0.303 N 
ATOM     31  C   UNL     1      31.532  -6.634 -21.113  0.00  0.00    +0.123 C 
ATOM     32  C   UNL     1      31.867  -8.146 -23.050  0.00  0.00    +0.123 C 
ATOM     33  C   UNL     1      30.804  -5.689 -22.063  0.00  0.00    +0.164 C 
ATOM     34  C   UNL     1      31.121  -7.121 -23.896  0.00  0.00    +0.164 C 
ENDBRANCH  23  30
ENDBRANCH   3  25
TORSDOF 6
ENDMDL
MODEL 2
REMARK VINA RESULT:     -11.9      4.498     11.268
REMARK  Name = 5326869
REMARK  6 active torsions:
REMARK  status: ('A' for Active; 'I' for Inactive)
REMARK    1  A    between atoms: N_2  and  C_11
REMARK    2  A    between atoms: C_3  and  C_25
REMARK    3  A    between atoms: N_5  and  C_14
REMARK    4  A    between atoms: C_14  and  C_15
REMARK    5  A    between atoms: C_15  and  C_17
REMARK    6  A    between atoms: C_23  and  N_30
REMARK                            x       y       z     vdW  Elec       q    Type
REMARK                         _______ _______ _______ _____ _____    ______ ____
ROOT
ATOM      1  O   UNL     1      32.741 -21.006 -20.111  0.00  0.00    -0.270 OA
ATOM      2  N   UNL     1      34.902 -20.080 -20.108  0.00  0.00    -0.280 N 
ATOM      3  C   UNL     1      33.865 -20.896 -19.635  0.00  0.00    +0.250 C 
ATOM      4  H   UNL     1      35.745 -20.115 -19.599  0.00  0.00    +0.155 HD
ENDROOT
BRANCH   2  11
ATOM      5  N   UNL     1      34.866 -15.648 -22.241  0.00  0.00    -0.286 N 
ATOM      6  C   UNL     1      34.871 -17.021 -22.139  0.00  0.00    +0.053 C 
ATOM      7  C   UNL     1      34.860 -17.529 -23.439  0.00  0.00    +0.015 C 
ATOM      8  C   UNL     1      34.851 -15.273 -23.558  0.00  0.00    +0.065 C 
ATOM      9  C   UNL     1      34.884 -17.842 -21.006  0.00  0.00    +0.029 C 
ATOM     10  C   UNL     1      34.848 -16.415 -24.324  0.00  0.00    +0.017 C 
ATOM     11  C   UNL     1      34.887 -19.225 -21.210  0.00  0.00    +0.052 C 
ATOM     12  C   UNL     1      34.863 -18.927 -23.620  0.00  0.00    +0.003 C 
ATOM     13  C   UNL     1      34.877 -19.761 -22.496  0.00  0.00    +0.015 C 
BRANCH   5  14
ATOM     14  C   UNL     1      34.875 -14.721 -21.130  0.00  0.00    +0.100 C 
BRANCH  14  15
ATOM     15  C   UNL     1      33.527 -14.618 -20.409  0.00  0.00    +0.048 C 
BRANCH  15  17
ATOM     16  N   UNL     1      31.355 -11.051 -21.369  0.00  0.00    -0.242 NA
ATOM     17  C   UNL     1      32.762 -13.363 -20.747  0.00  0.00    -0.017 C 
ATOM     18  C   UNL     1      32.308 -12.547 -19.728  0.00  0.00    +0.016 C 
ATOM     19  C   UNL     1      32.526 -13.045 -22.071  0.00  0.00    +0.016 C 
ATOM     20  C   UNL     1      31.611 -11.406 -20.090  0.00  0.00    +0.099 C 
ATOM     21  C   UNL     1      31.819 -11.882 -22.329  0.00  0.00    +0.099 C 
ENDBRANCH  15  17
ENDBRANCH  14  15
ENDBRANCH   5  14
ENDBRANCH   2  11
BRANCH   3  25
ATOM     22  F   UNL     1      37.068 -22.748 -16.521  0.00  0.00    -0.204 F 
ATOM     23  C   UNL     1      33.435 -22.950 -16.531  0.00  0.00    +0.050 C 
ATOM     24  C   UNL     1      33.140 -22.216 -17.680  0.00  0.00    +0.019 C 
ATOM     25  C   UNL     1      34.178 -21.679 -18.412  0.00  0.00    +0.057 C 
ATOM     26  C   UNL     1      34.761 -23.129 -16.140  0.00  0.00    +0.044 C 
ATOM     27  C   UNL     1      35.499 -21.842 -18.046  0.00  0.00    +0.034 C 
ATOM     28  C   UNL     1      35.794 -22.576 -16.897  0.00  0.00    +0.142 C 
BRANCH  23  30
ATOM     29  O   UNL     1      30.274 -24.365 -14.146  0.00  0.00    -0.350 OA
ATOM     30  N   UNL     1      32.401 -23.504 -15.771  0.00  0.00    -0.303 N 
ATOM     31  C   UNL     1      32.643 -23.893 -14.377  0.00  0.00    +0.123 C 
ATOM     32  C   UNL     1      31.021 -23.100 -16.077  0.00  0.00    +0.123 C 
ATOM     33  C   UNL     1      31.582 -24.893 -13.929  0.00  0.00    +0.164 C 
ATOM     34  C   UNL     1      30.047 -24.142 -15.539  0.00  0.00    +0.164 C 
ENDBRANCH  23  30
ENDBRANCH   3  25
TORSDOF 6
ENDMDL
MODEL 3
REMARK VINA RESULT:     -11.6      4.627     11.640
REMARK  Name = 5326869
REMARK  6 active torsions:
REMARK  status: ('A' for Active; 'I' for Inactive)
REMARK    1  A    between atoms: N_2  and  C_11
REMARK    2  A    between atoms: C_3  and  C_25
REMARK    3  A    between atoms: N_5  and  C_14
REMARK    4  A    between atoms: C_14  and  C_15
REMARK    5  A    between atoms: C_15  and  C_17
REMARK    6  A    between atoms: C_23  and  N_30
REMARK                            x       y       z     vdW  Elec       q    Type
REMARK                         _______ _______ _______ _____ _____    ______ ____
ROOT
ATOM      1  O   UNL     1      36.675 -20.975 -19.764  0.00  0.00    -0.270 OA
ATOM      2  N   UNL     1      34.526 -20.054 -20.009  0.00  0.00    -0.280 N 
ATOM      3  C   UNL     1      35.501 -20.875 -19.427  0.00  0.00    +0.250 C 
ATOM      4  H   UNL     1      33.628 -20.100 -19.608  0.00  0.00    +0.155 HD
ENDROOT
BRANCH   2  11
ATOM      5  N   UNL     1      34.885 -15.586 -22.036  0.00  0.00    -0.286 N 
ATOM      6  C   UNL     1      34.836 -16.960 -21.963  0.00  0.00    +0.053 C 
ATOM      7  C   UNL     1      34.968 -17.445 -23.266  0.00  0.00    +0.015 C 
ATOM      8  C   UNL     1      35.042 -15.187 -23.337  0.00  0.00    +0.065 C 
ATOM      9  C   UNL     1      34.686 -17.800 -20.854  0.00  0.00    +0.029 C 
ATOM     10  C   UNL     1      35.098 -16.316 -24.122  0.00  0.00    +0.017 C 
ATOM     11  C   UNL     1      34.671 -19.179 -21.087  0.00  0.00    +0.052 C 
ATOM     12  C   UNL     1      34.951 -18.839 -23.474  0.00  0.00    +0.003 C 
ATOM     13  C   UNL     1      34.802 -19.692 -22.375  0.00  0.00    +0.015 C 
BRANCH   5  14
ATOM     14  C   UNL     1      34.787 -14.679 -20.912  0.00  0.00    +0.100 C 
BRANCH  14  15
ATOM     15  C   UNL     1      33.377 -14.592 -20.319  0.00  0.00    +0.048 C 
BRANCH  15  17
ATOM     16  N   UNL     1      31.318 -10.978 -21.349  0.00  0.00    -0.242 NA
ATOM     17  C   UNL     1      32.652 -13.321 -20.681  0.00  0.00    -0.017 C 
ATOM     18  C   UNL     1      32.300 -12.430 -19.685  0.00  0.00    +0.016 C 
ATOM     19  C   UNL     1      32.350 -13.063 -22.006  0.00  0.00    +0.016 C 
ATOM     20  C   UNL     1      31.636 -11.276 -20.070  0.00  0.00    +0.099 C 
ATOM     21  C   UNL     1      31.684 -11.881 -22.286  0.00  0.00    +0.099 C 
ENDBRANCH  15  17
ENDBRANCH  14  15
ENDBRANCH   5  14
ENDBRANCH   2  11
BRANCH   3  25
ATOM     22  F   UNL     1      31.975 -23.261 -17.134  0.00  0.00    -0.204 F 
ATOM     23  C   UNL     1      35.494 -22.911 -16.281  0.00  0.00    +0.050 C 
ATOM     24  C   UNL     1      35.936 -22.114 -17.338  0.00  0.00    +0.019 C 
ATOM     25  C   UNL     1      35.030 -21.722 -18.300  0.00  0.00    +0.057 C 
ATOM     26  C   UNL     1      34.157 -23.298 -16.213  0.00  0.00    +0.044 C 
ATOM     27  C   UNL     1      33.702 -22.091 -18.255  0.00  0.00    +0.034 C 
ATOM     28  C   UNL     1      33.259 -22.888 -17.199  0.00  0.00    +0.142 C 
BRANCH  23  30
ATOM     29  O   UNL     1      38.192 -23.888 -13.207  0.00  0.00    -0.350 OA
ATOM     30  N   UNL     1      36.393 -23.322 -15.292  0.00  0.00    -0.303 N 
ATOM     31  C   UNL     1      37.833 -23.110 -15.477  0.00  0.00    +0.123 C 
ATOM     32  C   UNL     1      35.935 -23.322 -13.896  0.00  0.00    +0.123 C 
ATOM     33  C   UNL     1      38.614 -24.047 -14.561  0.00  0.00    +0.164 C 
ATOM     34  C   UNL     1      36.817 -24.246 -13.064  0.00  0.00    +0.164 C 
ENDBRANCH  23  30
ENDBRANCH   3  25
TORSDOF 6
ENDMDL
MODEL 4
REMARK VINA RESULT:     -11.4      4.758      8.851
REMARK  Name = 5326869
REMARK  6 active torsions:
REMARK  status: ('A' for Active; 'I' for Inactive)
REMARK    1  A    between atoms: N_2  and  C_11
REMARK    2  A    between atoms: C_3  and  C_25
REMARK    3  A    between atoms: N_5  and  C_14
REMARK    4  A    between atoms: C_14  and  C_15
REMARK    5  A    between atoms: C_15  and  C_17
REMARK    6  A    between atoms: C_23  and  N_30
REMARK                            x       y       z     vdW  Elec       q    Type
REMARK                         _______ _______ _______ _____ _____    ______ ____
ROOT
ATOM      1  O   UNL     1      36.813 -18.705 -20.124  0.00  0.00    -0.270 OA
ATOM      2  N   UNL     1      35.323 -20.523 -20.094  0.00  0.00    -0.280 N 
ATOM      3  C   UNL     1      35.917 -19.372 -20.629  0.00  0.00    +0.250 C 
ATOM      4  H   UNL     1      34.613 -20.934 -20.637  0.00  0.00    +0.155 HD
ENDROOT
BRANCH   2  11
ATOM      5  N   UNL     1      34.240 -23.418 -16.266  0.00  0.00    -0.286 N 
ATOM      6  C   UNL     1      34.981 -22.584 -17.073  0.00  0.00    +0.053 C 
ATOM      7  C   UNL     1      36.227 -22.423 -16.463  0.00  0.00    +0.015 C 
ATOM      8  C   UNL     1      34.973 -23.790 -15.171  0.00  0.00    +0.065 C 
ATOM      9  C   UNL     1      34.646 -21.964 -18.282  0.00  0.00    +0.029 C 
ATOM     10  C   UNL     1      36.208 -23.190 -15.265  0.00  0.00    +0.017 C 
ATOM     11  C   UNL     1      35.615 -21.158 -18.886  0.00  0.00    +0.052 C 
ATOM     12  C   UNL     1      37.188 -21.606 -17.091  0.00  0.00    +0.003 C 
ATOM     13  C   UNL     1      36.867 -20.980 -18.301  0.00  0.00    +0.015 C 
BRANCH   5  14
ATOM     14  C   UNL     1      32.883 -23.851 -16.524  0.00  0.00    +0.100 C 
BRANCH  14  15
ATOM     15  C   UNL     1      31.830 -22.790 -16.191  0.00  0.00    +0.048 C 
BRANCH  15  17
ATOM     16  N   UNL     1      28.139 -24.445 -14.774  0.00  0.00    -0.242 NA
ATOM     17  C   UNL     1      30.531 -23.372 -15.691  0.00  0.00    -0.017 C 
ATOM     18  C   UNL     1      29.339 -22.747 -16.006  0.00  0.00    +0.016 C 
ATOM     19  C   UNL     1      30.550 -24.524 -14.927  0.00  0.00    +0.016 C 
ATOM     20  C   UNL     1      28.174 -23.321 -15.524  0.00  0.00    +0.099 C 
ATOM     21  C   UNL     1      29.331 -25.018 -14.494  0.00  0.00    +0.099 C 
ENDBRANCH  15  17
ENDBRANCH  14  15
ENDBRANCH   5  14
ENDBRANCH   2  11
BRANCH   3  25
ATOM     22  F   UNL     1      34.420 -20.317 -25.128  0.00  0.00    -0.204 F 
ATOM     23  C   UNL     1      34.567 -17.157 -23.332  0.00  0.00    +0.050 C 
ATOM     24  C   UNL     1      35.085 -17.581 -22.108  0.00  0.00    +0.019 C 
ATOM     25  C   UNL     1      35.367 -18.919 -21.933  0.00  0.00    +0.057 C 
ATOM     26  C   UNL     1      34.343 -18.081 -24.352  0.00  0.00    +0.044 C 
ATOM     27  C   UNL     1      35.154 -19.853 -22.925  0.00  0.00    +0.034 C 
ATOM     28  C   UNL     1      34.637 -19.430 -24.149  0.00  0.00    +0.142 C 
BRANCH  23  30
ATOM     29  O   UNL     1      33.906 -13.077 -24.106  0.00  0.00    -0.350 OA
ATOM     30  N   UNL     1      34.273 -15.805 -23.536  0.00  0.00    -0.303 N 
ATOM     31  C   UNL     1      34.925 -14.781 -22.712  0.00  0.00    +0.123 C 
ATOM     32  C   UNL     1      33.897 -15.373 -24.889  0.00  0.00    +0.123 C 
ATOM     33  C   UNL     1      34.114 -13.491 -22.756  0.00  0.00    +0.164 C 
ATOM     34  C   UNL     1      33.142 -14.051 -24.817  0.00  0.00    +0.164 C 
ENDBRANCH  23  30
ENDBRANCH   3  25
TORSDOF 6
ENDMDL
MODEL 5
REMARK VINA RESULT:     -10.4      3.627     10.954
REMARK  Name = 5326869
REMARK  6 active torsions:
REMARK  status: ('A' for Active; 'I' for Inactive)
REMARK    1  A    between atoms: N_2  and  C_11
REMARK    2  A    between atoms: C_3  and  C_25
REMARK    3  A    between atoms: N_5  and  C_14
REMARK    4  A    between atoms: C_14  and  C_15
REMARK    5  A    between atoms: C_15  and  C_17
REMARK    6  A    between atoms: C_23  and  N_30
REMARK                            x       y       z     vdW  Elec       q    Type
REMARK                         _______ _______ _______ _____ _____    ______ ____
ROOT
ATOM      1  O   UNL     1      30.491 -10.009 -22.491  0.00  0.00    -0.270 OA
ATOM      2  N   UNL     1      32.477  -9.095 -21.626  0.00  0.00    -0.280 N 
ATOM      3  C   UNL     1      31.587 -10.127 -21.954  0.00  0.00    +0.250 C 
ATOM      4  H   UNL     1      33.318  -9.372 -21.196  0.00  0.00    +0.155 HD
ENDROOT
BRANCH   2  11
ATOM      5  N   UNL     1      32.466  -5.036 -24.405  0.00  0.00    -0.286 N 
ATOM      6  C   UNL     1      32.342  -5.818 -23.279  0.00  0.00    +0.053 C 
ATOM      7  C   UNL     1      31.990  -4.971 -22.226  0.00  0.00    +0.015 C 
ATOM      8  C   UNL     1      32.205  -3.726 -24.100  0.00  0.00    +0.065 C 
ATOM      9  C   UNL     1      32.513  -7.198 -23.114  0.00  0.00    +0.029 C 
ATOM     10  C   UNL     1      31.907  -3.654 -22.759  0.00  0.00    +0.017 C 
ATOM     11  C   UNL     1      32.318  -7.725 -21.834  0.00  0.00    +0.052 C 
ATOM     12  C   UNL     1      31.798  -5.526 -20.945  0.00  0.00    +0.003 C 
ATOM     13  C   UNL     1      31.966  -6.903 -20.765  0.00  0.00    +0.015 C 
BRANCH   5  14
ATOM     14  C   UNL     1      32.818  -5.511 -25.725  0.00  0.00    +0.100 C 
BRANCH  14  15
ATOM     15  C   UNL     1      34.328  -5.549 -25.978  0.00  0.00    +0.048 C 
BRANCH  15  17
ATOM     16  N   UNL     1      35.355  -6.615 -30.000  0.00  0.00    -0.242 NA
ATOM     17  C   UNL     1      34.689  -5.925 -27.394  0.00  0.00    -0.017 C 
ATOM     18  C   UNL     1      33.708  -5.934 -28.367  0.00  0.00    +0.016 C 
ATOM     19  C   UNL     1      35.997  -6.254 -27.698  0.00  0.00    +0.016 C 
ATOM     20  C   UNL     1      34.091  -6.286 -29.652  0.00  0.00    +0.099 C 
ATOM     21  C   UNL     1      36.277  -6.591 -29.012  0.00  0.00    +0.099 C 
ENDBRANCH  15  17
ENDBRANCH  14  15
ENDBRANCH   5  14
ENDBRANCH   2  11
BRANCH   3  25
ATOM     22  F   UNL     1      32.247 -13.580 -18.635  0.00  0.00    -0.204 F 
ATOM     23  C   UNL     1      32.942 -13.610 -22.206  0.00  0.00    +0.050 C 
ATOM     24  C   UNL     1      32.528 -12.326 -22.559  0.00  0.00    +0.019 C 
ATOM     25  C   UNL     1      32.030 -11.494 -21.579  0.00  0.00    +0.057 C 
ATOM     26  C   UNL     1      32.848 -14.034 -20.881  0.00  0.00    +0.044 C 
ATOM     27  C   UNL     1      31.925 -11.889 -20.261  0.00  0.00    +0.034 C 
ATOM     28  C   UNL     1      32.339 -13.173 -19.908  0.00  0.00    +0.142 C 
BRANCH  23  30
ATOM     29  O   UNL     1      34.700 -16.044 -25.150  0.00  0.00    -0.350 OA
ATOM     30  N   UNL     1      33.452 -14.473 -23.182  0.00  0.00    -0.303 N 
ATOM     31  C   UNL     1      33.282 -14.153 -24.604  0.00  0.00    +0.123 C 
ATOM     32  C   UNL     1      34.651 -15.257 -22.856  0.00  0.00    +0.123 C 
ATOM     33  C   UNL     1      33.452 -15.417 -25.440  0.00  0.00    +0.164 C 
ATOM     34  C   UNL     1      34.748 -16.462 -23.785  0.00  0.00    +0.164 C 
ENDBRANCH  23  30
ENDBRANCH   3  25
TORSDOF 6
ENDMDL
MODEL 6
REMARK VINA RESULT:     -10.4      3.197      6.250
REMARK  Name = 5326869
REMARK  6 active torsions:
REMARK  status: ('A' for Active; 'I' for Inactive)
REMARK    1  A    between atoms: N_2  and  C_11
REMARK    2  A    between atoms: C_3  and  C_25
REMARK    3  A    between atoms: N_5  and  C_14
REMARK    4  A    between atoms: C_14  and  C_15
REMARK    5  A    between atoms: C_15  and  C_17
REMARK    6  A    between atoms: C_23  and  N_30
REMARK                            x       y       z     vdW  Elec       q    Type
REMARK                         _______ _______ _______ _____ _____    ______ ____
ROOT
ATOM      1  O   UNL     1      33.740  -7.045 -21.123  0.00  0.00    -0.270 OA
ATOM      2  N   UNL     1      31.647  -8.043 -21.511  0.00  0.00    -0.280 N 
ATOM      3  C   UNL     1      32.602  -7.020 -21.579  0.00  0.00    +0.250 C 
ATOM      4  H   UNL     1      30.778  -7.850 -21.934  0.00  0.00    +0.155 HD
ENDROOT
BRANCH   2  11
ATOM      5  N   UNL     1      32.309 -12.916 -21.621  0.00  0.00    -0.286 N 
ATOM      6  C   UNL     1      32.104 -11.663 -21.091  0.00  0.00    +0.053 C 
ATOM      7  C   UNL     1      32.030 -11.811 -19.704  0.00  0.00    +0.015 C 
ATOM      8  C   UNL     1      32.366 -13.849 -20.620  0.00  0.00    +0.065 C 
ATOM      9  C   UNL     1      31.980 -10.422 -21.727  0.00  0.00    +0.029 C 
ATOM     10  C   UNL     1      32.198 -13.195 -19.422  0.00  0.00    +0.017 C 
ATOM     11  C   UNL     1      31.774  -9.300 -20.918  0.00  0.00    +0.052 C 
ATOM     12  C   UNL     1      31.823 -10.664 -18.911  0.00  0.00    +0.003 C 
ATOM     13  C   UNL     1      31.697  -9.417 -19.532  0.00  0.00    +0.015 C 
BRANCH   5  14
ATOM     14  C   UNL     1      32.446 -13.222 -23.029  0.00  0.00    +0.100 C 
BRANCH  14  15
ATOM     15  C   UNL     1      33.897 -13.445 -23.467  0.00  0.00    +0.048 C 
BRANCH  15  17
ATOM     16  N   UNL     1      35.039 -17.575 -23.527  0.00  0.00    -0.242 NA
ATOM     17  C   UNL     1      34.300 -14.898 -23.489  0.00  0.00    -0.017 C 
ATOM     18  C   UNL     1      35.000 -15.426 -22.421  0.00  0.00    +0.016 C 
ATOM     19  C   UNL     1      33.961 -15.683 -24.576  0.00  0.00    +0.016 C 
ATOM     20  C   UNL     1      35.346 -16.766 -22.488  0.00  0.00    +0.099 C 
ATOM     21  C   UNL     1      34.353 -17.011 -24.546  0.00  0.00    +0.099 C 
ENDBRANCH  15  17
ENDBRANCH  14  15
ENDBRANCH   5  14
ENDBRANCH   2  11
BRANCH   3  25
ATOM     22  F   UNL     1      30.484  -2.675 -21.450  0.00  0.00    -0.204 F 
ATOM     23  C   UNL     1      31.978  -4.462 -24.244  0.00  0.00    +0.050 C 
ATOM     24  C   UNL     1      32.395  -5.631 -23.608  0.00  0.00    +0.019 C 
ATOM     25  C   UNL     1      32.156  -5.776 -22.258  0.00  0.00    +0.057 C 
ATOM     26  C   UNL     1      31.333  -3.464 -23.516  0.00  0.00    +0.044 C 
ATOM     27  C   UNL     1      31.520  -4.803 -21.514  0.00  0.00    +0.034 C 
ATOM     28  C   UNL     1      31.103  -3.634 -22.150  0.00  0.00    +0.142 C 
BRANCH  23  30
ATOM     29  O   UNL     1      32.890  -3.796 -28.295  0.00  0.00    -0.350 OA
ATOM     30  N   UNL     1      32.208  -4.291 -25.613  0.00  0.00    -0.303 N 
ATOM     31  C   UNL     1      31.712  -3.090 -26.295  0.00  0.00    +0.123 C 
ATOM     32  C   UNL     1      33.422  -4.882 -26.192  0.00  0.00    +0.123 C 
ATOM     33  C   UNL     1      31.631  -3.346 -27.796  0.00  0.00    +0.164 C 
ATOM     34  C   UNL     1      33.251  -5.042 -27.698  0.00  0.00    +0.164 C 
ENDBRANCH  23  30
ENDBRANCH   3  25
TORSDOF 6
ENDMDL
MODEL 7
REMARK VINA RESULT:     -10.3      3.386     11.401
REMARK  Name = 5326869
REMARK  6 active torsions:
REMARK  status: ('A' for Active; 'I' for Inactive)
REMARK    1  A    between atoms: N_2  and  C_11
REMARK    2  A    between atoms: C_3  and  C_25
REMARK    3  A    between atoms: N_5  and  C_14
REMARK    4  A    between atoms: C_14  and  C_15
REMARK    5  A    between atoms: C_15  and  C_17
REMARK    6  A    between atoms: C_23  and  N_30
REMARK                            x       y       z     vdW  Elec       q    Type
REMARK                         _______ _______ _______ _____ _____    ______ ____
ROOT
ATOM      1  O   UNL     1      34.940 -13.931 -20.232  0.00  0.00    -0.270 OA
ATOM      2  N   UNL     1      33.258 -13.520 -21.822  0.00  0.00    -0.280 N 
ATOM      3  C   UNL     1      34.281 -14.258 -21.212  0.00  0.00    +0.250 C 
ATOM      4  H   UNL     1      32.833 -13.937 -22.606  0.00  0.00    +0.155 HD
ENDROOT
BRANCH   2  11
ATOM      5  N   UNL     1      32.726  -8.662 -22.394  0.00  0.00    -0.286 N 
ATOM      6  C   UNL     1      32.578  -9.910 -21.832  0.00  0.00    +0.053 C 
ATOM      7  C   UNL     1      31.773  -9.759 -20.702  0.00  0.00    +0.015 C 
ATOM      8  C   UNL     1      32.044  -7.730 -21.659  0.00  0.00    +0.065 C 
ATOM      9  C   UNL     1      33.091 -11.149 -22.234  0.00  0.00    +0.029 C 
ATOM     10  C   UNL     1      31.443  -8.378 -20.605  0.00  0.00    +0.017 C 
ATOM     11  C   UNL     1      32.769 -12.265 -21.456  0.00  0.00    +0.052 C 
ATOM     12  C   UNL     1      31.462 -10.899 -19.933  0.00  0.00    +0.003 C 
ATOM     13  C   UNL     1      31.967 -12.144 -20.323  0.00  0.00    +0.015 C 
BRANCH   5  14
ATOM     14  C   UNL     1      33.487  -8.362 -23.588  0.00  0.00    +0.100 C 
BRANCH  14  15
ATOM     15  C   UNL     1      34.527  -7.256 -23.387  0.00  0.00    +0.048 C 
BRANCH  15  17
ATOM     16  N   UNL     1      34.053  -3.966 -26.092  0.00  0.00    -0.242 NA
ATOM     17  C   UNL     1      34.361  -6.098 -24.339  0.00  0.00    -0.017 C 
ATOM     18  C   UNL     1      35.346  -5.836 -25.272  0.00  0.00    +0.016 C 
ATOM     19  C   UNL     1      33.224  -5.314 -24.266  0.00  0.00    +0.016 C 
ATOM     20  C   UNL     1      35.145  -4.761 -26.123  0.00  0.00    +0.099 C 
ATOM     21  C   UNL     1      33.118  -4.264 -25.162  0.00  0.00    +0.099 C 
ENDBRANCH  15  17
ENDBRANCH  14  15
ENDBRANCH   5  14
ENDBRANCH   2  11
BRANCH   3  25
ATOM     22  F   UNL     1      34.879 -16.969 -25.172  0.00  0.00    -0.204 F 
ATOM     23  C   UNL     1      35.192 -17.865 -21.660  0.00  0.00    +0.050 C 
ATOM     24  C   UNL     1      34.894 -16.644 -21.056  0.00  0.00    +0.019 C 
ATOM     25  C   UNL     1      34.597 -15.560 -21.855  0.00  0.00    +0.057 C 
ATOM     26  C   UNL     1      35.187 -17.974 -23.050  0.00  0.00    +0.044 C 
ATOM     27  C   UNL     1      34.585 -15.642 -23.232  0.00  0.00    +0.034 C 
ATOM     28  C   UNL     1      34.883 -16.864 -23.837  0.00  0.00    +0.142 C 
BRANCH  23  30
ATOM     29  O   UNL     1      36.213 -21.335 -19.516  0.00  0.00    -0.350 OA
ATOM     30  N   UNL     1      35.497 -18.979 -20.872  0.00  0.00    -0.303 N 
ATOM     31  C   UNL     1      34.569 -20.114 -20.818  0.00  0.00    +0.123 C 
ATOM     32  C   UNL     1      36.912 -19.318 -20.667  0.00  0.00    +0.123 C 
ATOM     33  C   UNL     1      34.841 -20.943 -19.567  0.00  0.00    +0.164 C 
ATOM     34  C   UNL     1      37.059 -20.189 -19.425  0.00  0.00    +0.164 C 
ENDBRANCH  23  30
ENDBRANCH   3  25
TORSDOF 6
ENDMDL
MODEL 8
REMARK VINA RESULT:      -9.9      6.395     10.737
REMARK  Name = 5326869
REMARK  6 active torsions:
REMARK  status: ('A' for Active; 'I' for Inactive)
REMARK    1  A    between atoms: N_2  and  C_11
REMARK    2  A    between atoms: C_3  and  C_25
REMARK    3  A    between atoms: N_5  and  C_14
REMARK    4  A    between atoms: C_14  and  C_15
REMARK    5  A    between atoms: C_15  and  C_17
REMARK    6  A    between atoms: C_23  and  N_30
REMARK                            x       y       z     vdW  Elec       q    Type
REMARK                         _______ _______ _______ _____ _____    ______ ____
ROOT
ATOM      1  O   UNL     1      32.359 -22.011 -19.760  0.00  0.00    -0.270 OA
ATOM      2  N   UNL     1      33.431 -21.800 -17.678  0.00  0.00    -0.280 N 
ATOM      3  C   UNL     1      33.274 -21.599 -19.056  0.00  0.00    +0.250 C 
ATOM      4  H   UNL     1      34.231 -21.395 -17.272  0.00  0.00    +0.155 HD
ENDROOT
BRANCH   2  11
ATOM      5  N   UNL     1      32.537 -24.751 -13.845  0.00  0.00    -0.286 N 
ATOM      6  C   UNL     1      32.275 -23.944 -14.929  0.00  0.00    +0.053 C 
ATOM      7  C   UNL     1      30.889 -23.901 -15.085  0.00  0.00    +0.015 C 
ATOM      8  C   UNL     1      31.366 -25.218 -13.311  0.00  0.00    +0.065 C 
ATOM      9  C   UNL     1      33.153 -23.257 -15.776  0.00  0.00    +0.029 C 
ATOM     10  C   UNL     1      30.328 -24.709 -14.056  0.00  0.00    +0.017 C 
ATOM     11  C   UNL     1      32.593 -22.502 -16.812  0.00  0.00    +0.052 C 
ATOM     12  C   UNL     1      30.348 -23.134 -16.136  0.00  0.00    +0.003 C 
ATOM     13  C   UNL     1      31.212 -22.441 -16.990  0.00  0.00    +0.015 C 
BRANCH   5  14
ATOM     14  C   UNL     1      33.852 -25.069 -13.331  0.00  0.00    +0.100 C 
BRANCH  14  15
ATOM     15  C   UNL     1      34.471 -23.942 -12.498  0.00  0.00    +0.048 C 
BRANCH  15  17
ATOM     16  N   UNL     1      38.741 -24.178 -12.224  0.00  0.00    -0.242 NA
ATOM     17  C   UNL     1      35.974 -24.024 -12.402  0.00  0.00    -0.017 C 
ATOM     18  C   UNL     1      36.631 -23.338 -11.398  0.00  0.00    +0.016 C 
ATOM     19  C   UNL     1      36.674 -24.786 -13.319  0.00  0.00    +0.016 C 
ATOM     20  C   UNL     1      38.011 -23.447 -11.352  0.00  0.00    +0.099 C 
ATOM     21  C   UNL     1      38.052 -24.830 -13.187  0.00  0.00    +0.099 C 
ENDBRANCH  15  17
ENDBRANCH  14  15
ENDBRANCH   5  14
ENDBRANCH   2  11
BRANCH   3  25
ATOM     22  F   UNL     1      37.900 -20.219 -19.330  0.00  0.00    -0.204 F 
ATOM     23  C   UNL     1      35.072 -19.338 -21.442  0.00  0.00    +0.050 C 
ATOM     24  C   UNL     1      34.054 -20.064 -20.824  0.00  0.00    +0.019 C 
ATOM     25  C   UNL     1      34.358 -20.824 -19.715  0.00  0.00    +0.057 C 
ATOM     26  C   UNL     1      36.371 -19.390 -20.938  0.00  0.00    +0.044 C 
ATOM     27  C   UNL     1      35.634 -20.893 -19.196  0.00  0.00    +0.034 C 
ATOM     28  C   UNL     1      36.653 -20.168 -19.814  0.00  0.00    +0.142 C 
BRANCH  23  30
ATOM     29  O   UNL     1      34.446 -17.107 -24.951  0.00  0.00    -0.350 OA
ATOM     30  N   UNL     1      34.790 -18.559 -22.569  0.00  0.00    -0.303 N 
ATOM     31  C   UNL     1      35.466 -17.270 -22.756  0.00  0.00    +0.123 C 
ATOM     32  C   UNL     1      34.400 -19.246 -23.808  0.00  0.00    +0.123 C 
ATOM     33  C   UNL     1      34.670 -16.407 -23.728  0.00  0.00    +0.164 C 
ATOM     34  C   UNL     1      33.661 -18.278 -24.724  0.00  0.00    +0.164 C 
ENDBRANCH  23  30
ENDBRANCH   3  25
TORSDOF 6
ENDMDL
MODEL 9
REMARK VINA RESULT:      -9.7      4.955      9.427
REMARK  Name = 5326869
REMARK  6 active torsions:
REMARK  status: ('A' for Active; 'I' for Inactive)
REMARK    1  A    between atoms: N_2  and  C_11
REMARK    2  A    between atoms: C_3  and  C_25
REMARK    3  A    between atoms: N_5  and  C_14
REMARK    4  A    between atoms: C_14  and  C_15
REMARK    5  A    between atoms: C_15  and  C_17
REMARK    6  A    between atoms: C_23  and  N_30
REMARK                            x       y       z     vdW  Elec       q    Type
REMARK                         _______ _______ _______ _____ _____    ______ ____
ROOT
ATOM      1  O   UNL     1      36.399 -20.261 -19.344  0.00  0.00    -0.270 OA
ATOM      2  N   UNL     1      34.189 -21.050 -19.480  0.00  0.00    -0.280 N 
ATOM      3  C   UNL     1      35.312 -20.328 -19.906  0.00  0.00    +0.250 C 
ATOM      4  H   UNL     1      33.394 -20.991 -20.058  0.00  0.00    +0.155 HD
ENDROOT
BRANCH   2  11
ATOM      5  N   UNL     1      35.908 -23.253 -15.432  0.00  0.00    -0.286 N 
ATOM      6  C   UNL     1      35.002 -22.866 -16.393  0.00  0.00    +0.053 C 
ATOM      7  C   UNL     1      33.772 -23.431 -16.050  0.00  0.00    +0.015 C 
ATOM      8  C   UNL     1      35.294 -24.041 -14.495  0.00  0.00    +0.065 C 
ATOM      9  C   UNL     1      35.177 -22.069 -17.530  0.00  0.00    +0.029 C 
ATOM     10  C   UNL     1      33.971 -24.168 -14.850  0.00  0.00    +0.017 C 
ATOM     11  C   UNL     1      34.059 -21.841 -18.338  0.00  0.00    +0.052 C 
ATOM     12  C   UNL     1      32.660 -23.187 -16.880  0.00  0.00    +0.003 C 
ATOM     13  C   UNL     1      32.819 -22.391 -18.019  0.00  0.00    +0.015 C 
BRANCH   5  14
ATOM     14  C   UNL     1      37.308 -22.889 -15.400  0.00  0.00    +0.100 C 
BRANCH  14  15
ATOM     15  C   UNL     1      38.216 -23.998 -14.856  0.00  0.00    +0.048 C 
BRANCH  15  17
ATOM     16  N   UNL     1      37.529 -24.883 -10.720  0.00  0.00    -0.242 NA
ATOM     17  C   UNL     1      37.975 -24.309 -13.400  0.00  0.00    -0.017 C 
ATOM     18  C   UNL     1      37.790 -23.274 -12.504  0.00  0.00    +0.016 C 
ATOM     19  C   UNL     1      37.942 -25.627 -12.982  0.00  0.00    +0.016 C 
ATOM     20  C   UNL     1      37.571 -23.612 -11.178  0.00  0.00    +0.099 C 
ATOM     21  C   UNL     1      37.716 -25.859 -11.636  0.00  0.00    +0.099 C 
ENDBRANCH  15  17
ENDBRANCH  14  15
ENDBRANCH   5  14
ENDBRANCH   2  11
BRANCH   3  25
ATOM     22  F   UNL     1      34.951 -20.127 -24.724  0.00  0.00    -0.204 F 
ATOM     23  C   UNL     1      34.799 -17.457 -22.258  0.00  0.00    +0.050 C 
ATOM     24  C   UNL     1      34.970 -18.185 -21.080  0.00  0.00    +0.019 C 
ATOM     25  C   UNL     1      35.132 -19.552 -21.160  0.00  0.00    +0.057 C 
ATOM     26  C   UNL     1      34.793 -18.112 -23.488  0.00  0.00    +0.044 C 
ATOM     27  C   UNL     1      35.129 -20.224 -22.365  0.00  0.00    +0.034 C 
ATOM     28  C   UNL     1      34.958 -19.497 -23.543  0.00  0.00    +0.142 C 
BRANCH  23  30
ATOM     29  O   UNL     1      34.575 -13.260 -22.128  0.00  0.00    -0.350 OA
ATOM     30  N   UNL     1      34.634 -16.069 -22.204  0.00  0.00    -0.303 N 
ATOM     31  C   UNL     1      34.823 -15.358 -20.935  0.00  0.00    +0.123 C 
ATOM     32  C   UNL     1      34.935 -15.287 -23.410  0.00  0.00    +0.123 C 
ATOM     33  C   UNL     1      34.127 -14.002 -20.994  0.00  0.00    +0.164 C 
ATOM     34  C   UNL     1      34.233 -13.936 -23.338  0.00  0.00    +0.164 C 
ENDBRANCH  23  30
ENDBRANCH   3  25
TORSDOF 6
ENDMDL
