MODEL 1
REMARK VINA RESULT:     -12.3      0.000      0.000
REMARK  Name = 204109
REMARK  5 active torsions:
REMARK  status: ('A' for Active; 'I' for Inactive)
REMARK    1  A    between atoms: C_1  and  C_20
REMARK    2  A    between atoms: C_9  and  O_11
REMARK    3  A    between atoms: O_11  and  C_12
REMARK    4  A    between atoms: C_12  and  C_14
REMARK    5  A    between atoms: C_20  and  C_25
REMARK                            x       y       z     vdW  Elec       q    Type
REMARK                         _______ _______ _______ _____ _____    ______ ____
ROOT
ATOM      1  C   UNL     1      33.943 -22.256 -18.408  0.00  0.00    -0.021 C 
ATOM      2  C   UNL     1      35.477 -20.754 -19.554  0.00  0.00    -0.000 C 
ATOM      3  C   UNL     1      35.239 -21.798 -18.645  0.00  0.00    -0.004 C 
ATOM      4  C   UNL     1      34.382 -20.166 -20.231  0.00  0.00    +0.003 C 
ATOM      5  C   UNL     1      32.868 -21.677 -19.074  0.00  0.00    -0.004 C 
ATOM      6  C   UNL     1      33.084 -20.639 -19.982  0.00  0.00    -0.000 C 
ATOM      7  C   UNL     1      34.619 -19.122 -21.141  0.00  0.00    +0.037 C 
ATOM      8  C   UNL     1      36.775 -20.280 -19.804  0.00  0.00    +0.003 C 
ATOM      9  C   UNL     1      35.916 -18.664 -21.377  0.00  0.00    +0.139 C 
ATOM     10  C   UNL     1      36.991 -19.243 -20.710  0.00  0.00    +0.037 C 
ENDROOT
BRANCH   9  11
ATOM     11  O   UNL     1      36.130 -17.651 -22.262  0.00  0.00    -0.471 OA
BRANCH  11  12
ATOM     12  C   UNL     1      35.109 -17.405 -23.227  0.00  0.00    +0.234 C 
BRANCH  12  14
ATOM     13  F   UNL     1      33.648 -16.217 -25.334  0.00  0.00    -0.204 F 
ATOM     14  C   UNL     1      34.632 -15.993 -23.185  0.00  0.00    +0.049 C 
ATOM     15  C   UNL     1      33.915 -15.464 -24.257  0.00  0.00    +0.140 C 
ATOM     16  C   UNL     1      34.905 -15.201 -22.070  0.00  0.00    +0.002 C 
ATOM     17  C   UNL     1      33.469 -14.143 -24.215  0.00  0.00    +0.029 C 
ATOM     18  C   UNL     1      34.460 -13.879 -22.027  0.00  0.00    -0.000 C 
ATOM     19  C   UNL     1      33.742 -13.350 -23.099  0.00  0.00    +0.002 C 
ENDBRANCH  12  14
ENDBRANCH  11  12
ENDBRANCH   9  11
BRANCH   1  20
ATOM     20  C   UNL     1      33.710 -23.366 -17.439  0.00  0.00    +0.047 C 
BRANCH  20  25
ATOM     21  S   UNL     1      34.114 -23.733 -14.733  0.00  0.00    -0.048 S 
ATOM     22  O   UNL     1      30.896 -22.715 -16.605  0.00  0.00    -0.274 OA
ATOM     23  O   UNL     1      32.615 -24.948 -12.947  0.00  0.00    -0.263 OA
ATOM     24  N   UNL     1      31.563 -23.864 -14.714  0.00  0.00    -0.246 N 
ATOM     25  C   UNL     1      33.250 -22.859 -16.074  0.00  0.00    +0.137 C 
ATOM     26  C   UNL     1      31.777 -23.122 -15.856  0.00  0.00    +0.239 C 
ATOM     27  C   UNL     1      32.637 -24.286 -13.974  0.00  0.00    +0.279 C 
ATOM     28  H   UNL     1      30.647 -24.090 -14.432  0.00  0.00    +0.158 HD
ENDBRANCH  20  25
ENDBRANCH   1  20
TORSDOF 5
ENDMDL
MODEL 2
REMARK VINA RESULT:     -12.3      1.135      1.892
REMARK  Name = 204109
REMARK  5 active torsions:
REMARK  status: ('A' for Active; 'I' for Inactive)
REMARK    1  A    between atoms: C_1  and  C_20
REMARK    2  A    between atoms: C_9  and  O_11
REMARK    3  A    between atoms: O_11  and  C_12
REMARK    4  A    between atoms: C_12  and  C_14
REMARK    5  A    between atoms: C_20  and  C_25
REMARK                            x       y       z     vdW  Elec       q    Type
REMARK                         _______ _______ _______ _____ _____    ______ ____
ROOT
ATOM      1  C   UNL     1      34.038 -22.840 -17.349  0.00  0.00    -0.021 C 
ATOM      2  C   UNL     1      34.092 -21.288 -19.222  0.00  0.00    -0.000 C 
ATOM      3  C   UNL     1      33.387 -22.164 -18.381  0.00  0.00    -0.004 C 
ATOM      4  C   UNL     1      35.478 -21.096 -19.014  0.00  0.00    +0.003 C 
ATOM      5  C   UNL     1      35.402 -22.651 -17.145  0.00  0.00    -0.004 C 
ATOM      6  C   UNL     1      36.119 -21.784 -17.970  0.00  0.00    -0.000 C 
ATOM      7  C   UNL     1      36.184 -20.220 -19.855  0.00  0.00    +0.037 C 
ATOM      8  C   UNL     1      33.452 -20.600 -20.266  0.00  0.00    +0.003 C 
ATOM      9  C   UNL     1      35.532 -19.544 -20.887  0.00  0.00    +0.139 C 
ATOM     10  C   UNL     1      34.168 -19.734 -21.092  0.00  0.00    +0.037 C 
ENDROOT
BRANCH   9  11
ATOM     11  O   UNL     1      36.229 -18.698 -21.694  0.00  0.00    -0.471 OA
BRANCH  11  12
ATOM     12  C   UNL     1      35.498 -18.029 -22.720  0.00  0.00    +0.234 C 
BRANCH  12  14
ATOM     13  F   UNL     1      34.968 -15.982 -24.596  0.00  0.00    -0.204 F 
ATOM     14  C   UNL     1      35.120 -16.643 -22.320  0.00  0.00    +0.049 C 
ATOM     15  C   UNL     1      34.870 -15.677 -23.294  0.00  0.00    +0.140 C 
ATOM     16  C   UNL     1      35.016 -16.314 -20.969  0.00  0.00    +0.002 C 
ATOM     17  C   UNL     1      34.516 -14.381 -22.917  0.00  0.00    +0.029 C 
ATOM     18  C   UNL     1      34.662 -15.018 -20.591  0.00  0.00    -0.000 C 
ATOM     19  C   UNL     1      34.411 -14.052 -21.565  0.00  0.00    +0.002 C 
ENDBRANCH  12  14
ENDBRANCH  11  12
ENDBRANCH   9  11
BRANCH   1  20
ATOM     20  C   UNL     1      33.274 -23.766 -16.465  0.00  0.00    +0.047 C 
BRANCH  20  25
ATOM     21  S   UNL     1      32.835 -23.826 -13.740  0.00  0.00    -0.048 S 
ATOM     22  O   UNL     1      30.485 -22.646 -16.565  0.00  0.00    -0.274 OA
ATOM     23  O   UNL     1      30.717 -24.588 -12.382  0.00  0.00    -0.263 OA
ATOM     24  N   UNL     1      30.396 -23.616 -14.468  0.00  0.00    -0.246 N 
ATOM     25  C   UNL     1      32.538 -23.029 -15.348  0.00  0.00    +0.137 C 
ATOM     26  C   UNL     1      31.041 -23.064 -15.555  0.00  0.00    +0.239 C 
ATOM     27  C   UNL     1      31.135 -24.076 -13.410  0.00  0.00    +0.279 C 
ATOM     28  H   UNL     1      29.414 -23.680 -14.453  0.00  0.00    +0.158 HD
ENDBRANCH  20  25
ENDBRANCH   1  20
TORSDOF 5
ENDMDL
MODEL 3
REMARK VINA RESULT:     -12.1      4.615      9.889
REMARK  Name = 204109
REMARK  5 active torsions:
REMARK  status: ('A' for Active; 'I' for Inactive)
REMARK    1  A    between atoms: C_1  and  C_20
REMARK    2  A    between atoms: C_9  and  O_11
REMARK    3  A    between atoms: O_11  and  C_12
REMARK    4  A    between atoms: C_12  and  C_14
REMARK    5  A    between atoms: C_20  and  C_25
REMARK                            x       y       z     vdW  Elec       q    Type
REMARK                         _______ _______ _______ _____ _____    ______ ____
ROOT
ATOM      1  C   UNL     1      35.926 -18.779 -21.255  0.00  0.00    -0.021 C 
ATOM      2  C   UNL     1      34.546 -20.361 -20.023  0.00  0.00    -0.000 C 
ATOM      3  C   UNL     1      34.673 -19.312 -20.949  0.00  0.00    -0.004 C 
ATOM      4  C   UNL     1      35.707 -20.875 -19.398  0.00  0.00    +0.003 C 
ATOM      5  C   UNL     1      37.067 -19.285 -20.640  0.00  0.00    -0.004 C 
ATOM      6  C   UNL     1      36.960 -20.327 -19.718  0.00  0.00    -0.000 C 
ATOM      7  C   UNL     1      35.581 -21.923 -18.473  0.00  0.00    +0.037 C 
ATOM      8  C   UNL     1      33.294 -20.909 -19.704  0.00  0.00    +0.003 C 
ATOM      9  C   UNL     1      34.328 -22.456 -18.167  0.00  0.00    +0.139 C 
ATOM     10  C   UNL     1      33.187 -21.950 -18.782  0.00  0.00    +0.037 C 
ENDROOT
BRANCH   9  11
ATOM     11  O   UNL     1      34.221 -23.473 -17.268  0.00  0.00    -0.471 OA
BRANCH  11  12
ATOM     12  C   UNL     1      34.288 -23.128 -15.885  0.00  0.00    +0.234 C 
BRANCH  12  14
ATOM     13  F   UNL     1      34.290 -24.668 -13.515  0.00  0.00    -0.204 F 
ATOM     14  C   UNL     1      33.039 -23.497 -15.159  0.00  0.00    +0.049 C 
ATOM     15  C   UNL     1      33.107 -24.260 -13.994  0.00  0.00    +0.140 C 
ATOM     16  C   UNL     1      31.802 -23.079 -15.648  0.00  0.00    +0.002 C 
ATOM     17  C   UNL     1      31.936 -24.604 -13.316  0.00  0.00    +0.029 C 
ATOM     18  C   UNL     1      30.631 -23.423 -14.971  0.00  0.00    -0.000 C 
ATOM     19  C   UNL     1      30.698 -24.185 -13.805  0.00  0.00    +0.002 C 
ENDBRANCH  12  14
ENDBRANCH  11  12
ENDBRANCH   9  11
BRANCH   1  20
ATOM     20  C   UNL     1      36.041 -17.666 -22.241  0.00  0.00    +0.047 C 
BRANCH  20  25
ATOM     21  S   UNL     1      34.350 -17.309 -24.394  0.00  0.00    -0.048 S 
ATOM     22  O   UNL     1      34.861 -15.069 -21.292  0.00  0.00    -0.274 OA
ATOM     23  O   UNL     1      33.822 -15.145 -25.791  0.00  0.00    -0.263 OA
ATOM     24  N   UNL     1      34.310 -14.905 -23.531  0.00  0.00    -0.246 N 
ATOM     25  C   UNL     1      34.682 -17.081 -22.619  0.00  0.00    +0.137 C 
ATOM     26  C   UNL     1      34.637 -15.589 -22.379  0.00  0.00    +0.239 C 
ATOM     27  C   UNL     1      34.113 -15.601 -24.695  0.00  0.00    +0.279 C 
ATOM     28  H   UNL     1      34.219 -13.925 -23.518  0.00  0.00    +0.158 HD
ENDBRANCH  20  25
ENDBRANCH   1  20
TORSDOF 5
ENDMDL
MODEL 4
REMARK VINA RESULT:     -12.1      6.313     10.968
REMARK  Name = 204109
REMARK  5 active torsions:
REMARK  status: ('A' for Active; 'I' for Inactive)
REMARK    1  A    between atoms: C_1  and  C_20
REMARK    2  A    between atoms: C_9  and  O_11
REMARK    3  A    between atoms: O_11  and  C_12
REMARK    4  A    between atoms: C_12  and  C_14
REMARK    5  A    between atoms: C_20  and  C_25
REMARK                            x       y       z     vdW  Elec       q    Type
REMARK                         _______ _______ _______ _____ _____    ______ ____
ROOT
ATOM      1  C   UNL     1      32.134 -11.930 -21.626  0.00  0.00    -0.021 C 
ATOM      2  C   UNL     1      33.580 -13.840 -22.054  0.00  0.00    -0.000 C 
ATOM      3  C   UNL     1      32.910 -12.690 -22.502  0.00  0.00    -0.004 C 
ATOM      4  C   UNL     1      33.460 -14.225 -20.697  0.00  0.00    +0.003 C 
ATOM      5  C   UNL     1      32.016 -12.310 -20.292  0.00  0.00    -0.004 C 
ATOM      6  C   UNL     1      32.676 -13.449 -19.828  0.00  0.00    -0.000 C 
ATOM      7  C   UNL     1      34.130 -15.374 -20.248  0.00  0.00    +0.037 C 
ATOM      8  C   UNL     1      34.366 -14.616 -22.921  0.00  0.00    +0.003 C 
ATOM      9  C   UNL     1      34.907 -16.134 -21.125  0.00  0.00    +0.139 C 
ATOM     10  C   UNL     1      35.024 -15.755 -22.458  0.00  0.00    +0.037 C 
ENDROOT
BRANCH   9  11
ATOM     11  O   UNL     1      35.551 -17.246 -20.675  0.00  0.00    -0.471 OA
BRANCH  11  12
ATOM     12  C   UNL     1      35.412 -18.435 -21.449  0.00  0.00    +0.234 C 
BRANCH  12  14
ATOM     13  F   UNL     1      37.262 -20.071 -20.075  0.00  0.00    -0.204 F 
ATOM     14  C   UNL     1      34.998 -19.598 -20.613  0.00  0.00    +0.049 C 
ATOM     15  C   UNL     1      35.960 -20.368 -19.959  0.00  0.00    +0.140 C 
ATOM     16  C   UNL     1      33.646 -19.916 -20.486  0.00  0.00    +0.002 C 
ATOM     17  C   UNL     1      35.570 -21.456 -19.177  0.00  0.00    +0.029 C 
ATOM     18  C   UNL     1      33.255 -21.005 -19.705  0.00  0.00    -0.000 C 
ATOM     19  C   UNL     1      34.217 -21.773 -19.050  0.00  0.00    +0.002 C 
ENDBRANCH  12  14
ENDBRANCH  11  12
ENDBRANCH   9  11
BRANCH   1  20
ATOM     20  C   UNL     1      31.429 -10.712 -22.119  0.00  0.00    +0.047 C 
BRANCH  20  25
ATOM     21  S   UNL     1      32.003  -8.494 -20.579  0.00  0.00    -0.048 S 
ATOM     22  O   UNL     1      32.096  -8.891 -24.417  0.00  0.00    -0.274 OA
ATOM     23  O   UNL     1      31.328  -5.976 -20.919  0.00  0.00    -0.263 OA
ATOM     24  N   UNL     1      31.687  -7.284 -22.806  0.00  0.00    -0.246 N 
ATOM     25  C   UNL     1      32.319  -9.471 -22.081  0.00  0.00    +0.137 C 
ATOM     26  C   UNL     1      32.028  -8.547 -23.242  0.00  0.00    +0.239 C 
ATOM     27  C   UNL     1      31.616  -7.032 -21.461  0.00  0.00    +0.279 C 
ATOM     28  H   UNL     1      31.495  -6.569 -23.455  0.00  0.00    +0.158 HD
ENDBRANCH  20  25
ENDBRANCH   1  20
TORSDOF 5
ENDMDL
MODEL 5
REMARK VINA RESULT:     -11.9      4.690      9.862
REMARK  Name = 204109
REMARK  5 active torsions:
REMARK  status: ('A' for Active; 'I' for Inactive)
REMARK    1  A    between atoms: C_1  and  C_20
REMARK    2  A    between atoms: C_9  and  O_11
REMARK    3  A    between atoms: O_11  and  C_12
REMARK    4  A    between atoms: C_12  and  C_14
REMARK    5  A    between atoms: C_20  and  C_25
REMARK                            x       y       z     vdW  Elec       q    Type
REMARK                         _______ _______ _______ _____ _____    ______ ____
ROOT
ATOM      1  C   UNL     1      35.928 -18.758 -21.322  0.00  0.00    -0.021 C 
ATOM      2  C   UNL     1      34.594 -20.349 -20.053  0.00  0.00    -0.000 C 
ATOM      3  C   UNL     1      34.691 -19.319 -21.003  0.00  0.00    -0.004 C 
ATOM      4  C   UNL     1      35.769 -20.816 -19.418  0.00  0.00    +0.003 C 
ATOM      5  C   UNL     1      37.083 -19.218 -20.697  0.00  0.00    -0.004 C 
ATOM      6  C   UNL     1      37.006 -20.242 -19.752  0.00  0.00    -0.000 C 
ATOM      7  C   UNL     1      35.673 -21.847 -18.469  0.00  0.00    +0.037 C 
ATOM      8  C   UNL     1      33.357 -20.924 -19.719  0.00  0.00    +0.003 C 
ATOM      9  C   UNL     1      34.435 -22.407 -18.149  0.00  0.00    +0.139 C 
ATOM     10  C   UNL     1      33.280 -21.947 -18.774  0.00  0.00    +0.037 C 
ENDROOT
BRANCH   9  11
ATOM     11  O   UNL     1      34.357 -23.406 -17.227  0.00  0.00    -0.471 OA
BRANCH  11  12
ATOM     12  C   UNL     1      34.520 -23.040 -15.858  0.00  0.00    +0.234 C 
BRANCH  12  14
ATOM     13  F   UNL     1      37.088 -21.878 -15.652  0.00  0.00    -0.204 F 
ATOM     14  C   UNL     1      35.677 -23.740 -15.230  0.00  0.00    +0.049 C 
ATOM     15  C   UNL     1      36.921 -23.112 -15.159  0.00  0.00    +0.140 C 
ATOM     16  C   UNL     1      35.514 -25.026 -14.713  0.00  0.00    +0.002 C 
ATOM     17  C   UNL     1      38.001 -23.770 -14.570  0.00  0.00    +0.029 C 
ATOM     18  C   UNL     1      36.595 -25.684 -14.125  0.00  0.00    -0.000 C 
ATOM     19  C   UNL     1      37.838 -25.056 -14.053  0.00  0.00    +0.002 C 
ENDBRANCH  12  14
ENDBRANCH  11  12
ENDBRANCH   9  11
BRANCH   1  20
ATOM     20  C   UNL     1      36.012 -17.665 -22.333  0.00  0.00    +0.047 C 
BRANCH  20  25
ATOM     21  S   UNL     1      34.220 -17.395 -24.416  0.00  0.00    -0.048 S 
ATOM     22  O   UNL     1      34.907 -15.008 -21.463  0.00  0.00    -0.274 OA
ATOM     23  O   UNL     1      33.647 -15.299 -25.895  0.00  0.00    -0.263 OA
ATOM     24  N   UNL     1      34.248 -14.950 -23.678  0.00  0.00    -0.246 N 
ATOM     25  C   UNL     1      34.642 -17.082 -22.674  0.00  0.00    +0.137 C 
ATOM     26  C   UNL     1      34.625 -15.579 -22.510  0.00  0.00    +0.239 C 
ATOM     27  C   UNL     1      33.986 -15.702 -24.793  0.00  0.00    +0.279 C 
ATOM     28  H   UNL     1      34.168 -13.970 -23.711  0.00  0.00    +0.158 HD
ENDBRANCH  20  25
ENDBRANCH   1  20
TORSDOF 5
ENDMDL
MODEL 6
REMARK VINA RESULT:     -11.9      4.581      9.753
REMARK  Name = 204109
REMARK  5 active torsions:
REMARK  status: ('A' for Active; 'I' for Inactive)
REMARK    1  A    between atoms: C_1  and  C_20
REMARK    2  A    between atoms: C_9  and  O_11
REMARK    3  A    between atoms: O_11  and  C_12
REMARK    4  A    between atoms: C_12  and  C_14
REMARK    5  A    between atoms: C_20  and  C_25
REMARK                            x       y       z     vdW  Elec       q    Type
REMARK                         _______ _______ _______ _____ _____    ______ ____
ROOT
ATOM      1  C   UNL     1      35.187 -20.315 -20.306  0.00  0.00    -0.021 C 
ATOM      2  C   UNL     1      35.516 -21.586 -18.258  0.00  0.00    -0.000 C 
ATOM      3  C   UNL     1      36.021 -20.775 -19.287  0.00  0.00    -0.004 C 
ATOM      4  C   UNL     1      34.145 -21.935 -18.263  0.00  0.00    +0.003 C 
ATOM      5  C   UNL     1      33.838 -20.658 -20.310  0.00  0.00    -0.004 C 
ATOM      6  C   UNL     1      33.318 -21.462 -19.295  0.00  0.00    -0.000 C 
ATOM      7  C   UNL     1      33.639 -22.746 -17.234  0.00  0.00    +0.037 C 
ATOM      8  C   UNL     1      36.342 -22.059 -17.225  0.00  0.00    +0.003 C 
ATOM      9  C   UNL     1      34.474 -23.207 -16.215  0.00  0.00    +0.139 C 
ATOM     10  C   UNL     1      35.823 -22.863 -16.211  0.00  0.00    +0.037 C 
ENDROOT
BRANCH   9  11
ATOM     11  O   UNL     1      33.970 -23.992 -15.223  0.00  0.00    -0.471 OA
BRANCH  11  12
ATOM     12  C   UNL     1      33.103 -23.368 -14.278  0.00  0.00    +0.234 C 
BRANCH  12  14
ATOM     13  F   UNL     1      32.006 -25.709 -13.138  0.00  0.00    -0.204 F 
ATOM     14  C   UNL     1      31.682 -23.773 -14.474  0.00  0.00    +0.049 C 
ATOM     15  C   UNL     1      31.200 -24.941 -13.884  0.00  0.00    +0.140 C 
ATOM     16  C   UNL     1      30.835 -22.983 -15.250  0.00  0.00    +0.002 C 
ATOM     17  C   UNL     1      29.869 -25.319 -14.069  0.00  0.00    +0.029 C 
ATOM     18  C   UNL     1      29.504 -23.360 -15.436  0.00  0.00    -0.000 C 
ATOM     19  C   UNL     1      29.021 -24.527 -14.845  0.00  0.00    +0.002 C 
ENDBRANCH  12  14
ENDBRANCH  11  12
ENDBRANCH   9  11
BRANCH   1  20
ATOM     20  C   UNL     1      35.740 -19.454 -21.391  0.00  0.00    +0.047 C 
BRANCH  20  25
ATOM     21  S   UNL     1      34.565 -18.561 -23.724  0.00  0.00    -0.048 S 
ATOM     22  O   UNL     1      35.381 -16.606 -20.498  0.00  0.00    -0.274 OA
ATOM     23  O   UNL     1      34.978 -16.354 -25.091  0.00  0.00    -0.263 OA
ATOM     24  N   UNL     1      35.216 -16.279 -22.781  0.00  0.00    -0.246 N 
ATOM     25  C   UNL     1      34.717 -18.449 -21.915  0.00  0.00    +0.137 C 
ATOM     26  C   UNL     1      35.142 -17.027 -21.624  0.00  0.00    +0.239 C 
ATOM     27  C   UNL     1      34.953 -16.875 -23.986  0.00  0.00    +0.279 C 
ATOM     28  H   UNL     1      35.457 -15.325 -22.741  0.00  0.00    +0.158 HD
ENDBRANCH  20  25
ENDBRANCH   1  20
TORSDOF 5
ENDMDL
MODEL 7
REMARK VINA RESULT:     -11.8      5.921     10.811
REMARK  Name = 204109
REMARK  5 active torsions:
REMARK  status: ('A' for Active; 'I' for Inactive)
REMARK    1  A    between atoms: C_1  and  C_20
REMARK    2  A    between atoms: C_9  and  O_11
REMARK    3  A    between atoms: O_11  and  C_12
REMARK    4  A    between atoms: C_12  and  C_14
REMARK    5  A    between atoms: C_20  and  C_25
REMARK                            x       y       z     vdW  Elec       q    Type
REMARK                         _______ _______ _______ _____ _____    ______ ____
ROOT
ATOM      1  C   UNL     1      33.594 -12.671 -23.493  0.00  0.00    -0.021 C 
ATOM      2  C   UNL     1      34.072 -15.015 -23.935  0.00  0.00    -0.000 C 
ATOM      3  C   UNL     1      33.575 -13.770 -24.352  0.00  0.00    -0.004 C 
ATOM      4  C   UNL     1      34.598 -15.147 -22.628  0.00  0.00    +0.003 C 
ATOM      5  C   UNL     1      34.111 -12.801 -22.207  0.00  0.00    -0.004 C 
ATOM      6  C   UNL     1      34.611 -14.030 -21.776  0.00  0.00    -0.000 C 
ATOM      7  C   UNL     1      35.096 -16.392 -22.210  0.00  0.00    +0.037 C 
ATOM      8  C   UNL     1      34.060 -16.132 -24.786  0.00  0.00    +0.003 C 
ATOM      9  C   UNL     1      35.076 -17.491 -23.070  0.00  0.00    +0.139 C 
ATOM     10  C   UNL     1      34.560 -17.361 -24.355  0.00  0.00    +0.037 C 
ENDROOT
BRANCH   9  11
ATOM     11  O   UNL     1      35.563 -18.692 -22.651  0.00  0.00    -0.471 OA
BRANCH  11  12
ATOM     12  C   UNL     1      35.974 -18.787 -21.289  0.00  0.00    +0.234 C 
BRANCH  12  14
ATOM     13  F   UNL     1      37.161 -20.825 -19.732  0.00  0.00    -0.204 F 
ATOM     14  C   UNL     1      35.177 -19.799 -20.537  0.00  0.00    +0.049 C 
ATOM     15  C   UNL     1      35.823 -20.781 -19.786  0.00  0.00    +0.140 C 
ATOM     16  C   UNL     1      33.784 -19.763 -20.587  0.00  0.00    +0.002 C 
ATOM     17  C   UNL     1      35.075 -21.726 -19.084  0.00  0.00    +0.029 C 
ATOM     18  C   UNL     1      33.035 -20.708 -19.885  0.00  0.00    -0.000 C 
ATOM     19  C   UNL     1      33.681 -21.689 -19.133  0.00  0.00    +0.002 C 
ENDBRANCH  12  14
ENDBRANCH  11  12
ENDBRANCH   9  11
BRANCH   1  20
ATOM     20  C   UNL     1      33.061 -11.356 -23.953  0.00  0.00    +0.047 C 
BRANCH  20  25
ATOM     21  S   UNL     1      31.258  -9.834 -22.518  0.00  0.00    -0.048 S 
ATOM     22  O   UNL     1      34.909  -9.033 -23.480  0.00  0.00    -0.274 OA
ATOM     23  O   UNL     1      30.723  -7.264 -22.659  0.00  0.00    -0.263 OA
ATOM     24  N   UNL     1      32.897  -7.961 -23.094  0.00  0.00    -0.246 N 
ATOM     25  C   UNL     1      32.982 -10.334 -22.821  0.00  0.00    +0.137 C 
ATOM     26  C   UNL     1      33.723  -9.063 -23.172  0.00  0.00    +0.239 C 
ATOM     27  C   UNL     1      31.578  -8.131 -22.767  0.00  0.00    +0.279 C 
ATOM     28  H   UNL     1      33.252  -7.061 -23.272  0.00  0.00    +0.158 HD
ENDBRANCH  20  25
ENDBRANCH   1  20
TORSDOF 5
ENDMDL
MODEL 8
REMARK VINA RESULT:     -11.7      2.949      4.880
REMARK  Name = 204109
REMARK  5 active torsions:
REMARK  status: ('A' for Active; 'I' for Inactive)
REMARK    1  A    between atoms: C_1  and  C_20
REMARK    2  A    between atoms: C_9  and  O_11
REMARK    3  A    between atoms: O_11  and  C_12
REMARK    4  A    between atoms: C_12  and  C_14
REMARK    5  A    between atoms: C_20  and  C_25
REMARK                            x       y       z     vdW  Elec       q    Type
REMARK                         _______ _______ _______ _____ _____    ______ ____
ROOT
ATOM      1  C   UNL     1      35.181 -19.168 -21.586  0.00  0.00    -0.021 C 
ATOM      2  C   UNL     1      34.925 -16.761 -21.345  0.00  0.00    -0.000 C 
ATOM      3  C   UNL     1      35.098 -18.033 -20.778  0.00  0.00    -0.004 C 
ATOM      4  C   UNL     1      34.834 -16.637 -22.752  0.00  0.00    +0.003 C 
ATOM      5  C   UNL     1      35.091 -19.046 -22.969  0.00  0.00    -0.004 C 
ATOM      6  C   UNL     1      34.920 -17.789 -23.551  0.00  0.00    -0.000 C 
ATOM      7  C   UNL     1      34.661 -15.365 -23.320  0.00  0.00    +0.037 C 
ATOM      8  C   UNL     1      34.840 -15.608 -20.548  0.00  0.00    +0.003 C 
ATOM      9  C   UNL     1      34.578 -14.230 -22.512  0.00  0.00    +0.139 C 
ATOM     10  C   UNL     1      34.668 -14.351 -21.129  0.00  0.00    +0.037 C 
ENDROOT
BRANCH   9  11
ATOM     11  O   UNL     1      34.411 -13.002 -23.077  0.00  0.00    -0.471 OA
BRANCH  11  12
ATOM     12  C   UNL     1      33.086 -12.637 -23.459  0.00  0.00    +0.234 C 
BRANCH  12  14
ATOM     13  F   UNL     1      31.630 -13.344 -21.142  0.00  0.00    -0.204 F 
ATOM     14  C   UNL     1      32.499 -11.627 -22.534  0.00  0.00    +0.049 C 
ATOM     15  C   UNL     1      31.790 -12.039 -21.405  0.00  0.00    +0.140 C 
ATOM     16  C   UNL     1      32.658 -10.267 -22.799  0.00  0.00    +0.002 C 
ATOM     17  C   UNL     1      31.242 -11.091 -20.541  0.00  0.00    +0.029 C 
ATOM     18  C   UNL     1      32.109  -9.318 -21.935  0.00  0.00    -0.000 C 
ATOM     19  C   UNL     1      31.402  -9.730 -20.806  0.00  0.00    +0.002 C 
ENDBRANCH  12  14
ENDBRANCH  11  12
ENDBRANCH   9  11
BRANCH   1  20
ATOM     20  C   UNL     1      35.365 -20.512 -20.966  0.00  0.00    +0.047 C 
BRANCH  20  25
ATOM     21  S   UNL     1      35.499 -21.886 -18.575  0.00  0.00    -0.048 S 
ATOM     22  O   UNL     1      32.413 -20.451 -20.397  0.00  0.00    -0.274 OA
ATOM     23  O   UNL     1      33.973 -23.813 -17.642  0.00  0.00    -0.263 OA
ATOM     24  N   UNL     1      33.001 -22.201 -19.005  0.00  0.00    -0.246 N 
ATOM     25  C   UNL     1      34.689 -20.620 -19.601  0.00  0.00    +0.137 C 
ATOM     26  C   UNL     1      33.247 -21.055 -19.731  0.00  0.00    +0.239 C 
ATOM     27  C   UNL     1      34.027 -22.801 -18.324  0.00  0.00    +0.279 C 
ATOM     28  H   UNL     1      32.095 -22.587 -18.977  0.00  0.00    +0.158 HD
ENDBRANCH  20  25
ENDBRANCH   1  20
TORSDOF 5
ENDMDL
MODEL 9
REMARK VINA RESULT:     -11.7      2.747      3.926
REMARK  Name = 204109
REMARK  5 active torsions:
REMARK  status: ('A' for Active; 'I' for Inactive)
REMARK    1  A    between atoms: C_1  and  C_20
REMARK    2  A    between atoms: C_9  and  O_11
REMARK    3  A    between atoms: O_11  and  C_12
REMARK    4  A    between atoms: C_12  and  C_14
REMARK    5  A    between atoms: C_20  and  C_25
REMARK                            x       y       z     vdW  Elec       q    Type
REMARK                         _______ _______ _______ _____ _____    ______ ____
ROOT
ATOM      1  C   UNL     1      36.283 -23.247 -15.489  0.00  0.00    -0.021 C 
ATOM      2  C   UNL     1      34.910 -22.456 -17.335  0.00  0.00    -0.000 C 
ATOM      3  C   UNL     1      35.064 -23.220 -16.167  0.00  0.00    -0.004 C 
ATOM      4  C   UNL     1      36.008 -21.708 -17.822  0.00  0.00    +0.003 C 
ATOM      5  C   UNL     1      37.362 -22.512 -15.968  0.00  0.00    -0.004 C 
ATOM      6  C   UNL     1      37.228 -21.745 -17.127  0.00  0.00    -0.000 C 
ATOM      7  C   UNL     1      35.855 -20.943 -18.989  0.00  0.00    +0.037 C 
ATOM      8  C   UNL     1      33.690 -22.417 -18.031  0.00  0.00    +0.003 C 
ATOM      9  C   UNL     1      34.635 -20.916 -19.668  0.00  0.00    +0.139 C 
ATOM     10  C   UNL     1      33.555 -21.652 -19.189  0.00  0.00    +0.037 C 
ENDROOT
BRANCH   9  11
ATOM     11  O   UNL     1      34.501 -20.169 -20.799  0.00  0.00    -0.471 OA
BRANCH  11  12
ATOM     12  C   UNL     1      35.654 -19.463 -21.252  0.00  0.00    +0.234 C 
BRANCH  12  14
ATOM     13  F   UNL     1      34.689 -19.824 -23.883  0.00  0.00    -0.204 F 
ATOM     14  C   UNL     1      35.294 -18.325 -22.144  0.00  0.00    +0.049 C 
ATOM     15  C   UNL     1      34.823 -18.568 -23.434  0.00  0.00    +0.140 C 
ATOM     16  C   UNL     1      35.430 -17.014 -21.687  0.00  0.00    +0.002 C 
ATOM     17  C   UNL     1      34.486 -17.500 -24.267  0.00  0.00    +0.029 C 
ATOM     18  C   UNL     1      35.095 -15.946 -22.520  0.00  0.00    -0.000 C 
ATOM     19  C   UNL     1      34.622 -16.189 -23.810  0.00  0.00    +0.002 C 
ENDBRANCH  12  14
ENDBRANCH  11  12
ENDBRANCH   9  11
BRANCH   1  20
ATOM     20  C   UNL     1      36.428 -24.064 -14.250  0.00  0.00    +0.047 C 
BRANCH  20  25
ATOM     21  S   UNL     1      37.085 -23.177 -11.719  0.00  0.00    -0.048 S 
ATOM     22  O   UNL     1      33.727 -24.561 -13.027  0.00  0.00    -0.274 OA
ATOM     23  O   UNL     1      36.519 -24.204  -9.366  0.00  0.00    -0.263 OA
ATOM     24  N   UNL     1      34.979 -24.476 -11.085  0.00  0.00    -0.246 N 
ATOM     25  C   UNL     1      35.833 -23.374 -13.025  0.00  0.00    +0.137 C 
ATOM     26  C   UNL     1      34.723 -24.198 -12.412  0.00  0.00    +0.239 C 
ATOM     27  C   UNL     1      36.147 -24.039 -10.518  0.00  0.00    +0.279 C 
ATOM     28  H   UNL     1      34.328 -24.985 -10.550  0.00  0.00    +0.158 HD
ENDBRANCH  20  25
ENDBRANCH   1  20
TORSDOF 5
ENDMDL
