MODEL 1
REMARK VINA RESULT:     -12.7      0.000      0.000
REMARK  Name = 448407
REMARK  4 active torsions:
REMARK  status: ('A' for Active; 'I' for Inactive)
REMARK    1  A    between atoms: C_1  and  N_8
REMARK    2  A    between atoms: C_2  and  C_23
REMARK    3  A    between atoms: N_22  and  C_25
REMARK    4  A    between atoms: C_25  and  C_28
REMARK                            x       y       z     vdW  Elec       q    Type
REMARK                         _______ _______ _______ _____ _____    ______ ____
ROOT
ATOM      1  C   UNL     1      35.804 -18.767 -21.246  0.00  0.00    +0.090 C 
ATOM      2  C   UNL     1      34.853 -20.515 -19.844  0.00  0.00    +0.055 C 
ATOM      3  C   UNL     1      34.694 -19.491 -20.777  0.00  0.00    +0.023 C 
ATOM      4  C   UNL     1      37.078 -19.099 -20.754  0.00  0.00    +0.018 C 
ATOM      5  C   UNL     1      36.125 -20.831 -19.366  0.00  0.00    +0.005 C 
ATOM      6  C   UNL     1      37.237 -20.123 -19.822  0.00  0.00    +0.002 C 
ENDROOT
BRANCH   1   8
ATOM      7  O   UNL     1      34.549 -13.751 -21.757  0.00  0.00    -0.207 OA
ATOM      8  N   UNL     1      35.645 -17.747 -22.177  0.00  0.00    -0.137 N 
ATOM      9  N   UNL     1      35.137 -17.912 -23.427  0.00  0.00    -0.215 N 
ATOM     10  N   UNL     1      35.438 -16.451 -21.711  0.00  0.00    -0.143 NA
ATOM     11  N   UNL     1      33.974 -16.281 -24.854  0.00  0.00    -0.309 NA
ATOM     12  N   UNL     1      33.703 -14.086 -23.889  0.00  0.00    -0.251 NA
ATOM     13  N   UNL     1      32.896 -14.534 -26.009  0.00  0.00    -0.283 N 
ATOM     14  C   UNL     1      34.583 -16.740 -23.824  0.00  0.00    +0.243 C 
ATOM     15  C   UNL     1      34.813 -15.849 -22.675  0.00  0.00    +0.241 C 
ATOM     16  C   UNL     1      34.342 -14.459 -22.731  0.00  0.00    +0.239 C 
ATOM     17  C   UNL     1      33.541 -14.953 -24.868  0.00  0.00    +0.208 C 
ATOM     18  H   UNL     1      35.166 -18.742 -23.956  0.00  0.00    +0.175 HD
ATOM     19  H   UNL     1      32.760 -15.160 -26.757  0.00  0.00    +0.156 HD
ATOM     20  H   UNL     1      32.568 -13.608 -26.077  0.00  0.00    +0.156 HD
ENDBRANCH   1   8
BRANCH   2  23
ATOM     21  O   UNL     1      32.616 -21.202 -19.989  0.00  0.00    -0.270 OA
ATOM     22  N   UNL     1      33.863 -22.031 -18.218  0.00  0.00    -0.297 N 
ATOM     23  C   UNL     1      33.694 -21.255 -19.370  0.00  0.00    +0.246 C 
ATOM     24  H   UNL     1      34.744 -22.026 -17.778  0.00  0.00    +0.150 HD
BRANCH  22  25
ATOM     25  C   UNL     1      32.814 -22.839 -17.639  0.00  0.00    +0.117 C 
BRANCH  25  28
ATOM     26 CL   UNL     1      31.095 -24.479 -13.013  0.00  0.00    -0.082 Cl
ATOM     27 CL   UNL     1      36.327 -23.458 -13.855  0.00  0.00    -0.082 Cl
ATOM     28  C   UNL     1      33.118 -23.220 -16.218  0.00  0.00    -0.001 C 
ATOM     29  C   UNL     1      34.428 -23.167 -15.756  0.00  0.00    +0.009 C 
ATOM     30  C   UNL     1      32.085 -23.623 -15.379  0.00  0.00    +0.009 C 
ATOM     31  C   UNL     1      32.366 -23.978 -14.060  0.00  0.00    +0.058 C 
ATOM     32  C   UNL     1      34.709 -23.521 -14.437  0.00  0.00    +0.058 C 
ATOM     33  C   UNL     1      33.678 -23.927 -13.588  0.00  0.00    +0.023 C 
ENDBRANCH  25  28
ENDBRANCH  22  25
ENDBRANCH   2  23
TORSDOF 4
ENDMDL
MODEL 2
REMARK VINA RESULT:     -12.6      4.654     10.416
REMARK  Name = 448407
REMARK  4 active torsions:
REMARK  status: ('A' for Active; 'I' for Inactive)
REMARK    1  A    between atoms: C_1  and  N_8
REMARK    2  A    between atoms: C_2  and  C_23
REMARK    3  A    between atoms: N_22  and  C_25
REMARK    4  A    between atoms: C_25  and  C_28
REMARK                            x       y       z     vdW  Elec       q    Type
REMARK                         _______ _______ _______ _____ _____    ______ ____
ROOT
ATOM      1  C   UNL     1      34.944 -22.109 -17.929  0.00  0.00    +0.090 C 
ATOM      2  C   UNL     1      35.023 -20.524 -19.776  0.00  0.00    +0.055 C 
ATOM      3  C   UNL     1      35.662 -21.221 -18.750  0.00  0.00    +0.023 C 
ATOM      4  C   UNL     1      33.569 -22.278 -18.166  0.00  0.00    +0.018 C 
ATOM      5  C   UNL     1      33.658 -20.704 -19.997  0.00  0.00    +0.005 C 
ATOM      6  C   UNL     1      32.931 -21.582 -19.192  0.00  0.00    +0.002 C 
ENDROOT
BRANCH   1   8
ATOM      7  O   UNL     1      34.090 -25.041 -13.726  0.00  0.00    -0.207 OA
ATOM      8  N   UNL     1      35.580 -22.805 -16.908  0.00  0.00    -0.137 N 
ATOM      9  N   UNL     1      36.719 -22.398 -16.287  0.00  0.00    -0.215 N 
ATOM     10  N   UNL     1      34.809 -23.614 -16.078  0.00  0.00    -0.143 NA
ATOM     11  N   UNL     1      37.508 -22.905 -14.013  0.00  0.00    -0.309 NA
ATOM     12  N   UNL     1      36.048 -24.321 -12.714  0.00  0.00    -0.251 NA
ATOM     13  N   UNL     1      38.026 -23.543 -11.805  0.00  0.00    -0.283 N 
ATOM     14  C   UNL     1      36.736 -22.922 -15.036  0.00  0.00    +0.243 C 
ATOM     15  C   UNL     1      35.483 -23.690 -14.972  0.00  0.00    +0.241 C 
ATOM     16  C   UNL     1      35.141 -24.417 -13.743  0.00  0.00    +0.239 C 
ATOM     17  C   UNL     1      37.147 -23.609 -12.862  0.00  0.00    +0.208 C 
ATOM     18  H   UNL     1      37.414 -21.821 -16.678  0.00  0.00    +0.175 HD
ATOM     19  H   UNL     1      38.856 -23.018 -11.886  0.00  0.00    +0.156 HD
ATOM     20  H   UNL     1      37.826 -24.019 -10.967  0.00  0.00    +0.156 HD
ENDBRANCH   1   8
BRANCH   2  23
ATOM     21  O   UNL     1      36.863 -19.140 -20.221  0.00  0.00    -0.270 OA
ATOM     22  N   UNL     1      35.249 -19.317 -21.877  0.00  0.00    -0.297 N 
ATOM     23  C   UNL     1      35.781 -19.611 -20.616  0.00  0.00    +0.246 C 
ATOM     24  H   UNL     1      34.388 -19.724 -22.125  0.00  0.00    +0.150 HD
BRANCH  22  25
ATOM     25  C   UNL     1      35.894 -18.447 -22.833  0.00  0.00    +0.117 C 
BRANCH  25  28
ATOM     26 CL   UNL     1      33.317 -14.909 -25.640  0.00  0.00    -0.082 Cl
ATOM     27 CL   UNL     1      34.543 -14.022 -20.460  0.00  0.00    -0.082 Cl
ATOM     28  C   UNL     1      35.231 -17.101 -22.906  0.00  0.00    -0.001 C 
ATOM     29  C   UNL     1      35.201 -16.287 -21.780  0.00  0.00    +0.009 C 
ATOM     30  C   UNL     1      34.654 -16.684 -24.099  0.00  0.00    +0.009 C 
ATOM     31  C   UNL     1      34.037 -15.435 -24.168  0.00  0.00    +0.058 C 
ATOM     32  C   UNL     1      34.585 -15.038 -21.848  0.00  0.00    +0.058 C 
ATOM     33  C   UNL     1      34.002 -14.611 -23.042  0.00  0.00    +0.023 C 
ENDBRANCH  25  28
ENDBRANCH  22  25
ENDBRANCH   2  23
TORSDOF 4
ENDMDL
MODEL 3
REMARK VINA RESULT:     -12.5      4.162      9.824
REMARK  Name = 448407
REMARK  4 active torsions:
REMARK  status: ('A' for Active; 'I' for Inactive)
REMARK    1  A    between atoms: C_1  and  N_8
REMARK    2  A    between atoms: C_2  and  C_23
REMARK    3  A    between atoms: N_22  and  C_25
REMARK    4  A    between atoms: C_25  and  C_28
REMARK                            x       y       z     vdW  Elec       q    Type
REMARK                         _______ _______ _______ _____ _____    ______ ____
ROOT
ATOM      1  C   UNL     1      34.403 -22.186 -17.998  0.00  0.00    +0.090 C 
ATOM      2  C   UNL     1      35.001 -20.777 -19.890  0.00  0.00    +0.055 C 
ATOM      3  C   UNL     1      34.060 -21.536 -19.197  0.00  0.00    +0.023 C 
ATOM      4  C   UNL     1      35.716 -22.051 -17.513  0.00  0.00    +0.018 C 
ATOM      5  C   UNL     1      36.299 -20.653 -19.396  0.00  0.00    +0.005 C 
ATOM      6  C   UNL     1      36.656 -21.291 -18.207  0.00  0.00    +0.002 C 
ENDROOT
BRANCH   1   8
ATOM      7  O   UNL     1      29.401 -22.359 -16.605  0.00  0.00    -0.207 OA
ATOM      8  N   UNL     1      33.464 -22.942 -17.305  0.00  0.00    -0.137 N 
ATOM      9  N   UNL     1      33.718 -23.633 -16.162  0.00  0.00    -0.215 N 
ATOM     10  N   UNL     1      32.124 -22.575 -17.392  0.00  0.00    -0.143 NA
ATOM     11  N   UNL     1      32.169 -24.259 -14.357  0.00  0.00    -0.309 NA
ATOM     12  N   UNL     1      29.886 -23.542 -14.671  0.00  0.00    -0.251 NA
ATOM     13  N   UNL     1      30.484 -24.728 -12.778  0.00  0.00    -0.283 N 
ATOM     14  C   UNL     1      32.561 -23.742 -15.462  0.00  0.00    +0.243 C 
ATOM     15  C   UNL     1      31.583 -23.043 -16.310  0.00  0.00    +0.241 C 
ATOM     16  C   UNL     1      30.183 -22.949 -15.875  0.00  0.00    +0.239 C 
ATOM     17  C   UNL     1      30.829 -24.148 -13.977  0.00  0.00    +0.208 C 
ATOM     18  H   UNL     1      34.592 -23.992 -15.888  0.00  0.00    +0.175 HD
ATOM     19  H   UNL     1      31.168 -25.187 -12.238  0.00  0.00    +0.156 HD
ATOM     20  H   UNL     1      29.554 -24.682 -12.458  0.00  0.00    +0.156 HD
ENDBRANCH   1   8
BRANCH   2  23
ATOM     21  O   UNL     1      33.434 -20.017 -21.460  0.00  0.00    -0.270 OA
ATOM     22  N   UNL     1      35.668 -19.571 -21.897  0.00  0.00    -0.297 N 
ATOM     23  C   UNL     1      34.629 -20.110 -21.128  0.00  0.00    +0.246 C 
ATOM     24  H   UNL     1      36.591 -19.682 -21.575  0.00  0.00    +0.150 HD
BRANCH  22  25
ATOM     25  C   UNL     1      35.456 -18.861 -23.137  0.00  0.00    +0.117 C 
BRANCH  25  28
ATOM     26 CL   UNL     1      33.613 -14.399 -25.068  0.00  0.00    -0.082 Cl
ATOM     27 CL   UNL     1      34.859 -14.884 -19.840  0.00  0.00    -0.082 Cl
ATOM     28  C   UNL     1      35.044 -17.435 -22.906  0.00  0.00    -0.001 C 
ATOM     29  C   UNL     1      35.134 -16.892 -21.630  0.00  0.00    +0.009 C 
ATOM     30  C   UNL     1      34.577 -16.674 -23.971  0.00  0.00    +0.009 C 
ATOM     31  C   UNL     1      34.194 -15.350 -23.757  0.00  0.00    +0.058 C 
ATOM     32  C   UNL     1      34.752 -15.568 -21.416  0.00  0.00    +0.058 C 
ATOM     33  C   UNL     1      34.281 -14.796 -22.479  0.00  0.00    +0.023 C 
ENDBRANCH  25  28
ENDBRANCH  22  25
ENDBRANCH   2  23
TORSDOF 4
ENDMDL
MODEL 4
REMARK VINA RESULT:     -12.2      4.832     10.511
REMARK  Name = 448407
REMARK  4 active torsions:
REMARK  status: ('A' for Active; 'I' for Inactive)
REMARK    1  A    between atoms: C_1  and  N_8
REMARK    2  A    between atoms: C_2  and  C_23
REMARK    3  A    between atoms: N_22  and  C_25
REMARK    4  A    between atoms: C_25  and  C_28
REMARK                            x       y       z     vdW  Elec       q    Type
REMARK                         _______ _______ _______ _____ _____    ______ ____
ROOT
ATOM      1  C   UNL     1      35.119 -22.157 -17.411  0.00  0.00    +0.090 C 
ATOM      2  C   UNL     1      35.318 -20.819 -19.435  0.00  0.00    +0.055 C 
ATOM      3  C   UNL     1      35.841 -21.261 -18.220  0.00  0.00    +0.023 C 
ATOM      4  C   UNL     1      33.860 -22.597 -17.855  0.00  0.00    +0.018 C 
ATOM      5  C   UNL     1      34.067 -21.265 -19.860  0.00  0.00    +0.005 C 
ATOM      6  C   UNL     1      33.338 -22.155 -19.070  0.00  0.00    +0.002 C 
ENDROOT
BRANCH   1   8
ATOM      7  O   UNL     1      39.460 -23.858 -15.117  0.00  0.00    -0.207 OA
ATOM      8  N   UNL     1      35.640 -22.599 -16.200  0.00  0.00    -0.137 N 
ATOM      9  N   UNL     1      34.967 -23.367 -15.302  0.00  0.00    -0.215 N 
ATOM     10  N   UNL     1      37.016 -22.788 -16.101  0.00  0.00    -0.143 NA
ATOM     11  N   UNL     1      35.860 -24.942 -13.638  0.00  0.00    -0.309 NA
ATOM     12  N   UNL     1      38.264 -25.144 -13.604  0.00  0.00    -0.251 NA
ATOM     13  N   UNL     1      36.971 -26.382 -12.140  0.00  0.00    -0.283 N 
ATOM     14  C   UNL     1      35.871 -24.082 -14.587  0.00  0.00    +0.243 C 
ATOM     15  C   UNL     1      37.162 -23.660 -15.152  0.00  0.00    +0.241 C 
ATOM     16  C   UNL     1      38.407 -24.231 -14.621  0.00  0.00    +0.239 C 
ATOM     17  C   UNL     1      37.064 -25.463 -13.160  0.00  0.00    +0.208 C 
ATOM     18  H   UNL     1      33.990 -23.399 -15.190  0.00  0.00    +0.175 HD
ATOM     19  H   UNL     1      36.087 -26.639 -11.788  0.00  0.00    +0.156 HD
ATOM     20  H   UNL     1      37.786 -26.783 -11.762  0.00  0.00    +0.156 HD
ENDBRANCH   1   8
BRANCH   2  23
ATOM     21  O   UNL     1      37.196 -19.491 -19.890  0.00  0.00    -0.270 OA
ATOM     22  N   UNL     1      35.504 -19.508 -21.477  0.00  0.00    -0.297 N 
ATOM     23  C   UNL     1      36.078 -19.893 -20.260  0.00  0.00    +0.246 C 
ATOM     24  H   UNL     1      34.616 -19.864 -21.706  0.00  0.00    +0.150 HD
BRANCH  22  25
ATOM     25  C   UNL     1      36.145 -18.614 -22.414  0.00  0.00    +0.117 C 
BRANCH  25  28
ATOM     26 CL   UNL     1      33.560 -15.181 -25.341  0.00  0.00    -0.082 Cl
ATOM     27 CL   UNL     1      34.481 -14.264 -20.103  0.00  0.00    -0.082 Cl
ATOM     28  C   UNL     1      35.428 -17.299 -22.518  0.00  0.00    -0.001 C 
ATOM     29  C   UNL     1      35.305 -16.492 -21.393  0.00  0.00    +0.009 C 
ATOM     30  C   UNL     1      34.893 -16.903 -23.738  0.00  0.00    +0.009 C 
ATOM     31  C   UNL     1      34.226 -15.681 -23.835  0.00  0.00    +0.058 C 
ATOM     32  C   UNL     1      34.638 -15.271 -21.489  0.00  0.00    +0.058 C 
ATOM     33  C   UNL     1      34.098 -14.865 -22.710  0.00  0.00    +0.023 C 
ENDBRANCH  25  28
ENDBRANCH  22  25
ENDBRANCH   2  23
TORSDOF 4
ENDMDL
MODEL 5
REMARK VINA RESULT:     -11.8      3.697      6.739
REMARK  Name = 448407
REMARK  4 active torsions:
REMARK  status: ('A' for Active; 'I' for Inactive)
REMARK    1  A    between atoms: C_1  and  N_8
REMARK    2  A    between atoms: C_2  and  C_23
REMARK    3  A    between atoms: N_22  and  C_25
REMARK    4  A    between atoms: C_25  and  C_28
REMARK                            x       y       z     vdW  Elec       q    Type
REMARK                         _______ _______ _______ _____ _____    ______ ____
ROOT
ATOM      1  C   UNL     1      33.213 -13.778 -23.350  0.00  0.00    +0.090 C 
ATOM      2  C   UNL     1      34.582 -15.728 -22.848  0.00  0.00    +0.055 C 
ATOM      3  C   UNL     1      33.981 -14.534 -22.447  0.00  0.00    +0.023 C 
ATOM      4  C   UNL     1      33.062 -14.253 -24.665  0.00  0.00    +0.018 C 
ATOM      5  C   UNL     1      34.422 -16.184 -24.156  0.00  0.00    +0.005 C 
ATOM      6  C   UNL     1      33.663 -15.447 -25.064  0.00  0.00    +0.002 C 
ENDROOT
BRANCH   1   8
ATOM      7  O   UNL     1      33.570  -8.608 -23.709  0.00  0.00    -0.207 OA
ATOM      8  N   UNL     1      32.613 -12.589 -22.951  0.00  0.00    -0.137 N 
ATOM      9  N   UNL     1      32.045 -12.380 -21.734  0.00  0.00    -0.215 N 
ATOM     10  N   UNL     1      33.065 -11.399 -23.514  0.00  0.00    -0.143 NA
ATOM     11  N   UNL     1      31.749 -10.268 -20.508  0.00  0.00    -0.309 NA
ATOM     12  N   UNL     1      32.589  -8.305 -21.631  0.00  0.00    -0.251 NA
ATOM     13  N   UNL     1      31.592  -8.121 -19.552  0.00  0.00    -0.283 N 
ATOM     14  C   UNL     1      32.103 -11.053 -21.457  0.00  0.00    +0.243 C 
ATOM     15  C   UNL     1      32.768 -10.487 -22.641  0.00  0.00    +0.241 C 
ATOM     16  C   UNL     1      33.014  -9.041 -22.711  0.00  0.00    +0.239 C 
ATOM     17  C   UNL     1      32.001  -8.899 -20.611  0.00  0.00    +0.208 C 
ATOM     18  H   UNL     1      31.657 -13.073 -21.152  0.00  0.00    +0.175 HD
ATOM     19  H   UNL     1      31.150  -8.537 -18.776  0.00  0.00    +0.156 HD
ATOM     20  H   UNL     1      31.743  -7.148 -19.569  0.00  0.00    +0.156 HD
ENDBRANCH   1   8
BRANCH   2  23
ATOM     21  O   UNL     1      35.344 -16.225 -20.687  0.00  0.00    -0.270 OA
ATOM     22  N   UNL     1      36.131 -17.555 -22.417  0.00  0.00    -0.297 N 
ATOM     23  C   UNL     1      35.372 -16.498 -21.900  0.00  0.00    +0.246 C 
ATOM     24  H   UNL     1      36.107 -17.713 -23.388  0.00  0.00    +0.150 HD
BRANCH  22  25
ATOM     25  C   UNL     1      36.948 -18.423 -21.601  0.00  0.00    +0.117 C 
BRANCH  25  28
ATOM     26 CL   UNL     1      36.690 -21.971 -17.808  0.00  0.00    -0.082 Cl
ATOM     27 CL   UNL     1      32.297 -20.512 -20.582  0.00  0.00    -0.082 Cl
ATOM     28  C   UNL     1      36.119 -19.375 -20.789  0.00  0.00    -0.001 C 
ATOM     29  C   UNL     1      34.755 -19.485 -21.037  0.00  0.00    +0.009 C 
ATOM     30  C   UNL     1      36.723 -20.138 -19.796  0.00  0.00    +0.009 C 
ATOM     31  C   UNL     1      35.953 -21.022 -19.040  0.00  0.00    +0.058 C 
ATOM     32  C   UNL     1      33.985 -20.369 -20.282  0.00  0.00    +0.058 C 
ATOM     33  C   UNL     1      34.583 -21.138 -19.283  0.00  0.00    +0.023 C 
ENDBRANCH  25  28
ENDBRANCH  22  25
ENDBRANCH   2  23
TORSDOF 4
ENDMDL
MODEL 6
REMARK VINA RESULT:     -11.7      3.520      6.216
REMARK  Name = 448407
REMARK  4 active torsions:
REMARK  status: ('A' for Active; 'I' for Inactive)
REMARK    1  A    between atoms: C_1  and  N_8
REMARK    2  A    between atoms: C_2  and  C_23
REMARK    3  A    between atoms: N_22  and  C_25
REMARK    4  A    between atoms: C_25  and  C_28
REMARK                            x       y       z     vdW  Elec       q    Type
REMARK                         _______ _______ _______ _____ _____    ______ ____
ROOT
ATOM      1  C   UNL     1      33.908 -13.869 -23.397  0.00  0.00    +0.090 C 
ATOM      2  C   UNL     1      34.867 -16.004 -22.726  0.00  0.00    +0.055 C 
ATOM      3  C   UNL     1      34.588 -14.664 -22.457  0.00  0.00    +0.023 C 
ATOM      4  C   UNL     1      33.514 -14.456 -24.612  0.00  0.00    +0.018 C 
ATOM      5  C   UNL     1      34.469 -16.570 -23.937  0.00  0.00    +0.005 C 
ATOM      6  C   UNL     1      33.793 -15.796 -24.880  0.00  0.00    +0.002 C 
ENDROOT
BRANCH   1   8
ATOM      7  O   UNL     1      30.729 -10.730 -20.745  0.00  0.00    -0.207 OA
ATOM      8  N   UNL     1      33.628 -12.534 -23.129  0.00  0.00    -0.137 N 
ATOM      9  N   UNL     1      33.729 -11.526 -24.035  0.00  0.00    -0.215 N 
ATOM     10  N   UNL     1      32.693 -12.239 -22.140  0.00  0.00    -0.143 NA
ATOM     11  N   UNL     1      32.521  -9.385 -24.107  0.00  0.00    -0.309 NA
ATOM     12  N   UNL     1      30.940  -9.039 -22.317  0.00  0.00    -0.251 NA
ATOM     13  N   UNL     1      31.233  -7.419 -23.941  0.00  0.00    -0.283 N 
ATOM     14  C   UNL     1      32.870 -10.540 -23.675  0.00  0.00    +0.243 C 
ATOM     15  C   UNL     1      32.241 -11.065 -22.453  0.00  0.00    +0.241 C 
ATOM     16  C   UNL     1      31.230 -10.259 -21.756  0.00  0.00    +0.239 C 
ATOM     17  C   UNL     1      31.555  -8.650 -23.416  0.00  0.00    +0.208 C 
ATOM     18  H   UNL     1      34.324 -11.513 -24.819  0.00  0.00    +0.175 HD
ATOM     19  H   UNL     1      31.676  -7.102 -24.762  0.00  0.00    +0.156 HD
ATOM     20  H   UNL     1      30.559  -6.855 -23.497  0.00  0.00    +0.156 HD
ENDBRANCH   1   8
BRANCH   2  23
ATOM     21  O   UNL     1      35.432 -16.588 -20.527  0.00  0.00    -0.270 OA
ATOM     22  N   UNL     1      36.376 -17.848 -22.230  0.00  0.00    -0.297 N 
ATOM     23  C   UNL     1      35.570 -16.812 -21.743  0.00  0.00    +0.246 C 
ATOM     24  H   UNL     1      36.440 -17.968 -23.204  0.00  0.00    +0.150 HD
BRANCH  22  25
ATOM     25  C   UNL     1      37.118 -18.749 -21.379  0.00  0.00    +0.117 C 
BRANCH  25  28
ATOM     26 CL   UNL     1      32.342 -20.618 -20.522  0.00  0.00    -0.082 Cl
ATOM     27 CL   UNL     1      36.529 -22.130 -17.472  0.00  0.00    -0.082 Cl
ATOM     28  C   UNL     1      36.212 -19.636 -20.574  0.00  0.00    -0.001 C 
ATOM     29  C   UNL     1      36.734 -20.381 -19.523  0.00  0.00    +0.009 C 
ATOM     30  C   UNL     1      34.860 -19.703 -20.888  0.00  0.00    +0.009 C 
ATOM     31  C   UNL     1      34.017 -20.527 -20.141  0.00  0.00    +0.058 C 
ATOM     32  C   UNL     1      35.893 -21.205 -18.775  0.00  0.00    +0.058 C 
ATOM     33  C   UNL     1      34.534 -21.278 -19.084  0.00  0.00    +0.023 C 
ENDBRANCH  25  28
ENDBRANCH  22  25
ENDBRANCH   2  23
TORSDOF 4
ENDMDL
MODEL 7
REMARK VINA RESULT:     -11.4      5.689     10.506
REMARK  Name = 448407
REMARK  4 active torsions:
REMARK  status: ('A' for Active; 'I' for Inactive)
REMARK    1  A    between atoms: C_1  and  N_8
REMARK    2  A    between atoms: C_2  and  C_23
REMARK    3  A    between atoms: N_22  and  C_25
REMARK    4  A    between atoms: C_25  and  C_28
REMARK                            x       y       z     vdW  Elec       q    Type
REMARK                         _______ _______ _______ _____ _____    ______ ____
ROOT
ATOM      1  C   UNL     1      32.912 -24.600 -13.646  0.00  0.00    +0.090 C 
ATOM      2  C   UNL     1      31.431 -23.478 -15.218  0.00  0.00    +0.055 C 
ATOM      3  C   UNL     1      32.709 -23.891 -14.842  0.00  0.00    +0.023 C 
ATOM      4  C   UNL     1      31.797 -24.885 -12.838  0.00  0.00    +0.018 C 
ATOM      5  C   UNL     1      30.336 -23.769 -14.405  0.00  0.00    +0.005 C 
ATOM      6  C   UNL     1      30.520 -24.472 -13.214  0.00  0.00    +0.002 C 
ENDROOT
BRANCH   1   8
ATOM      7  O   UNL     1      36.893 -23.489 -10.498  0.00  0.00    -0.207 OA
ATOM      8  N   UNL     1      34.185 -25.013 -13.271  0.00  0.00    -0.137 N 
ATOM      9  N   UNL     1      35.112 -25.530 -14.120  0.00  0.00    -0.215 N 
ATOM     10  N   UNL     1      34.785 -24.398 -12.175  0.00  0.00    -0.143 NA
ATOM     11  N   UNL     1      37.565 -25.495 -13.940  0.00  0.00    -0.309 NA
ATOM     12  N   UNL     1      38.433 -24.389 -11.979  0.00  0.00    -0.251 NA
ATOM     13  N   UNL     1      39.878 -25.322 -13.525  0.00  0.00    -0.283 N 
ATOM     14  C   UNL     1      36.345 -25.273 -13.616  0.00  0.00    +0.243 C 
ATOM     15  C   UNL     1      36.059 -24.546 -12.369  0.00  0.00    +0.241 C 
ATOM     16  C   UNL     1      37.171 -24.091 -11.525  0.00  0.00    +0.239 C 
ATOM     17  C   UNL     1      38.595 -25.045 -13.110  0.00  0.00    +0.208 C 
ATOM     18  H   UNL     1      34.922 -26.008 -14.959  0.00  0.00    +0.175 HD
ATOM     19  H   UNL     1      40.029 -25.811 -14.366  0.00  0.00    +0.156 HD
ATOM     20  H   UNL     1      40.645 -25.030 -12.981  0.00  0.00    +0.156 HD
ENDBRANCH   1   8
BRANCH   2  23
ATOM     21  O   UNL     1      30.133 -22.248 -16.735  0.00  0.00    -0.270 OA
ATOM     22  N   UNL     1      32.352 -22.617 -17.300  0.00  0.00    -0.297 N 
ATOM     23  C   UNL     1      31.240 -22.746 -16.461  0.00  0.00    +0.246 C 
ATOM     24  H   UNL     1      33.197 -23.037 -17.021  0.00  0.00    +0.150 HD
BRANCH  22  25
ATOM     25  C   UNL     1      32.326 -21.900 -18.555  0.00  0.00    +0.117 C 
BRANCH  25  28
ATOM     26 CL   UNL     1      35.297 -19.199 -21.859  0.00  0.00    -0.082 Cl
ATOM     27 CL   UNL     1      37.454 -21.864 -17.692  0.00  0.00    -0.082 Cl
ATOM     28  C   UNL     1      33.694 -21.438 -18.967  0.00  0.00    -0.001 C 
ATOM     29  C   UNL     1      34.803 -21.822 -18.223  0.00  0.00    +0.009 C 
ATOM     30  C   UNL     1      33.837 -20.630 -20.089  0.00  0.00    +0.009 C 
ATOM     31  C   UNL     1      35.108 -20.200 -20.472  0.00  0.00    +0.058 C 
ATOM     32  C   UNL     1      36.074 -21.393 -18.605  0.00  0.00    +0.058 C 
ATOM     33  C   UNL     1      36.227 -20.581 -19.730  0.00  0.00    +0.023 C 
ENDBRANCH  25  28
ENDBRANCH  22  25
ENDBRANCH   2  23
TORSDOF 4
ENDMDL
MODEL 8
REMARK VINA RESULT:     -11.4      5.641     10.342
REMARK  Name = 448407
REMARK  4 active torsions:
REMARK  status: ('A' for Active; 'I' for Inactive)
REMARK    1  A    between atoms: C_1  and  N_8
REMARK    2  A    between atoms: C_2  and  C_23
REMARK    3  A    between atoms: N_22  and  C_25
REMARK    4  A    between atoms: C_25  and  C_28
REMARK                            x       y       z     vdW  Elec       q    Type
REMARK                         _______ _______ _______ _____ _____    ______ ____
ROOT
ATOM      1  C   UNL     1      32.997 -24.545 -13.750  0.00  0.00    +0.090 C 
ATOM      2  C   UNL     1      31.454 -23.469 -15.296  0.00  0.00    +0.055 C 
ATOM      3  C   UNL     1      32.755 -23.811 -14.925  0.00  0.00    +0.023 C 
ATOM      4  C   UNL     1      31.899 -24.928 -12.960  0.00  0.00    +0.018 C 
ATOM      5  C   UNL     1      30.377 -23.856 -14.500  0.00  0.00    +0.005 C 
ATOM      6  C   UNL     1      30.600 -24.586 -13.332  0.00  0.00    +0.002 C 
ENDROOT
BRANCH   1   8
ATOM      7  O   UNL     1      37.205 -22.819 -11.240  0.00  0.00    -0.207 OA
ATOM      8  N   UNL     1      34.293 -24.887 -13.381  0.00  0.00    -0.137 N 
ATOM      9  N   UNL     1      35.152 -25.607 -14.149  0.00  0.00    -0.215 N 
ATOM     10  N   UNL     1      34.975 -24.047 -12.504  0.00  0.00    -0.143 NA
ATOM     11  N   UNL     1      37.612 -25.585 -14.156  0.00  0.00    -0.309 NA
ATOM     12  N   UNL     1      38.627 -24.072 -12.574  0.00  0.00    -0.251 NA
ATOM     13  N   UNL     1      39.949 -25.370 -13.958  0.00  0.00    -0.283 N 
ATOM     14  C   UNL     1      36.420 -25.267 -13.808  0.00  0.00    +0.243 C 
ATOM     15  C   UNL     1      36.230 -24.264 -12.748  0.00  0.00    +0.241 C 
ATOM     16  C   UNL     1      37.403 -23.649 -12.115  0.00  0.00    +0.239 C 
ATOM     17  C   UNL     1      38.702 -24.977 -13.530  0.00  0.00    +0.208 C 
ATOM     18  H   UNL     1      34.898 -26.263 -14.838  0.00  0.00    +0.175 HD
ATOM     19  H   UNL     1      40.036 -26.045 -14.670  0.00  0.00    +0.156 HD
ATOM     20  H   UNL     1      40.756 -24.976 -13.553  0.00  0.00    +0.156 HD
ENDBRANCH   1   8
BRANCH   2  23
ATOM     21  O   UNL     1      30.098 -22.233 -16.756  0.00  0.00    -0.270 OA
ATOM     22  N   UNL     1      32.315 -22.531 -17.370  0.00  0.00    -0.297 N 
ATOM     23  C   UNL     1      31.221 -22.710 -16.514  0.00  0.00    +0.246 C 
ATOM     24  H   UNL     1      33.175 -22.936 -17.117  0.00  0.00    +0.150 HD
BRANCH  22  25
ATOM     25  C   UNL     1      32.247 -21.783 -18.605  0.00  0.00    +0.117 C 
BRANCH  25  28
ATOM     26 CL   UNL     1      37.404 -21.817 -17.933  0.00  0.00    -0.082 Cl
ATOM     27 CL   UNL     1      35.129 -19.110 -22.009  0.00  0.00    -0.082 Cl
ATOM     28  C   UNL     1      33.605 -21.337 -19.066  0.00  0.00    -0.001 C 
ATOM     29  C   UNL     1      33.718 -20.527 -20.191  0.00  0.00    +0.009 C 
ATOM     30  C   UNL     1      34.736 -21.738 -18.365  0.00  0.00    +0.009 C 
ATOM     31  C   UNL     1      35.997 -21.325 -18.793  0.00  0.00    +0.058 C 
ATOM     32  C   UNL     1      34.978 -20.113 -20.619  0.00  0.00    +0.058 C 
ATOM     33  C   UNL     1      36.119 -20.512 -19.921  0.00  0.00    +0.023 C 
ENDBRANCH  25  28
ENDBRANCH  22  25
ENDBRANCH   2  23
TORSDOF 4
ENDMDL
MODEL 9
REMARK VINA RESULT:     -11.2      5.386     10.171
REMARK  Name = 448407
REMARK  4 active torsions:
REMARK  status: ('A' for Active; 'I' for Inactive)
REMARK    1  A    between atoms: C_1  and  N_8
REMARK    2  A    between atoms: C_2  and  C_23
REMARK    3  A    between atoms: N_22  and  C_25
REMARK    4  A    between atoms: C_25  and  C_28
REMARK                            x       y       z     vdW  Elec       q    Type
REMARK                         _______ _______ _______ _____ _____    ______ ____
ROOT
ATOM      1  C   UNL     1      35.270 -17.816 -21.648  0.00  0.00    +0.090 C 
ATOM      2  C   UNL     1      34.535 -15.500 -21.490  0.00  0.00    +0.055 C 
ATOM      3  C   UNL     1      34.847 -16.716 -20.881  0.00  0.00    +0.023 C 
ATOM      4  C   UNL     1      35.372 -17.662 -23.042  0.00  0.00    +0.018 C 
ATOM      5  C   UNL     1      34.641 -15.365 -22.874  0.00  0.00    +0.005 C 
ATOM      6  C   UNL     1      35.060 -16.447 -23.650  0.00  0.00    +0.002 C 
ENDROOT
BRANCH   1   8
ATOM      7  O   UNL     1      33.182 -22.071 -19.522  0.00  0.00    -0.207 OA
ATOM      8  N   UNL     1      35.583 -19.027 -21.042  0.00  0.00    -0.137 N 
ATOM      9  N   UNL     1      36.628 -19.221 -20.195  0.00  0.00    -0.215 N 
ATOM     10  N   UNL     1      34.551 -19.928 -20.793  0.00  0.00    -0.143 NA
ATOM     11  N   UNL     1      36.874 -20.879 -18.396  0.00  0.00    -0.309 NA
ATOM     12  N   UNL     1      34.992 -22.361 -18.104  0.00  0.00    -0.251 NA
ATOM     13  N   UNL     1      36.853 -22.559 -16.744  0.00  0.00    -0.283 N 
ATOM     14  C   UNL     1      36.322 -20.249 -19.365  0.00  0.00    +0.243 C 
ATOM     15  C   UNL     1      34.978 -20.654 -19.806  0.00  0.00    +0.241 C 
ATOM     16  C   UNL     1      34.298 -21.765 -19.129  0.00  0.00    +0.239 C 
ATOM     17  C   UNL     1      36.195 -21.931 -17.777  0.00  0.00    +0.208 C 
ATOM     18  H   UNL     1      37.465 -18.703 -20.185  0.00  0.00    +0.175 HD
ATOM     19  H   UNL     1      37.752 -22.259 -16.477  0.00  0.00    +0.156 HD
ATOM     20  H   UNL     1      36.423 -23.307 -16.269  0.00  0.00    +0.156 HD
ENDBRANCH   1   8
BRANCH   2  23
ATOM     21  O   UNL     1      34.935 -13.635 -20.127  0.00  0.00    -0.270 OA
ATOM     22  N   UNL     1      32.721 -14.155 -20.583  0.00  0.00    -0.297 N 
ATOM     23  C   UNL     1      34.100 -14.373 -20.681  0.00  0.00    +0.246 C 
ATOM     24  H   UNL     1      32.117 -14.779 -21.046  0.00  0.00    +0.150 HD
BRANCH  22  25
ATOM     25  C   UNL     1      32.136 -13.065 -19.836  0.00  0.00    +0.117 C 
BRANCH  25  28
ATOM     26 CL   UNL     1      31.684  -7.885 -19.853  0.00  0.00    -0.082 Cl
ATOM     27 CL   UNL     1      32.764 -10.616 -24.380  0.00  0.00    -0.082 Cl
ATOM     28  C   UNL     1      32.166 -11.776 -20.607  0.00  0.00    -0.001 C 
ATOM     29  C   UNL     1      32.422 -11.797 -21.973  0.00  0.00    +0.009 C 
ATOM     30  C   UNL     1      31.937 -10.575 -19.946  0.00  0.00    +0.009 C 
ATOM     31  C   UNL     1      31.965  -9.378 -20.661  0.00  0.00    +0.058 C 
ATOM     32  C   UNL     1      32.449 -10.601 -22.688  0.00  0.00    +0.058 C 
ATOM     33  C   UNL     1      32.221  -9.390 -22.033  0.00  0.00    +0.023 C 
ENDBRANCH  25  28
ENDBRANCH  22  25
ENDBRANCH   2  23
TORSDOF 4
ENDMDL
