MODEL 1
REMARK VINA RESULT:     -12.1      0.000      0.000
REMARK  Name = 11974440
REMARK  4 active torsions:
REMARK  status: ('A' for Active; 'I' for Inactive)
REMARK    1  A    between atoms: C_1  and  C_25
REMARK    2  A    between atoms: C_2  and  N_31
REMARK    3  A    between atoms: C_5  and  C_12
REMARK    4  A    between atoms: C_17  and  C_21
REMARK                            x       y       z     vdW  Elec       q    Type
REMARK                         _______ _______ _______ _____ _____    ______ ____
ROOT
ATOM      1  C   UNL     1      35.301 -19.880 -21.016  0.00  0.00    +0.009 C 
ATOM      2  C   UNL     1      34.102 -20.067 -20.051  0.00  0.00    -0.057 C 
ATOM      3  C   UNL     1      34.351 -21.259 -19.104  0.00  0.00    +0.009 C 
ATOM      4  C   UNL     1      36.607 -19.648 -20.220  0.00  0.00    +0.028 C 
ATOM      5  C   UNL     1      35.737 -21.268 -18.535  0.00  0.00    +0.025 C 
ATOM      6  C   UNL     1      36.751 -20.541 -19.022  0.00  0.00    -0.026 C 
ENDROOT
BRANCH   5  12
ATOM      7  O   UNL     1      37.089 -21.975 -16.783  0.00  0.00    -0.270 OA
ATOM      8  N   UNL     1      35.015 -23.009 -16.963  0.00  0.00    -0.267 N 
ATOM      9  N   UNL     1      32.786 -23.565 -15.441  0.00  0.00    -0.292 N 
ATOM     10  N   UNL     1      33.854 -24.449 -13.756  0.00  0.00    -0.132 NA
ATOM     11  N   UNL     1      32.511 -24.357 -13.434  0.00  0.00    -0.125 NA
ATOM     12  C   UNL     1      36.007 -22.116 -17.355  0.00  0.00    +0.245 C 
ATOM     13  C   UNL     1      33.741 -23.259 -17.667  0.00  0.00    +0.119 C 
ATOM     14  C   UNL     1      35.247 -23.859 -15.784  0.00  0.00    +0.160 C 
ATOM     15  C   UNL     1      32.568 -22.959 -16.736  0.00  0.00    +0.130 C 
ATOM     16  C   UNL     1      34.007 -23.965 -14.971  0.00  0.00    +0.164 A 
ATOM     17  C   UNL     1      31.887 -23.822 -14.460  0.00  0.00    +0.238 A 
BRANCH  17  21
ATOM     18  F   UNL     1      30.144 -22.185 -14.530  0.00  0.00    -0.163 F 
ATOM     19  F   UNL     1      29.864 -23.971 -15.727  0.00  0.00    -0.163 F 
ATOM     20  F   UNL     1      29.700 -24.081 -13.562  0.00  0.00    -0.163 F 
ATOM     21  C   UNL     1      30.449 -23.523 -14.568  0.00  0.00    +0.452 C 
ENDBRANCH  17  21
ENDBRANCH   5  12
BRANCH   1  25
ATOM     22  F   UNL     1      34.661 -20.369 -23.737  0.00  0.00    -0.204 F 
ATOM     23  F   UNL     1      35.203 -15.144 -22.215  0.00  0.00    -0.202 F 
ATOM     24  F   UNL     1      34.587 -15.761 -24.806  0.00  0.00    -0.202 F 
ATOM     25  C   UNL     1      35.107 -18.772 -22.040  0.00  0.00    +0.006 C 
ATOM     26  C   UNL     1      34.793 -19.091 -23.357  0.00  0.00    +0.138 C 
ATOM     27  C   UNL     1      35.246 -17.443 -21.649  0.00  0.00    +0.030 C 
ATOM     28  C   UNL     1      35.070 -16.425 -22.585  0.00  0.00    +0.167 C 
ATOM     29  C   UNL     1      34.616 -18.073 -24.293  0.00  0.00    +0.061 C 
ATOM     30  C   UNL     1      34.754 -16.739 -23.907  0.00  0.00    +0.170 C 
ENDBRANCH   1  25
BRANCH   2  31
ATOM     31  N   UNL     1      32.852 -20.285 -20.785  0.00  0.00    +0.382 N 
ATOM     32  H   UNL     1      32.946 -21.109 -21.379  0.00  0.00    -0.089 HD
ATOM     33  H   UNL     1      32.651 -19.470 -21.364  0.00  0.00    -0.089 HD
ATOM     34  H   UNL     1      32.090 -20.429 -20.123  0.00  0.00    -0.089 HD
ENDBRANCH   2  31
TORSDOF 4
ENDMDL
MODEL 2
REMARK VINA RESULT:     -11.9      3.726      4.641
REMARK  Name = 11974440
REMARK  4 active torsions:
REMARK  status: ('A' for Active; 'I' for Inactive)
REMARK    1  A    between atoms: C_1  and  C_25
REMARK    2  A    between atoms: C_2  and  N_31
REMARK    3  A    between atoms: C_5  and  C_12
REMARK    4  A    between atoms: C_17  and  C_21
REMARK                            x       y       z     vdW  Elec       q    Type
REMARK                         _______ _______ _______ _____ _____    ______ ____
ROOT
ATOM      1  C   UNL     1      34.589 -19.908 -20.067  0.00  0.00    +0.009 C 
ATOM      2  C   UNL     1      35.623 -21.057 -19.945  0.00  0.00    -0.057 C 
ATOM      3  C   UNL     1      35.459 -21.791 -18.598  0.00  0.00    +0.009 C 
ATOM      4  C   UNL     1      33.149 -20.460 -19.947  0.00  0.00    +0.028 C 
ATOM      5  C   UNL     1      34.026 -22.077 -18.263  0.00  0.00    +0.025 C 
ATOM      6  C   UNL     1      32.985 -21.493 -18.871  0.00  0.00    -0.026 C 
ENDROOT
BRANCH   5  12
ATOM      7  O   UNL     1      32.741 -23.787 -17.357  0.00  0.00    -0.270 OA
ATOM      8  N   UNL     1      34.612 -23.149 -16.134  0.00  0.00    -0.267 N 
ATOM      9  N   UNL     1      36.855 -24.246 -14.968  0.00  0.00    -0.292 N 
ATOM     10  N   UNL     1      35.816 -25.818 -13.870  0.00  0.00    -0.132 NA
ATOM     11  N   UNL     1      37.181 -25.992 -13.714  0.00  0.00    -0.125 NA
ATOM     12  C   UNL     1      33.736 -23.074 -17.213  0.00  0.00    +0.245 C 
ATOM     13  C   UNL     1      35.768 -22.263 -15.890  0.00  0.00    +0.119 C 
ATOM     14  C   UNL     1      34.357 -24.140 -15.077  0.00  0.00    +0.160 C 
ATOM     15  C   UNL     1      37.049 -23.092 -15.819  0.00  0.00    +0.130 C 
ATOM     16  C   UNL     1      35.633 -24.760 -14.632  0.00  0.00    +0.164 A 
ATOM     17  C   UNL     1      37.786 -25.036 -14.383  0.00  0.00    +0.238 A 
BRANCH  17  21
ATOM     18  F   UNL     1      39.903 -25.841 -15.155  0.00  0.00    -0.163 F 
ATOM     19  F   UNL     1      39.585 -23.697 -15.213  0.00  0.00    -0.163 F 
ATOM     20  F   UNL     1      39.879 -24.697 -13.306  0.00  0.00    -0.163 F 
ATOM     21  C   UNL     1      39.239 -24.826 -14.512  0.00  0.00    +0.452 C 
ENDBRANCH  17  21
ENDBRANCH   5  12
BRANCH   1  25
ATOM     22  F   UNL     1      35.770 -17.329 -20.118  0.00  0.00    -0.204 F 
ATOM     23  F   UNL     1      33.941 -19.315 -24.874  0.00  0.00    -0.202 F 
ATOM     24  F   UNL     1      35.101 -16.842 -24.777  0.00  0.00    -0.202 F 
ATOM     25  C   UNL     1      34.729 -19.080 -21.335  0.00  0.00    +0.006 C 
ATOM     26  C   UNL     1      35.321 -17.823 -21.280  0.00  0.00    +0.138 C 
ATOM     27  C   UNL     1      34.262 -19.589 -22.543  0.00  0.00    +0.030 C 
ATOM     28  C   UNL     1      34.389 -18.832 -23.708  0.00  0.00    +0.167 C 
ATOM     29  C   UNL     1      35.448 -17.065 -22.444  0.00  0.00    +0.061 C 
ATOM     30  C   UNL     1      34.982 -17.570 -23.659  0.00  0.00    +0.170 C 
ENDBRANCH   1  25
BRANCH   2  31
ATOM     31  N   UNL     1      36.996 -20.557 -20.059  0.00  0.00    +0.382 N 
ATOM     32  H   UNL     1      37.026 -19.803 -20.746  0.00  0.00    -0.089 HD
ATOM     33  H   UNL     1      37.609 -21.314 -20.360  0.00  0.00    -0.089 HD
ATOM     34  H   UNL     1      37.307 -20.205 -19.154  0.00  0.00    -0.089 HD
ENDBRANCH   2  31
TORSDOF 4
ENDMDL
MODEL 3
REMARK VINA RESULT:     -11.8      0.909      1.598
REMARK  Name = 11974440
REMARK  4 active torsions:
REMARK  status: ('A' for Active; 'I' for Inactive)
REMARK    1  A    between atoms: C_1  and  C_25
REMARK    2  A    between atoms: C_2  and  N_31
REMARK    3  A    between atoms: C_5  and  C_12
REMARK    4  A    between atoms: C_17  and  C_21
REMARK                            x       y       z     vdW  Elec       q    Type
REMARK                         _______ _______ _______ _____ _____    ______ ____
ROOT
ATOM      1  C   UNL     1      35.128 -20.383 -20.710  0.00  0.00    +0.009 C 
ATOM      2  C   UNL     1      33.961 -20.397 -19.690  0.00  0.00    -0.057 C 
ATOM      3  C   UNL     1      34.159 -21.525 -18.658  0.00  0.00    +0.009 C 
ATOM      4  C   UNL     1      36.481 -20.193 -19.984  0.00  0.00    +0.028 C 
ATOM      5  C   UNL     1      35.564 -21.600 -18.141  0.00  0.00    +0.025 C 
ATOM      6  C   UNL     1      36.608 -20.997 -18.724  0.00  0.00    -0.026 C 
ENDROOT
BRANCH   5  12
ATOM      7  O   UNL     1      36.874 -22.161 -16.307  0.00  0.00    -0.270 OA
ATOM      8  N   UNL     1      34.842 -23.274 -16.497  0.00  0.00    -0.267 N 
ATOM      9  N   UNL     1      32.580 -23.819 -15.021  0.00  0.00    -0.292 N 
ATOM     10  N   UNL     1      33.616 -24.570 -13.254  0.00  0.00    -0.132 NA
ATOM     11  N   UNL     1      32.260 -24.506 -12.983  0.00  0.00    -0.125 NA
ATOM     12  C   UNL     1      35.818 -22.370 -16.906  0.00  0.00    +0.245 C 
ATOM     13  C   UNL     1      33.603 -23.606 -17.228  0.00  0.00    +0.119 C 
ATOM     14  C   UNL     1      35.060 -24.047 -15.264  0.00  0.00    +0.160 C 
ATOM     15  C   UNL     1      32.389 -23.294 -16.355  0.00  0.00    +0.130 C 
ATOM     16  C   UNL     1      33.796 -24.150 -14.488  0.00  0.00    +0.164 A 
ATOM     17  C   UNL     1      31.656 -24.051 -14.058  0.00  0.00    +0.238 A 
BRANCH  17  21
ATOM     18  F   UNL     1      29.849 -22.486 -14.160  0.00  0.00    -0.163 F 
ATOM     19  F   UNL     1      29.709 -24.235 -15.435  0.00  0.00    -0.163 F 
ATOM     20  F   UNL     1      29.439 -24.435 -13.287  0.00  0.00    -0.163 F 
ATOM     21  C   UNL     1      30.213 -23.808 -14.231  0.00  0.00    +0.452 C 
ENDBRANCH  17  21
ENDBRANCH   5  12
BRANCH   1  25
ATOM     22  F   UNL     1      36.055 -17.711 -20.476  0.00  0.00    -0.204 F 
ATOM     23  F   UNL     1      33.609 -19.085 -25.170  0.00  0.00    -0.202 F 
ATOM     24  F   UNL     1      34.551 -16.545 -24.807  0.00  0.00    -0.202 F 
ATOM     25  C   UNL     1      34.975 -19.347 -21.814  0.00  0.00    +0.006 C 
ATOM     26  C   UNL     1      35.457 -18.056 -21.624  0.00  0.00    +0.138 C 
ATOM     27  C   UNL     1      34.351 -19.700 -23.006  0.00  0.00    +0.030 C 
ATOM     28  C   UNL     1      34.209 -18.752 -24.019  0.00  0.00    +0.167 C 
ATOM     29  C   UNL     1      35.314 -17.108 -22.637  0.00  0.00    +0.061 C 
ATOM     30  C   UNL     1      34.690 -17.456 -23.835  0.00  0.00    +0.170 C 
ENDBRANCH   1  25
BRANCH   2  31
ATOM     31  N   UNL     1      32.667 -20.572 -20.357  0.00  0.00    +0.382 N 
ATOM     32  H   UNL     1      32.302 -21.501 -20.149  0.00  0.00    -0.089 HD
ATOM     33  H   UNL     1      32.788 -20.471 -21.364  0.00  0.00    -0.089 HD
ATOM     34  H   UNL     1      32.012 -19.866 -20.019  0.00  0.00    -0.089 HD
ENDBRANCH   2  31
TORSDOF 4
ENDMDL
MODEL 4
REMARK VINA RESULT:     -11.6      4.377      5.294
REMARK  Name = 11974440
REMARK  4 active torsions:
REMARK  status: ('A' for Active; 'I' for Inactive)
REMARK    1  A    between atoms: C_1  and  C_25
REMARK    2  A    between atoms: C_2  and  N_31
REMARK    3  A    between atoms: C_5  and  C_12
REMARK    4  A    between atoms: C_17  and  C_21
REMARK                            x       y       z     vdW  Elec       q    Type
REMARK                         _______ _______ _______ _____ _____    ______ ____
ROOT
ATOM      1  C   UNL     1      35.128 -21.374 -19.446  0.00  0.00    +0.009 C 
ATOM      2  C   UNL     1      33.711 -21.381 -18.817  0.00  0.00    -0.057 C 
ATOM      3  C   UNL     1      33.571 -22.545 -17.815  0.00  0.00    +0.009 C 
ATOM      4  C   UNL     1      36.209 -21.247 -18.347  0.00  0.00    +0.028 C 
ATOM      5  C   UNL     1      34.758 -22.678 -16.909  0.00  0.00    +0.025 C 
ATOM      6  C   UNL     1      35.940 -22.090 -17.135  0.00  0.00    -0.026 C 
ENDROOT
BRANCH   5  12
ATOM      7  O   UNL     1      33.543 -24.058 -15.490  0.00  0.00    -0.270 OA
ATOM      8  N   UNL     1      35.718 -23.569 -14.834  0.00  0.00    -0.267 N 
ATOM      9  N   UNL     1      38.034 -24.845 -14.058  0.00  0.00    -0.292 N 
ATOM     10  N   UNL     1      37.120 -26.105 -12.530  0.00  0.00    -0.132 NA
ATOM     11  N   UNL     1      38.450 -26.462 -12.665  0.00  0.00    -0.125 NA
ATOM     12  C   UNL     1      34.619 -23.490 -15.684  0.00  0.00    +0.245 C 
ATOM     13  C   UNL     1      36.995 -22.843 -14.994  0.00  0.00    +0.119 C 
ATOM     14  C   UNL     1      35.616 -24.380 -13.611  0.00  0.00    +0.160 C 
ATOM     15  C   UNL     1      38.147 -23.841 -15.093  0.00  0.00    +0.130 C 
ATOM     16  C   UNL     1      36.880 -25.128 -13.380  0.00  0.00    +0.164 A 
ATOM     17  C   UNL     1      38.981 -25.693 -13.589  0.00  0.00    +0.238 A 
BRANCH  17  21
ATOM     18  F   UNL     1      41.137 -26.729 -13.548  0.00  0.00    -0.163 F 
ATOM     19  F   UNL     1      40.492 -25.875 -15.434  0.00  0.00    -0.163 F 
ATOM     20  F   UNL     1      41.068 -24.569 -13.794  0.00  0.00    -0.163 F 
ATOM     21  C   UNL     1      40.372 -25.718 -14.075  0.00  0.00    +0.452 C 
ENDBRANCH  17  21
ENDBRANCH   5  12
BRANCH   1  25
ATOM     22  F   UNL     1      37.303 -19.551 -19.422  0.00  0.00    -0.204 F 
ATOM     23  F   UNL     1      33.724 -19.089 -23.531  0.00  0.00    -0.202 F 
ATOM     24  F   UNL     1      35.867 -17.399 -23.383  0.00  0.00    -0.202 F 
ATOM     25  C   UNL     1      35.331 -20.302 -20.507  0.00  0.00    +0.006 C 
ATOM     26  C   UNL     1      36.423 -19.445 -20.427  0.00  0.00    +0.138 C 
ATOM     27  C   UNL     1      34.417 -20.187 -21.551  0.00  0.00    +0.030 C 
ATOM     28  C   UNL     1      34.600 -19.205 -22.524  0.00  0.00    +0.167 C 
ATOM     29  C   UNL     1      36.605 -18.463 -21.400  0.00  0.00    +0.061 C 
ATOM     30  C   UNL     1      35.694 -18.343 -22.449  0.00  0.00    +0.170 C 
ENDBRANCH   1  25
BRANCH   2  31
ATOM     31  N   UNL     1      32.670 -21.497 -19.843  0.00  0.00    +0.382 N 
ATOM     32  H   UNL     1      32.088 -22.311 -19.644  0.00  0.00    -0.089 HD
ATOM     33  H   UNL     1      33.105 -21.605 -20.758  0.00  0.00    -0.089 HD
ATOM     34  H   UNL     1      32.092 -20.657 -19.836  0.00  0.00    -0.089 HD
ENDBRANCH   2  31
TORSDOF 4
ENDMDL
MODEL 5
REMARK VINA RESULT:     -11.3      5.395     10.389
REMARK  Name = 11974440
REMARK  4 active torsions:
REMARK  status: ('A' for Active; 'I' for Inactive)
REMARK    1  A    between atoms: C_1  and  C_25
REMARK    2  A    between atoms: C_2  and  N_31
REMARK    3  A    between atoms: C_5  and  C_12
REMARK    4  A    between atoms: C_17  and  C_21
REMARK                            x       y       z     vdW  Elec       q    Type
REMARK                         _______ _______ _______ _____ _____    ______ ____
ROOT
ATOM      1  C   UNL     1      34.695 -18.361 -21.523  0.00  0.00    +0.009 C 
ATOM      2  C   UNL     1      35.199 -18.466 -22.986  0.00  0.00    -0.057 C 
ATOM      3  C   UNL     1      34.572 -17.357 -23.855  0.00  0.00    +0.009 C 
ATOM      4  C   UNL     1      35.042 -16.975 -20.929  0.00  0.00    +0.028 C 
ATOM      5  C   UNL     1      34.588 -16.015 -23.185  0.00  0.00    +0.025 C 
ATOM      6  C   UNL     1      34.809 -15.835 -21.877  0.00  0.00    -0.026 C 
ENDROOT
BRANCH   5  12
ATOM      7  O   UNL     1      34.271 -14.966 -25.233  0.00  0.00    -0.270 OA
ATOM      8  N   UNL     1      34.263 -13.589 -23.361  0.00  0.00    -0.267 N 
ATOM      9  N   UNL     1      32.706 -11.661 -22.155  0.00  0.00    -0.292 N 
ATOM     10  N   UNL     1      32.440 -10.417 -23.928  0.00  0.00    -0.132 NA
ATOM     11  N   UNL     1      31.665  -9.904 -22.902  0.00  0.00    -0.125 NA
ATOM     12  C   UNL     1      34.364 -14.814 -24.014  0.00  0.00    +0.245 C 
ATOM     13  C   UNL     1      34.446 -13.358 -21.914  0.00  0.00    +0.119 C 
ATOM     14  C   UNL     1      34.028 -12.374 -24.157  0.00  0.00    +0.160 C 
ATOM     15  C   UNL     1      33.176 -12.747 -21.324  0.00  0.00    +0.130 C 
ATOM     16  C   UNL     1      33.063 -11.481 -23.464  0.00  0.00    +0.164 A 
ATOM     17  C   UNL     1      31.839 -10.668 -21.846  0.00  0.00    +0.238 A 
BRANCH  17  21
ATOM     18  F   UNL     1      31.887 -11.122 -19.498  0.00  0.00    -0.163 F 
ATOM     19  F   UNL     1      31.070  -9.209 -20.114  0.00  0.00    -0.163 F 
ATOM     20  F   UNL     1      29.940 -11.034 -20.462  0.00  0.00    -0.163 F 
ATOM     21  C   UNL     1      31.208 -10.512 -20.524  0.00  0.00    +0.452 C 
ENDBRANCH  17  21
ENDBRANCH   5  12
BRANCH   1  25
ATOM     22  F   UNL     1      37.433 -18.682 -20.849  0.00  0.00    -0.204 F 
ATOM     23  F   UNL     1      33.912 -22.277 -18.707  0.00  0.00    -0.202 F 
ATOM     24  F   UNL     1      36.580 -22.467 -18.142  0.00  0.00    -0.202 F 
ATOM     25  C   UNL     1      35.206 -19.466 -20.611  0.00  0.00    +0.006 C 
ATOM     26  C   UNL     1      36.564 -19.558 -20.326  0.00  0.00    +0.138 C 
ATOM     27  C   UNL     1      34.307 -20.379 -20.069  0.00  0.00    +0.030 C 
ATOM     28  C   UNL     1      34.772 -21.394 -19.232  0.00  0.00    +0.167 C 
ATOM     29  C   UNL     1      37.029 -20.572 -19.490  0.00  0.00    +0.061 C 
ATOM     30  C   UNL     1      36.133 -21.490 -18.943  0.00  0.00    +0.170 C 
ENDBRANCH   1  25
BRANCH   2  31
ATOM     31  N   UNL     1      34.885 -19.773 -23.569  0.00  0.00    +0.382 N 
ATOM     32  H   UNL     1      35.146 -20.509 -22.913  0.00  0.00    -0.089 HD
ATOM     33  H   UNL     1      35.405 -19.892 -24.438  0.00  0.00    -0.089 HD
ATOM     34  H   UNL     1      33.884 -19.829 -23.760  0.00  0.00    -0.089 HD
ENDBRANCH   2  31
TORSDOF 4
ENDMDL
MODEL 6
REMARK VINA RESULT:     -11.2      3.713      9.408
REMARK  Name = 11974440
REMARK  4 active torsions:
REMARK  status: ('A' for Active; 'I' for Inactive)
REMARK    1  A    between atoms: C_1  and  C_25
REMARK    2  A    between atoms: C_2  and  N_31
REMARK    3  A    between atoms: C_5  and  C_12
REMARK    4  A    between atoms: C_17  and  C_21
REMARK                            x       y       z     vdW  Elec       q    Type
REMARK                         _______ _______ _______ _____ _____    ______ ____
ROOT
ATOM      1  C   UNL     1      34.917 -21.546 -19.272  0.00  0.00    +0.009 C 
ATOM      2  C   UNL     1      36.178 -20.683 -19.538  0.00  0.00    -0.057 C 
ATOM      3  C   UNL     1      36.196 -20.189 -20.999  0.00  0.00    +0.009 C 
ATOM      4  C   UNL     1      33.633 -20.734 -19.563  0.00  0.00    +0.028 C 
ATOM      5  C   UNL     1      34.864 -19.673 -21.454  0.00  0.00    +0.025 C 
ATOM      6  C   UNL     1      33.712 -19.904 -20.810  0.00  0.00    -0.026 C 
ENDROOT
BRANCH   5  12
ATOM      7  O   UNL     1      34.608 -19.417 -23.749  0.00  0.00    -0.270 OA
ATOM      8  N   UNL     1      34.987 -17.472 -22.534  0.00  0.00    -0.267 N 
ATOM      9  N   UNL     1      33.903 -14.967 -22.154  0.00  0.00    -0.292 N 
ATOM     10  N   UNL     1      33.752 -14.442 -24.266  0.00  0.00    -0.132 NA
ATOM     11  N   UNL     1      33.159 -13.443 -23.515  0.00  0.00    -0.125 NA
ATOM     12  C   UNL     1      34.812 -18.845 -22.677  0.00  0.00    +0.245 C 
ATOM     13  C   UNL     1      35.308 -16.762 -21.279  0.00  0.00    +0.119 C 
ATOM     14  C   UNL     1      34.928 -16.618 -23.731  0.00  0.00    +0.160 C 
ATOM     15  C   UNL     1      34.218 -15.737 -20.971  0.00  0.00    +0.130 C 
ATOM     16  C   UNL     1      34.196 -15.359 -23.432  0.00  0.00    +0.164 A 
ATOM     17  C   UNL     1      33.260 -13.778 -22.248  0.00  0.00    +0.238 A 
BRANCH  17  21
ATOM     18  F   UNL     1      31.619 -13.536 -20.524  0.00  0.00    -0.163 F 
ATOM     19  F   UNL     1      33.648 -12.943 -20.041  0.00  0.00    -0.163 F 
ATOM     20  F   UNL     1      32.449 -11.718 -21.379  0.00  0.00    -0.163 F 
ATOM     21  C   UNL     1      32.761 -13.022 -21.086  0.00  0.00    +0.452 C 
ENDBRANCH  17  21
ENDBRANCH   5  12
BRANCH   1  25
ATOM     22  F   UNL     1      32.613 -22.831 -18.226  0.00  0.00    -0.204 F 
ATOM     23  F   UNL     1      36.987 -22.533 -14.957  0.00  0.00    -0.202 F 
ATOM     24  F   UNL     1      34.700 -23.744 -14.079  0.00  0.00    -0.202 F 
ATOM     25  C   UNL     1      34.856 -22.141 -17.873  0.00  0.00    +0.006 C 
ATOM     26  C   UNL     1      33.689 -22.756 -17.432  0.00  0.00    +0.138 C 
ATOM     27  C   UNL     1      35.971 -22.062 -17.044  0.00  0.00    +0.030 C 
ATOM     28  C   UNL     1      35.918 -22.605 -15.761  0.00  0.00    +0.167 C 
ATOM     29  C   UNL     1      33.637 -23.299 -16.148  0.00  0.00    +0.061 C 
ATOM     30  C   UNL     1      34.751 -23.224 -15.313  0.00  0.00    +0.170 C 
ENDBRANCH   1  25
BRANCH   2  31
ATOM     31  N   UNL     1      37.408 -21.432 -19.265  0.00  0.00    +0.382 N 
ATOM     32  H   UNL     1      37.180 -22.415 -19.113  0.00  0.00    -0.089 HD
ATOM     33  H   UNL     1      37.857 -21.055 -18.432  0.00  0.00    -0.089 HD
ATOM     34  H   UNL     1      38.040 -21.350 -20.061  0.00  0.00    -0.089 HD
ENDBRANCH   2  31
TORSDOF 4
ENDMDL
MODEL 7
REMARK VINA RESULT:     -11.2      3.544      9.449
REMARK  Name = 11974440
REMARK  4 active torsions:
REMARK  status: ('A' for Active; 'I' for Inactive)
REMARK    1  A    between atoms: C_1  and  C_25
REMARK    2  A    between atoms: C_2  and  N_31
REMARK    3  A    between atoms: C_5  and  C_12
REMARK    4  A    between atoms: C_17  and  C_21
REMARK                            x       y       z     vdW  Elec       q    Type
REMARK                         _______ _______ _______ _____ _____    ______ ____
ROOT
ATOM      1  C   UNL     1      35.123 -20.947 -18.596  0.00  0.00    +0.009 C 
ATOM      2  C   UNL     1      33.907 -21.270 -19.503  0.00  0.00    -0.057 C 
ATOM      3  C   UNL     1      33.748 -20.195 -20.597  0.00  0.00    +0.009 C 
ATOM      4  C   UNL     1      36.419 -20.864 -19.436  0.00  0.00    +0.028 C 
ATOM      5  C   UNL     1      35.049 -19.829 -21.245  0.00  0.00    +0.025 C 
ATOM      6  C   UNL     1      36.250 -20.135 -20.737  0.00  0.00    -0.026 C 
ENDROOT
BRANCH   5  12
ATOM      7  O   UNL     1      34.833 -19.759 -23.557  0.00  0.00    -0.270 OA
ATOM      8  N   UNL     1      35.178 -17.720 -22.495  0.00  0.00    -0.267 N 
ATOM      9  N   UNL     1      34.071 -15.201 -22.336  0.00  0.00    -0.292 N 
ATOM     10  N   UNL     1      33.956 -14.848 -24.486  0.00  0.00    -0.132 NA
ATOM     11  N   UNL     1      33.342 -13.797 -23.828  0.00  0.00    -0.125 NA
ATOM     12  C   UNL     1      35.014 -19.102 -22.531  0.00  0.00    +0.245 C 
ATOM     13  C   UNL     1      35.471 -16.910 -21.296  0.00  0.00    +0.119 C 
ATOM     14  C   UNL     1      35.135 -16.965 -23.757  0.00  0.00    +0.160 C 
ATOM     15  C   UNL     1      34.370 -15.872 -21.090  0.00  0.00    +0.130 C 
ATOM     16  C   UNL     1      34.391 -15.692 -23.573  0.00  0.00    +0.164 A 
ATOM     17  C   UNL     1      33.423 -14.029 -22.536  0.00  0.00    +0.238 A 
BRANCH  17  21
ATOM     18  F   UNL     1      31.702 -13.615 -20.926  0.00  0.00    -0.163 F 
ATOM     19  F   UNL     1      33.728 -13.090 -20.358  0.00  0.00    -0.163 F 
ATOM     20  F   UNL     1      32.668 -11.888 -21.827  0.00  0.00    -0.163 F 
ATOM     21  C   UNL     1      32.898 -13.186 -21.448  0.00  0.00    +0.452 C 
ENDBRANCH  17  21
ENDBRANCH   5  12
BRANCH   1  25
ATOM     22  F   UNL     1      37.466 -21.032 -16.998  0.00  0.00    -0.204 F 
ATOM     23  F   UNL     1      33.492 -24.583 -15.768  0.00  0.00    -0.202 F 
ATOM     24  F   UNL     1      35.804 -24.554 -14.310  0.00  0.00    -0.202 F 
ATOM     25  C   UNL     1      35.308 -21.917 -17.440  0.00  0.00    +0.006 C 
ATOM     26  C   UNL     1      36.487 -21.898 -16.701  0.00  0.00    +0.138 C 
ATOM     27  C   UNL     1      34.295 -22.820 -17.130  0.00  0.00    +0.030 C 
ATOM     28  C   UNL     1      34.463 -23.711 -16.071  0.00  0.00    +0.167 C 
ATOM     29  C   UNL     1      36.655 -22.790 -15.642  0.00  0.00    +0.061 C 
ATOM     30  C   UNL     1      35.642 -23.696 -15.326  0.00  0.00    +0.170 C 
ENDBRANCH   1  25
BRANCH   2  31
ATOM     31  N   UNL     1      32.667 -21.357 -18.727  0.00  0.00    +0.382 N 
ATOM     32  H   UNL     1      31.902 -21.641 -19.339  0.00  0.00    -0.089 HD
ATOM     33  H   UNL     1      32.456 -20.447 -18.319  0.00  0.00    -0.089 HD
ATOM     34  H   UNL     1      32.779 -22.046 -17.983  0.00  0.00    -0.089 HD
ENDBRANCH   2  31
TORSDOF 4
ENDMDL
MODEL 8
REMARK VINA RESULT:     -11.1      9.612     15.145
REMARK  Name = 11974440
REMARK  4 active torsions:
REMARK  status: ('A' for Active; 'I' for Inactive)
REMARK    1  A    between atoms: C_1  and  C_25
REMARK    2  A    between atoms: C_2  and  N_31
REMARK    3  A    between atoms: C_5  and  C_12
REMARK    4  A    between atoms: C_17  and  C_21
REMARK                            x       y       z     vdW  Elec       q    Type
REMARK                         _______ _______ _______ _____ _____    ______ ____
ROOT
ATOM      1  C   UNL     1      32.912 -12.323 -23.306  0.00  0.00    +0.009 C 
ATOM      2  C   UNL     1      33.974 -11.204 -23.150  0.00  0.00    -0.057 C 
ATOM      3  C   UNL     1      33.294  -9.824 -23.045  0.00  0.00    +0.009 C 
ATOM      4  C   UNL     1      31.935 -12.314 -22.108  0.00  0.00    +0.028 C 
ATOM      5  C   UNL     1      32.113  -9.827 -22.121  0.00  0.00    +0.025 C 
ATOM      6  C   UNL     1      31.505 -10.939 -21.687  0.00  0.00    -0.026 C 
ENDROOT
BRANCH   5  12
ATOM      7  O   UNL     1      31.526  -8.354 -20.424  0.00  0.00    -0.270 OA
ATOM      8  N   UNL     1      31.223  -7.590 -22.599  0.00  0.00    -0.267 N 
ATOM      9  N   UNL     1      31.882  -5.447 -24.202  0.00  0.00    -0.292 N 
ATOM     10  N   UNL     1      31.208  -3.895 -22.826  0.00  0.00    -0.132 NA
ATOM     11  N   UNL     1      31.822  -3.294 -23.910  0.00  0.00    -0.125 NA
ATOM     12  C   UNL     1      31.593  -8.530 -21.642  0.00  0.00    +0.245 C 
ATOM     13  C   UNL     1      31.218  -7.794 -24.061  0.00  0.00    +0.119 C 
ATOM     14  C   UNL     1      30.713  -6.284 -22.153  0.00  0.00    +0.160 C 
ATOM     15  C   UNL     1      32.135  -6.771 -24.729  0.00  0.00    +0.130 C 
ATOM     16  C   UNL     1      31.252  -5.198 -23.013  0.00  0.00    +0.164 A 
ATOM     17  C   UNL     1      32.221  -4.245 -24.725  0.00  0.00    +0.238 A 
BRANCH  17  21
ATOM     18  F   UNL     1      34.160  -4.691 -26.053  0.00  0.00    -0.163 F 
ATOM     19  F   UNL     1      32.260  -4.579 -27.093  0.00  0.00    -0.163 F 
ATOM     20  F   UNL     1      33.182  -2.767 -26.321  0.00  0.00    -0.163 F 
ATOM     21  C   UNL     1      32.932  -4.079 -26.005  0.00  0.00    +0.452 C 
ENDBRANCH  17  21
ENDBRANCH   5  12
BRANCH   1  25
ATOM     22  F   UNL     1      32.589 -13.841 -25.682  0.00  0.00    -0.204 F 
ATOM     23  F   UNL     1      35.482 -16.133 -21.647  0.00  0.00    -0.202 F 
ATOM     24  F   UNL     1      35.092 -17.483 -23.991  0.00  0.00    -0.202 F 
ATOM     25  C   UNL     1      33.500 -13.714 -23.494  0.00  0.00    +0.006 C 
ATOM     26  C   UNL     1      33.299 -14.396 -24.689  0.00  0.00    +0.138 C 
ATOM     27  C   UNL     1      34.235 -14.294 -22.465  0.00  0.00    +0.030 C 
ATOM     28  C   UNL     1      34.774 -15.569 -22.634  0.00  0.00    +0.167 C 
ATOM     29  C   UNL     1      33.838 -15.671 -24.858  0.00  0.00    +0.061 C 
ATOM     30  C   UNL     1      34.576 -16.257 -23.830  0.00  0.00    +0.170 C 
ENDBRANCH   1  25
BRANCH   2  31
ATOM     31  N   UNL     1      34.915 -11.196 -24.274  0.00  0.00    +0.382 N 
ATOM     32  H   UNL     1      34.518 -11.723 -25.052  0.00  0.00    -0.089 HD
ATOM     33  H   UNL     1      35.793 -11.626 -23.986  0.00  0.00    -0.089 HD
ATOM     34  H   UNL     1      35.086 -10.234 -24.567  0.00  0.00    -0.089 HD
ENDBRANCH   2  31
TORSDOF 4
ENDMDL
MODEL 9
REMARK VINA RESULT:     -11.1      9.611     15.225
REMARK  Name = 11974440
REMARK  4 active torsions:
REMARK  status: ('A' for Active; 'I' for Inactive)
REMARK    1  A    between atoms: C_1  and  C_25
REMARK    2  A    between atoms: C_2  and  N_31
REMARK    3  A    between atoms: C_5  and  C_12
REMARK    4  A    between atoms: C_17  and  C_21
REMARK                            x       y       z     vdW  Elec       q    Type
REMARK                         _______ _______ _______ _____ _____    ______ ____
ROOT
ATOM      1  C   UNL     1      33.332 -12.138 -22.364  0.00  0.00    +0.009 C 
ATOM      2  C   UNL     1      31.871 -12.062 -21.849  0.00  0.00    -0.057 C 
ATOM      3  C   UNL     1      31.618 -10.717 -21.139  0.00  0.00    +0.009 C 
ATOM      4  C   UNL     1      33.625 -10.972 -23.338  0.00  0.00    +0.028 C 
ATOM      5  C   UNL     1      32.174  -9.547 -21.894  0.00  0.00    +0.025 C 
ATOM      6  C   UNL     1      33.065  -9.654 -22.888  0.00  0.00    -0.026 C 
ENDROOT
BRANCH   5  12
ATOM      7  O   UNL     1      31.658  -7.897 -20.343  0.00  0.00    -0.270 OA
ATOM      8  N   UNL     1      31.351  -7.338 -22.578  0.00  0.00    -0.267 N 
ATOM      9  N   UNL     1      32.058  -5.386 -24.390  0.00  0.00    -0.292 N 
ATOM     10  N   UNL     1      31.455  -3.685 -23.165  0.00  0.00    -0.132 NA
ATOM     11  N   UNL     1      32.074  -3.213 -24.309  0.00  0.00    -0.125 NA
ATOM     12  C   UNL     1      31.703  -8.193 -21.538  0.00  0.00    +0.245 C 
ATOM     13  C   UNL     1      31.320  -7.683 -24.014  0.00  0.00    +0.119 C 
ATOM     14  C   UNL     1      30.890  -5.978 -22.257  0.00  0.00    +0.160 C 
ATOM     15  C   UNL     1      32.261  -6.762 -24.788  0.00  0.00    +0.130 C 
ATOM     16  C   UNL     1      31.454  -5.000 -23.225  0.00  0.00    +0.164 A 
ATOM     17  C   UNL     1      32.429  -4.252 -25.032  0.00  0.00    +0.238 A 
BRANCH  17  21
ATOM     18  F   UNL     1      34.309  -4.936 -26.345  0.00  0.00    -0.163 F 
ATOM     19  F   UNL     1      32.404  -4.767 -27.367  0.00  0.00    -0.163 F 
ATOM     20  F   UNL     1      33.465  -2.974 -26.749  0.00  0.00    -0.163 F 
ATOM     21  C   UNL     1      33.128  -4.236 -26.329  0.00  0.00    +0.452 C 
ENDBRANCH  17  21
ENDBRANCH   5  12
BRANCH   1  25
ATOM     22  F   UNL     1      34.944 -14.101 -21.099  0.00  0.00    -0.204 F 
ATOM     23  F   UNL     1      33.105 -15.259 -26.117  0.00  0.00    -0.202 F 
ATOM     24  F   UNL     1      34.668 -17.060 -24.780  0.00  0.00    -0.202 F 
ATOM     25  C   UNL     1      33.693 -13.466 -23.013  0.00  0.00    +0.006 C 
ATOM     26  C   UNL     1      34.488 -14.379 -22.328  0.00  0.00    +0.138 C 
ATOM     27  C   UNL     1      33.224 -13.757 -24.290  0.00  0.00    +0.030 C 
ATOM     28  C   UNL     1      33.553 -14.973 -24.888  0.00  0.00    +0.167 C 
ATOM     29  C   UNL     1      34.817 -15.595 -22.925  0.00  0.00    +0.061 C 
ATOM     30  C   UNL     1      34.349 -15.892 -24.205  0.00  0.00    +0.170 C 
ENDBRANCH   1  25
BRANCH   2  31
ATOM     31  N   UNL     1      31.570 -13.161 -20.927  0.00  0.00    +0.382 N 
ATOM     32  H   UNL     1      31.862 -14.045 -21.345  0.00  0.00    -0.089 HD
ATOM     33  H   UNL     1      30.568 -13.186 -20.745  0.00  0.00    -0.089 HD
ATOM     34  H   UNL     1      32.073 -13.017 -20.051  0.00  0.00    -0.089 HD
ENDBRANCH   2  31
TORSDOF 4
ENDMDL
