MODEL 1
REMARK VINA RESULT:     -12.2      0.000      0.000
REMARK  Name = 24978486
REMARK  5 active torsions:
REMARK  status: ('A' for Active; 'I' for Inactive)
REMARK    1  A    between atoms: O_1  and  C_6
REMARK    2  A    between atoms: O_1  and  C_18
REMARK    3  A    between atoms: C_18  and  C_20
REMARK    4  A    between atoms: N_19  and  C_26
REMARK    5  A    between atoms: C_26  and  C_29
REMARK                            x       y       z     vdW  Elec       q    Type
REMARK                         _______ _______ _______ _____ _____    ______ ____
ROOT
ATOM      1  O   UNL     1      35.044 -22.462 -17.542  0.00  0.00    -0.479 OA
ENDROOT
BRANCH   1   6
ATOM      2  N   UNL     1      35.673 -23.767 -12.918  0.00  0.00    -0.332 NA
ATOM      3  N   UNL     1      37.603 -23.075 -14.184  0.00  0.00    -0.317 NA
ATOM      4  N   UNL     1      37.423 -22.424 -16.415  0.00  0.00    -0.335 N 
ATOM      5  N   UNL     1      37.805 -23.724 -11.941  0.00  0.00    -0.283 N 
ATOM      6  C   UNL     1      34.585 -22.903 -16.326  0.00  0.00    +0.130 C 
ATOM      7  C   UNL     1      35.415 -23.111 -15.210  0.00  0.00    +0.177 C 
ATOM      8  C   UNL     1      33.219 -23.149 -16.231  0.00  0.00    +0.033 C 
ATOM      9  C   UNL     1      34.887 -23.566 -13.991  0.00  0.00    +0.137 C 
ATOM     10  C   UNL     1      36.788 -22.883 -15.238  0.00  0.00    +0.181 C 
ATOM     11  C   UNL     1      32.685 -23.601 -15.030  0.00  0.00    +0.005 C 
ATOM     12  C   UNL     1      33.517 -23.804 -13.924  0.00  0.00    +0.030 C 
ATOM     13  C   UNL     1      36.987 -23.511 -13.072  0.00  0.00    +0.197 C 
ATOM     14  H   UNL     1      38.395 -22.267 -16.422  0.00  0.00    +0.144 HD
ATOM     15  H   UNL     1      36.892 -22.261 -17.228  0.00  0.00    +0.144 HD
ATOM     16  H   UNL     1      37.407 -24.043 -11.100  0.00  0.00    +0.156 HD
ATOM     17  H   UNL     1      38.774 -23.552 -11.994  0.00  0.00    +0.156 HD
ENDBRANCH   1   6
BRANCH   1  18
ATOM     18  C   UNL     1      34.108 -22.413 -18.603  0.00  0.00    +0.205 C 
BRANCH  18  20
ATOM     19  N   UNL     1      35.412 -18.884 -20.724  0.00  0.00    +0.390 N 
ATOM     20  C   UNL     1      34.679 -21.536 -19.714  0.00  0.00    +0.040 C 
ATOM     21  C   UNL     1      35.934 -20.796 -19.242  0.00  0.00    -0.019 C 
ATOM     22  C   UNL     1      33.637 -20.527 -20.209  0.00  0.00    -0.019 C 
ATOM     23  C   UNL     1      36.452 -19.838 -20.318  0.00  0.00    -0.077 C 
ATOM     24  C   UNL     1      34.232 -19.580 -21.252  0.00  0.00    -0.077 C 
ATOM     25  H   UNL     1      35.126 -18.360 -19.897  0.00  0.00    -0.079 HD
BRANCH  19  26
ATOM     26  C   UNL     1      35.939 -17.944 -21.714  0.00  0.00    -0.049 C 
BRANCH  26  29
ATOM     27 CL   UNL     1      34.967 -16.805 -24.367  0.00  0.00    -0.082 Cl
ATOM     28 CL   UNL     1      33.428 -13.992 -24.154  0.00  0.00    -0.081 Cl
ATOM     29  C   UNL     1      35.210 -16.627 -21.680  0.00  0.00    -0.032 C 
ATOM     30  C   UNL     1      34.725 -16.021 -22.839  0.00  0.00    +0.062 C 
ATOM     31  C   UNL     1      35.026 -16.012 -20.442  0.00  0.00    -0.005 C 
ATOM     32  C   UNL     1      34.056 -14.799 -22.759  0.00  0.00    +0.068 C 
ATOM     33  C   UNL     1      34.356 -14.791 -20.362  0.00  0.00    +0.001 C 
ATOM     34  C   UNL     1      33.871 -14.185 -21.521  0.00  0.00    +0.012 C 
ENDBRANCH  26  29
ENDBRANCH  19  26
ENDBRANCH  18  20
ENDBRANCH   1  18
TORSDOF 5
ENDMDL
MODEL 2
REMARK VINA RESULT:     -12.1      2.002      2.902
REMARK  Name = 24978486
REMARK  5 active torsions:
REMARK  status: ('A' for Active; 'I' for Inactive)
REMARK    1  A    between atoms: O_1  and  C_6
REMARK    2  A    between atoms: O_1  and  C_18
REMARK    3  A    between atoms: C_18  and  C_20
REMARK    4  A    between atoms: N_19  and  C_26
REMARK    5  A    between atoms: C_26  and  C_29
REMARK                            x       y       z     vdW  Elec       q    Type
REMARK                         _______ _______ _______ _____ _____    ______ ____
ROOT
ATOM      1  O   UNL     1      35.246 -22.348 -17.822  0.00  0.00    -0.479 OA
ENDROOT
BRANCH   1   6
ATOM      2  N   UNL     1      32.512 -23.777 -14.085  0.00  0.00    -0.332 NA
ATOM      3  N   UNL     1      31.415 -23.207 -16.154  0.00  0.00    -0.317 NA
ATOM      4  N   UNL     1      32.625 -22.507 -18.019  0.00  0.00    -0.335 N 
ATOM      5  N   UNL     1      30.179 -23.908 -14.291  0.00  0.00    -0.283 N 
ATOM      6  C   UNL     1      35.075 -22.778 -16.530  0.00  0.00    +0.130 C 
ATOM      7  C   UNL     1      33.820 -23.064 -15.965  0.00  0.00    +0.177 C 
ATOM      8  C   UNL     1      36.230 -22.925 -15.768  0.00  0.00    +0.033 C 
ATOM      9  C   UNL     1      33.708 -23.500 -14.635  0.00  0.00    +0.137 C 
ATOM     10  C   UNL     1      32.627 -22.939 -16.673  0.00  0.00    +0.181 C 
ATOM     11  C   UNL     1      36.132 -23.355 -14.450  0.00  0.00    +0.005 C 
ATOM     12  C   UNL     1      34.879 -23.638 -13.896  0.00  0.00    +0.030 C 
ATOM     13  C   UNL     1      31.431 -23.615 -14.874  0.00  0.00    +0.197 C 
ATOM     14  H   UNL     1      31.776 -22.422 -18.508  0.00  0.00    +0.144 HD
ATOM     15  H   UNL     1      33.475 -22.292 -18.468  0.00  0.00    +0.144 HD
ATOM     16  H   UNL     1      30.131 -24.212 -13.356  0.00  0.00    +0.156 HD
ATOM     17  H   UNL     1      29.353 -23.810 -14.819  0.00  0.00    +0.156 HD
ENDBRANCH   1   6
BRANCH   1  18
ATOM     18  C   UNL     1      36.456 -21.677 -18.122  0.00  0.00    +0.205 C 
BRANCH  18  20
ATOM     19  N   UNL     1      35.611 -18.611 -21.044  0.00  0.00    +0.390 N 
ATOM     20  C   UNL     1      36.307 -20.987 -19.476  0.00  0.00    +0.040 C 
ATOM     21  C   UNL     1      37.232 -19.771 -19.579  0.00  0.00    -0.019 C 
ATOM     22  C   UNL     1      34.857 -20.557 -19.717  0.00  0.00    -0.019 C 
ATOM     23  C   UNL     1      37.015 -19.016 -20.892  0.00  0.00    -0.077 C 
ATOM     24  C   UNL     1      34.718 -19.777 -21.026  0.00  0.00    -0.077 C 
ATOM     25  H   UNL     1      35.368 -18.015 -20.253  0.00  0.00    -0.079 HD
BRANCH  19  26
ATOM     26  C   UNL     1      35.431 -17.847 -22.279  0.00  0.00    -0.049 C 
BRANCH  26  29
ATOM     27 CL   UNL     1      34.743 -16.097 -24.676  0.00  0.00    -0.082 Cl
ATOM     28 CL   UNL     1      33.820 -13.106 -23.953  0.00  0.00    -0.081 Cl
ATOM     29  C   UNL     1      34.991 -16.433 -22.005  0.00  0.00    -0.032 C 
ATOM     30  C   UNL     1      34.654 -15.552 -23.032  0.00  0.00    +0.062 C 
ATOM     31  C   UNL     1      34.926 -16.013 -20.676  0.00  0.00    -0.005 C 
ATOM     32  C   UNL     1      34.252 -14.250 -22.730  0.00  0.00    +0.068 C 
ATOM     33  C   UNL     1      34.524 -14.713 -20.374  0.00  0.00    +0.001 C 
ATOM     34  C   UNL     1      34.187 -13.831 -21.402  0.00  0.00    +0.012 C 
ENDBRANCH  26  29
ENDBRANCH  19  26
ENDBRANCH  18  20
ENDBRANCH   1  18
TORSDOF 5
ENDMDL
MODEL 3
REMARK VINA RESULT:     -11.4      3.164      5.167
REMARK  Name = 24978486
REMARK  5 active torsions:
REMARK  status: ('A' for Active; 'I' for Inactive)
REMARK    1  A    between atoms: O_1  and  C_6
REMARK    2  A    between atoms: O_1  and  C_18
REMARK    3  A    between atoms: C_18  and  C_20
REMARK    4  A    between atoms: N_19  and  C_26
REMARK    5  A    between atoms: C_26  and  C_29
REMARK                            x       y       z     vdW  Elec       q    Type
REMARK                         _______ _______ _______ _____ _____    ______ ____
ROOT
ATOM      1  O   UNL     1      34.561 -19.548 -21.280  0.00  0.00    -0.479 OA
ENDROOT
BRANCH   1   6
ATOM      2  N   UNL     1      34.731 -22.586 -17.509  0.00  0.00    -0.332 NA
ATOM      3  N   UNL     1      32.585 -22.100 -18.490  0.00  0.00    -0.317 NA
ATOM      4  N   UNL     1      32.379 -20.654 -20.308  0.00  0.00    -0.335 N 
ATOM      5  N   UNL     1      32.770 -23.556 -16.664  0.00  0.00    -0.283 N 
ATOM      6  C   UNL     1      35.229 -20.245 -20.304  0.00  0.00    +0.130 C 
ATOM      7  C   UNL     1      34.593 -21.088 -19.377  0.00  0.00    +0.177 C 
ATOM      8  C   UNL     1      36.610 -20.081 -20.261  0.00  0.00    +0.033 C 
ATOM      9  C   UNL     1      35.330 -21.775 -18.400  0.00  0.00    +0.137 C 
ATOM     10  C   UNL     1      33.216 -21.297 -19.367  0.00  0.00    +0.181 C 
ATOM     11  C   UNL     1      37.351 -20.755 -19.297  0.00  0.00    +0.005 C 
ATOM     12  C   UNL     1      36.710 -21.593 -18.379  0.00  0.00    +0.030 C 
ATOM     13  C   UNL     1      33.391 -22.703 -17.602  0.00  0.00    +0.197 C 
ATOM     14  H   UNL     1      31.407 -20.810 -20.290  0.00  0.00    +0.144 HD
ATOM     15  H   UNL     1      32.769 -20.051 -20.982  0.00  0.00    +0.144 HD
ATOM     16  H   UNL     1      33.313 -24.025 -15.990  0.00  0.00    +0.156 HD
ATOM     17  H   UNL     1      31.793 -23.683 -16.684  0.00  0.00    +0.156 HD
ENDBRANCH   1   6
BRANCH   1  18
ATOM     18  C   UNL     1      35.210 -19.409 -22.530  0.00  0.00    +0.205 C 
BRANCH  18  20
ATOM     19  N   UNL     1      34.118 -15.266 -23.077  0.00  0.00    +0.390 N 
ATOM     20  C   UNL     1      35.338 -17.922 -22.850  0.00  0.00    +0.040 C 
ATOM     21  C   UNL     1      35.002 -17.065 -21.625  0.00  0.00    -0.019 C 
ATOM     22  C   UNL     1      34.430 -17.531 -24.021  0.00  0.00    -0.019 C 
ATOM     23  C   UNL     1      35.030 -15.573 -21.967  0.00  0.00    -0.077 C 
ATOM     24  C   UNL     1      34.478 -16.024 -24.282  0.00  0.00    -0.077 C 
ATOM     25  H   UNL     1      33.177 -15.544 -22.798  0.00  0.00    -0.079 HD
BRANCH  19  26
ATOM     26  C   UNL     1      34.118 -13.830 -23.356  0.00  0.00    -0.049 C 
BRANCH  26  29
ATOM     27 CL   UNL     1      33.410 -10.959 -24.089  0.00  0.00    -0.082 Cl
ATOM     28 CL   UNL     1      31.470  -9.466 -22.008  0.00  0.00    -0.081 Cl
ATOM     29  C   UNL     1      33.212 -13.076 -22.419  0.00  0.00    -0.032 C 
ATOM     30  C   UNL     1      32.828 -11.758 -22.663  0.00  0.00    +0.062 C 
ATOM     31  C   UNL     1      32.755 -13.736 -21.278  0.00  0.00    -0.005 C 
ATOM     32  C   UNL     1      31.986 -11.099 -21.767  0.00  0.00    +0.068 C 
ATOM     33  C   UNL     1      31.913 -13.078 -20.382  0.00  0.00    +0.001 C 
ATOM     34  C   UNL     1      31.529 -11.759 -20.626  0.00  0.00    +0.012 C 
ENDBRANCH  26  29
ENDBRANCH  19  26
ENDBRANCH  18  20
ENDBRANCH   1  18
TORSDOF 5
ENDMDL
MODEL 4
REMARK VINA RESULT:     -11.2      1.629      2.439
REMARK  Name = 24978486
REMARK  5 active torsions:
REMARK  status: ('A' for Active; 'I' for Inactive)
REMARK    1  A    between atoms: O_1  and  C_6
REMARK    2  A    between atoms: O_1  and  C_18
REMARK    3  A    between atoms: C_18  and  C_20
REMARK    4  A    between atoms: N_19  and  C_26
REMARK    5  A    between atoms: C_26  and  C_29
REMARK                            x       y       z     vdW  Elec       q    Type
REMARK                         _______ _______ _______ _____ _____    ______ ____
ROOT
ATOM      1  O   UNL     1      34.487 -23.429 -16.914  0.00  0.00    -0.479 OA
ENDROOT
BRANCH   1   6
ATOM      2  N   UNL     1      33.912 -24.172 -12.160  0.00  0.00    -0.332 NA
ATOM      3  N   UNL     1      36.140 -24.277 -13.074  0.00  0.00    -0.317 NA
ATOM      4  N   UNL     1      36.539 -23.936 -15.345  0.00  0.00    -0.335 N 
ATOM      5  N   UNL     1      35.761 -24.622 -10.787  0.00  0.00    -0.283 N 
ATOM      6  C   UNL     1      33.722 -23.531 -15.779  0.00  0.00    +0.130 C 
ATOM      7  C   UNL     1      34.251 -23.811 -14.507  0.00  0.00    +0.177 C 
ATOM      8  C   UNL     1      32.352 -23.344 -15.936  0.00  0.00    +0.033 C 
ATOM      9  C   UNL     1      33.416 -23.905 -13.382  0.00  0.00    +0.137 C 
ATOM     10  C   UNL     1      35.610 -24.008 -14.282  0.00  0.00    +0.181 C 
ATOM     11  C   UNL     1      31.515 -23.435 -14.830  0.00  0.00    +0.005 C 
ATOM     12  C   UNL     1      32.050 -23.713 -13.568  0.00  0.00    +0.030 C 
ATOM     13  C   UNL     1      35.247 -24.343 -12.073  0.00  0.00    +0.197 C 
ATOM     14  H   UNL     1      37.498 -24.077 -15.173  0.00  0.00    +0.144 HD
ATOM     15  H   UNL     1      36.226 -23.743 -16.259  0.00  0.00    +0.144 HD
ATOM     16  H   UNL     1      35.151 -24.682 -10.017  0.00  0.00    +0.156 HD
ATOM     17  H   UNL     1      36.728 -24.755 -10.661  0.00  0.00    +0.156 HD
ENDBRANCH   1   6
BRANCH   1  18
ATOM     18  C   UNL     1      33.818 -23.076 -18.111  0.00  0.00    +0.205 C 
BRANCH  18  20
ATOM     19  N   UNL     1      35.411 -19.999 -20.689  0.00  0.00    +0.390 N 
ATOM     20  C   UNL     1      34.333 -21.715 -18.572  0.00  0.00    +0.040 C 
ATOM     21  C   UNL     1      33.458 -21.146 -19.694  0.00  0.00    -0.019 C 
ATOM     22  C   UNL     1      35.787 -21.808 -19.045  0.00  0.00    -0.019 C 
ATOM     23  C   UNL     1      34.027 -19.830 -20.229  0.00  0.00    -0.077 C 
ATOM     24  C   UNL     1      36.278 -20.470 -19.601  0.00  0.00    -0.077 C 
ATOM     25  H   UNL     1      35.415 -20.707 -21.424  0.00  0.00    -0.079 HD
BRANCH  19  26
ATOM     26  C   UNL     1      35.922 -18.746 -21.244  0.00  0.00    -0.049 C 
BRANCH  26  29
ATOM     27 CL   UNL     1      35.384 -15.785 -21.724  0.00  0.00    -0.082 Cl
ATOM     28 CL   UNL     1      33.865 -15.109 -24.473  0.00  0.00    -0.081 Cl
ATOM     29  C   UNL     1      35.212 -18.365 -22.516  0.00  0.00    -0.032 C 
ATOM     30  C   UNL     1      34.918 -17.037 -22.830  0.00  0.00    +0.062 C 
ATOM     31  C   UNL     1      34.846 -19.385 -23.393  0.00  0.00    -0.005 C 
ATOM     32  C   UNL     1      34.259 -16.732 -24.021  0.00  0.00    +0.068 C 
ATOM     33  C   UNL     1      34.187 -19.080 -24.584  0.00  0.00    +0.001 C 
ATOM     34  C   UNL     1      33.893 -17.753 -24.897  0.00  0.00    +0.012 C 
ENDBRANCH  26  29
ENDBRANCH  19  26
ENDBRANCH  18  20
ENDBRANCH   1  18
TORSDOF 5
ENDMDL
MODEL 5
REMARK VINA RESULT:     -11.1      4.160      9.937
REMARK  Name = 24978486
REMARK  5 active torsions:
REMARK  status: ('A' for Active; 'I' for Inactive)
REMARK    1  A    between atoms: O_1  and  C_6
REMARK    2  A    between atoms: O_1  and  C_18
REMARK    3  A    between atoms: C_18  and  C_20
REMARK    4  A    between atoms: N_19  and  C_26
REMARK    5  A    between atoms: C_26  and  C_29
REMARK                            x       y       z     vdW  Elec       q    Type
REMARK                         _______ _______ _______ _____ _____    ______ ____
ROOT
ATOM      1  O   UNL     1      35.319 -17.701 -20.960  0.00  0.00    -0.479 OA
ENDROOT
BRANCH   1   6
ATOM      2  N   UNL     1      33.877 -13.970 -23.694  0.00  0.00    -0.332 NA
ATOM      3  N   UNL     1      34.143 -13.617 -21.325  0.00  0.00    -0.317 NA
ATOM      4  N   UNL     1      34.832 -15.337 -19.909  0.00  0.00    -0.335 N 
ATOM      5  N   UNL     1      33.449 -11.874 -22.729  0.00  0.00    -0.283 N 
ATOM      6  C   UNL     1      34.980 -17.128 -22.160  0.00  0.00    +0.130 C 
ATOM      7  C   UNL     1      34.589 -15.784 -22.296  0.00  0.00    +0.177 C 
ATOM      8  C   UNL     1      35.035 -17.953 -23.278  0.00  0.00    +0.033 C 
ATOM      9  C   UNL     1      34.251 -15.254 -23.552  0.00  0.00    +0.137 C 
ATOM     10  C   UNL     1      34.513 -14.906 -21.219  0.00  0.00    +0.181 C 
ATOM     11  C   UNL     1      34.702 -17.440 -24.527  0.00  0.00    +0.005 C 
ATOM     12  C   UNL     1      34.315 -16.102 -24.654  0.00  0.00    +0.030 C 
ATOM     13  C   UNL     1      33.842 -13.221 -22.573  0.00  0.00    +0.197 C 
ATOM     14  H   UNL     1      34.774 -14.706 -19.156  0.00  0.00    +0.144 HD
ATOM     15  H   UNL     1      35.112 -16.268 -19.753  0.00  0.00    +0.144 HD
ATOM     16  H   UNL     1      33.218 -11.530 -23.622  0.00  0.00    +0.156 HD
ATOM     17  H   UNL     1      33.407 -11.279 -21.946  0.00  0.00    +0.156 HD
ENDBRANCH   1   6
BRANCH   1  18
ATOM     18  C   UNL     1      36.261 -18.758 -20.995  0.00  0.00    +0.205 C 
BRANCH  18  20
ATOM     19  N   UNL     1      34.181 -21.700 -18.614  0.00  0.00    +0.390 N 
ATOM     20  C   UNL     1      35.551 -20.055 -20.616  0.00  0.00    +0.040 C 
ATOM     21  C   UNL     1      34.108 -19.786 -20.180  0.00  0.00    -0.019 C 
ATOM     22  C   UNL     1      36.302 -20.786 -19.498  0.00  0.00    -0.019 C 
ATOM     23  C   UNL     1      33.423 -21.068 -19.702  0.00  0.00    -0.077 C 
ATOM     24  C   UNL     1      35.545 -22.035 -19.044  0.00  0.00    -0.077 C 
ATOM     25  H   UNL     1      34.248 -21.031 -17.847  0.00  0.00    -0.079 HD
BRANCH  19  26
ATOM     26  C   UNL     1      33.488 -22.895 -18.135  0.00  0.00    -0.049 C 
BRANCH  26  29
ATOM     27 CL   UNL     1      30.998 -22.825 -16.380  0.00  0.00    -0.082 Cl
ATOM     28 CL   UNL     1      31.535 -23.269 -13.243  0.00  0.00    -0.081 Cl
ATOM     29  C   UNL     1      33.674 -23.097 -16.654  0.00  0.00    -0.032 C 
ATOM     30  C   UNL     1      32.599 -23.082 -15.765  0.00  0.00    +0.062 C 
ATOM     31  C   UNL     1      34.969 -23.302 -16.179  0.00  0.00    -0.005 C 
ATOM     32  C   UNL     1      32.821 -23.274 -14.401  0.00  0.00    +0.068 C 
ATOM     33  C   UNL     1      35.190 -23.494 -14.816  0.00  0.00    +0.001 C 
ATOM     34  C   UNL     1      34.116 -23.480 -13.927  0.00  0.00    +0.012 C 
ENDBRANCH  26  29
ENDBRANCH  19  26
ENDBRANCH  18  20
ENDBRANCH   1  18
TORSDOF 5
ENDMDL
MODEL 6
REMARK VINA RESULT:     -11.0      0.995      1.123
REMARK  Name = 24978486
REMARK  5 active torsions:
REMARK  status: ('A' for Active; 'I' for Inactive)
REMARK    1  A    between atoms: O_1  and  C_6
REMARK    2  A    between atoms: O_1  and  C_18
REMARK    3  A    between atoms: C_18  and  C_20
REMARK    4  A    between atoms: N_19  and  C_26
REMARK    5  A    between atoms: C_26  and  C_29
REMARK                            x       y       z     vdW  Elec       q    Type
REMARK                         _______ _______ _______ _____ _____    ______ ____
ROOT
ATOM      1  O   UNL     1      34.003 -22.523 -16.757  0.00  0.00    -0.479 OA
ENDROOT
BRANCH   1   6
ATOM      2  N   UNL     1      34.728 -24.425 -12.359  0.00  0.00    -0.332 NA
ATOM      3  N   UNL     1      36.582 -23.350 -13.461  0.00  0.00    -0.317 NA
ATOM      4  N   UNL     1      36.353 -22.399 -15.577  0.00  0.00    -0.335 N 
ATOM      5  N   UNL     1      36.834 -24.299 -11.333  0.00  0.00    -0.283 N 
ATOM      6  C   UNL     1      33.584 -23.186 -15.631  0.00  0.00    +0.130 C 
ATOM      7  C   UNL     1      34.421 -23.467 -14.537  0.00  0.00    +0.177 C 
ATOM      8  C   UNL     1      32.253 -23.589 -15.608  0.00  0.00    +0.033 C 
ATOM      9  C   UNL     1      33.936 -24.152 -13.411  0.00  0.00    +0.137 C 
ATOM     10  C   UNL     1      35.762 -23.092 -14.496  0.00  0.00    +0.181 C 
ATOM     11  C   UNL     1      31.760 -24.268 -14.499  0.00  0.00    +0.005 C 
ATOM     12  C   UNL     1      32.599 -24.543 -13.415  0.00  0.00    +0.030 C 
ATOM     13  C   UNL     1      36.008 -24.009 -12.441  0.00  0.00    +0.197 C 
ATOM     14  H   UNL     1      37.302 -22.139 -15.536  0.00  0.00    +0.144 HD
ATOM     15  H   UNL     1      35.815 -22.175 -16.371  0.00  0.00    +0.144 HD
ATOM     16  H   UNL     1      36.466 -24.780 -10.558  0.00  0.00    +0.156 HD
ATOM     17  H   UNL     1      37.778 -24.018 -11.336  0.00  0.00    +0.156 HD
ENDBRANCH   1   6
BRANCH   1  18
ATOM     18  C   UNL     1      33.122 -22.519 -17.865  0.00  0.00    +0.205 C 
BRANCH  18  20
ATOM     19  N   UNL     1      35.132 -19.563 -20.291  0.00  0.00    +0.390 N 
ATOM     20  C   UNL     1      33.841 -21.886 -19.055  0.00  0.00    +0.040 C 
ATOM     21  C   UNL     1      35.249 -21.425 -18.666  0.00  0.00    -0.019 C 
ATOM     22  C   UNL     1      33.044 -20.703 -19.613  0.00  0.00    -0.019 C 
ATOM     23  C   UNL     1      35.937 -20.700 -19.825  0.00  0.00    -0.077 C 
ATOM     24  C   UNL     1      33.804 -20.002 -20.740  0.00  0.00    -0.077 C 
ATOM     25  H   UNL     1      35.003 -18.925 -19.505  0.00  0.00    -0.079 HD
BRANCH  19  26
ATOM     26  C   UNL     1      35.826 -18.851 -21.363  0.00  0.00    -0.049 C 
BRANCH  26  29
ATOM     27 CL   UNL     1      34.948 -18.041 -24.166  0.00  0.00    -0.082 Cl
ATOM     28 CL   UNL     1      33.824 -15.043 -24.424  0.00  0.00    -0.081 Cl
ATOM     29  C   UNL     1      35.290 -17.456 -21.549  0.00  0.00    -0.032 C 
ATOM     30  C   UNL     1      34.862 -16.988 -22.791  0.00  0.00    +0.062 C 
ATOM     31  C   UNL     1      35.229 -16.624 -20.431  0.00  0.00    -0.005 C 
ATOM     32  C   UNL     1      34.372 -15.687 -22.915  0.00  0.00    +0.068 C 
ATOM     33  C   UNL     1      34.738 -15.324 -20.555  0.00  0.00    +0.001 C 
ATOM     34  C   UNL     1      34.310 -14.856 -21.797  0.00  0.00    +0.012 C 
ENDBRANCH  26  29
ENDBRANCH  19  26
ENDBRANCH  18  20
ENDBRANCH   1  18
TORSDOF 5
ENDMDL
MODEL 7
REMARK VINA RESULT:     -11.0      6.687     10.387
REMARK  Name = 24978486
REMARK  5 active torsions:
REMARK  status: ('A' for Active; 'I' for Inactive)
REMARK    1  A    between atoms: O_1  and  C_6
REMARK    2  A    between atoms: O_1  and  C_18
REMARK    3  A    between atoms: C_18  and  C_20
REMARK    4  A    between atoms: N_19  and  C_26
REMARK    5  A    between atoms: C_26  and  C_29
REMARK                            x       y       z     vdW  Elec       q    Type
REMARK                         _______ _______ _______ _____ _____    ______ ____
ROOT
ATOM      1  O   UNL     1      33.541 -13.510 -21.996  0.00  0.00    -0.479 OA
ENDROOT
BRANCH   1   6
ATOM      2  N   UNL     1      35.446 -17.897 -22.775  0.00  0.00    -0.332 NA
ATOM      3  N   UNL     1      35.506 -17.005 -20.538  0.00  0.00    -0.317 NA
ATOM      4  N   UNL     1      34.620 -14.906 -20.042  0.00  0.00    -0.335 N 
ATOM      5  N   UNL     1      36.401 -19.117 -21.014  0.00  0.00    -0.283 N 
ATOM      6  C   UNL     1      33.868 -14.572 -22.801  0.00  0.00    +0.130 C 
ATOM      7  C   UNL     1      34.516 -15.730 -22.337  0.00  0.00    +0.177 C 
ATOM      8  C   UNL     1      33.525 -14.460 -24.145  0.00  0.00    +0.033 C 
ATOM      9  C   UNL     1      34.827 -16.785 -23.210  0.00  0.00    +0.137 C 
ATOM     10  C   UNL     1      34.885 -15.906 -21.006  0.00  0.00    +0.181 C 
ATOM     11  C   UNL     1      33.828 -15.497 -25.020  0.00  0.00    +0.005 C 
ATOM     12  C   UNL     1      34.472 -16.645 -24.549  0.00  0.00    +0.030 C 
ATOM     13  C   UNL     1      35.752 -17.946 -21.463  0.00  0.00    +0.197 C 
ATOM     14  H   UNL     1      34.886 -15.042 -19.104  0.00  0.00    +0.144 HD
ATOM     15  H   UNL     1      34.168 -14.073 -20.309  0.00  0.00    +0.144 HD
ATOM     16  H   UNL     1      36.606 -19.840 -21.650  0.00  0.00    +0.156 HD
ATOM     17  H   UNL     1      36.648 -19.210 -20.065  0.00  0.00    +0.156 HD
ENDBRANCH   1   6
BRANCH   1  18
ATOM     18  C   UNL     1      32.174 -13.355 -21.660  0.00  0.00    +0.205 C 
BRANCH  18  20
ATOM     19  N   UNL     1      32.442  -9.048 -21.855  0.00  0.00    +0.390 N 
ATOM     20  C   UNL     1      31.775 -11.902 -21.906  0.00  0.00    +0.040 C 
ATOM     21  C   UNL     1      32.683 -11.252 -22.954  0.00  0.00    -0.019 C 
ATOM     22  C   UNL     1      31.820 -11.091 -20.607  0.00  0.00    -0.019 C 
ATOM     23  C   UNL     1      32.352  -9.768 -23.132  0.00  0.00    -0.077 C 
ATOM     24  C   UNL     1      31.518  -9.614 -20.863  0.00  0.00    -0.077 C 
ATOM     25  H   UNL     1      33.392  -9.156 -21.498  0.00  0.00    -0.079 HD
BRANCH  19  26
ATOM     26  C   UNL     1      32.174  -7.624 -22.050  0.00  0.00    -0.049 C 
BRANCH  26  29
ATOM     27 CL   UNL     1      31.057  -6.037 -24.398  0.00  0.00    -0.082 Cl
ATOM     28 CL   UNL     1      33.267  -4.740 -26.336  0.00  0.00    -0.081 Cl
ATOM     29  C   UNL     1      33.161  -6.992 -22.996  0.00  0.00    -0.032 C 
ATOM     30  C   UNL     1      32.752  -6.245 -24.101  0.00  0.00    +0.062 C 
ATOM     31  C   UNL     1      34.520  -7.171 -22.740  0.00  0.00    -0.005 C 
ATOM     32  C   UNL     1      33.704  -5.678 -24.950  0.00  0.00    +0.068 C 
ATOM     33  C   UNL     1      35.471  -6.603 -23.587  0.00  0.00    +0.001 C 
ATOM     34  C   UNL     1      35.062  -5.857 -24.693  0.00  0.00    +0.012 C 
ENDBRANCH  26  29
ENDBRANCH  19  26
ENDBRANCH  18  20
ENDBRANCH   1  18
TORSDOF 5
ENDMDL
MODEL 8
REMARK VINA RESULT:     -10.8      2.420      3.593
REMARK  Name = 24978486
REMARK  5 active torsions:
REMARK  status: ('A' for Active; 'I' for Inactive)
REMARK    1  A    between atoms: O_1  and  C_6
REMARK    2  A    between atoms: O_1  and  C_18
REMARK    3  A    between atoms: C_18  and  C_20
REMARK    4  A    between atoms: N_19  and  C_26
REMARK    5  A    between atoms: C_26  and  C_29
REMARK                            x       y       z     vdW  Elec       q    Type
REMARK                         _______ _______ _______ _____ _____    ______ ____
ROOT
ATOM      1  O   UNL     1      32.647 -22.495 -17.715  0.00  0.00    -0.479 OA
ENDROOT
BRANCH   1   6
ATOM      2  N   UNL     1      32.313 -24.451 -13.294  0.00  0.00    -0.332 NA
ATOM      3  N   UNL     1      30.276 -23.942 -14.477  0.00  0.00    -0.317 NA
ATOM      4  N   UNL     1      30.312 -23.000 -16.610  0.00  0.00    -0.335 N 
ATOM      5  N   UNL     1      30.218 -24.890 -12.335  0.00  0.00    -0.283 N 
ATOM      6  C   UNL     1      33.191 -23.002 -16.562  0.00  0.00    +0.130 C 
ATOM      7  C   UNL     1      32.424 -23.482 -15.486  0.00  0.00    +0.177 C 
ATOM      8  C   UNL     1      34.580 -23.025 -16.489  0.00  0.00    +0.033 C 
ATOM      9  C   UNL     1      33.038 -23.989 -14.329  0.00  0.00    +0.137 C 
ATOM     10  C   UNL     1      31.032 -23.488 -15.495  0.00  0.00    +0.181 C 
ATOM     11  C   UNL     1      35.200 -23.524 -15.349  0.00  0.00    +0.005 C 
ATOM     12  C   UNL     1      34.429 -24.000 -14.283  0.00  0.00    +0.030 C 
ATOM     13  C   UNL     1      30.972 -24.402 -13.425  0.00  0.00    +0.197 C 
ATOM     14  H   UNL     1      29.328 -23.010 -16.603  0.00  0.00    +0.144 HD
ATOM     15  H   UNL     1      30.796 -22.651 -17.393  0.00  0.00    +0.144 HD
ATOM     16  H   UNL     1      30.676 -25.239 -11.537  0.00  0.00    +0.156 HD
ATOM     17  H   UNL     1      29.234 -24.881 -12.373  0.00  0.00    +0.156 HD
ENDBRANCH   1   6
BRANCH   1  18
ATOM     18  C   UNL     1      33.432 -22.583 -18.890  0.00  0.00    +0.205 C 
BRANCH  18  20
ATOM     19  N   UNL     1      35.420 -19.346 -20.945  0.00  0.00    +0.390 N 
ATOM     20  C   UNL     1      34.102 -21.232 -19.130  0.00  0.00    +0.040 C 
ATOM     21  C   UNL     1      33.327 -20.410 -20.164  0.00  0.00    -0.019 C 
ATOM     22  C   UNL     1      35.552 -21.411 -19.591  0.00  0.00    -0.019 C 
ATOM     23  C   UNL     1      34.048 -19.098 -20.484  0.00  0.00    -0.077 C 
ATOM     24  C   UNL     1      36.198 -20.067 -19.929  0.00  0.00    -0.077 C 
ATOM     25  H   UNL     1      35.371 -19.931 -21.779  0.00  0.00    -0.079 HD
BRANCH  19  26
ATOM     26  C   UNL     1      36.077 -18.087 -21.295  0.00  0.00    -0.049 C 
BRANCH  26  29
ATOM     27 CL   UNL     1      35.016 -15.306 -20.644  0.00  0.00    -0.082 Cl
ATOM     28 CL   UNL     1      33.463 -13.848 -23.050  0.00  0.00    -0.081 Cl
ATOM     29  C   UNL     1      35.339 -17.352 -22.382  0.00  0.00    -0.032 C 
ATOM     30  C   UNL     1      34.814 -16.074 -22.186  0.00  0.00    +0.062 C 
ATOM     31  C   UNL     1      35.187 -17.986 -23.615  0.00  0.00    -0.005 C 
ATOM     32  C   UNL     1      34.138 -15.432 -23.223  0.00  0.00    +0.068 C 
ATOM     33  C   UNL     1      34.512 -17.344 -24.652  0.00  0.00    +0.001 C 
ATOM     34  C   UNL     1      33.987 -16.066 -24.456  0.00  0.00    +0.012 C 
ENDBRANCH  26  29
ENDBRANCH  19  26
ENDBRANCH  18  20
ENDBRANCH   1  18
TORSDOF 5
ENDMDL
MODEL 9
REMARK VINA RESULT:     -10.8      1.217      1.601
REMARK  Name = 24978486
REMARK  5 active torsions:
REMARK  status: ('A' for Active; 'I' for Inactive)
REMARK    1  A    between atoms: O_1  and  C_6
REMARK    2  A    between atoms: O_1  and  C_18
REMARK    3  A    between atoms: C_18  and  C_20
REMARK    4  A    between atoms: N_19  and  C_26
REMARK    5  A    between atoms: C_26  and  C_29
REMARK                            x       y       z     vdW  Elec       q    Type
REMARK                         _______ _______ _______ _____ _____    ______ ____
ROOT
ATOM      1  O   UNL     1      34.848 -22.406 -18.091  0.00  0.00    -0.479 OA
ENDROOT
BRANCH   1   6
ATOM      2  N   UNL     1      35.301 -23.586 -13.413  0.00  0.00    -0.332 NA
ATOM      3  N   UNL     1      37.269 -22.880 -14.611  0.00  0.00    -0.317 NA
ATOM      4  N   UNL     1      37.174 -22.288 -16.864  0.00  0.00    -0.335 N 
ATOM      5  N   UNL     1      37.387 -23.471 -12.346  0.00  0.00    -0.283 N 
ATOM      6  C   UNL     1      34.346 -22.828 -16.885  0.00  0.00    +0.130 C 
ATOM      7  C   UNL     1      35.130 -22.991 -15.730  0.00  0.00    +0.177 C 
ATOM      8  C   UNL     1      32.983 -23.103 -16.844  0.00  0.00    +0.033 C 
ATOM      9  C   UNL     1      34.560 -23.428 -14.524  0.00  0.00    +0.137 C 
ATOM     10  C   UNL     1      36.498 -22.733 -15.704  0.00  0.00    +0.181 C 
ATOM     11  C   UNL     1      32.406 -23.537 -15.656  0.00  0.00    +0.005 C 
ATOM     12  C   UNL     1      33.193 -23.696 -14.511  0.00  0.00    +0.030 C 
ATOM     13  C   UNL     1      36.616 -23.304 -13.517  0.00  0.00    +0.197 C 
ATOM     14  H   UNL     1      38.141 -22.109 -16.832  0.00  0.00    +0.144 HD
ATOM     15  H   UNL     1      36.676 -22.156 -17.703  0.00  0.00    +0.144 HD
ATOM     16  H   UNL     1      36.960 -23.779 -11.515  0.00  0.00    +0.156 HD
ATOM     17  H   UNL     1      38.353 -23.279 -12.361  0.00  0.00    +0.156 HD
ENDBRANCH   1   6
BRANCH   1  18
ATOM     18  C   UNL     1      33.915 -21.940 -19.048  0.00  0.00    +0.205 C 
BRANCH  18  20
ATOM     19  N   UNL     1      35.544 -18.489 -21.070  0.00  0.00    +0.390 N 
ATOM     20  C   UNL     1      34.660 -21.104 -20.086  0.00  0.00    +0.040 C 
ATOM     21  C   UNL     1      35.818 -20.334 -19.444  0.00  0.00    -0.019 C 
ATOM     22  C   UNL     1      33.712 -20.126 -20.787  0.00  0.00    -0.019 C 
ATOM     23  C   UNL     1      36.505 -19.417 -20.459  0.00  0.00    -0.077 C 
ATOM     24  C   UNL     1      34.469 -19.216 -21.756  0.00  0.00    -0.077 C 
ATOM     25  H   UNL     1      35.124 -17.934 -20.324  0.00  0.00    -0.079 HD
BRANCH  19  26
ATOM     26  C   UNL     1      36.225 -17.586 -21.997  0.00  0.00    -0.049 C 
BRANCH  26  29
ATOM     27 CL   UNL     1      34.968 -15.505 -20.161  0.00  0.00    -0.082 Cl
ATOM     28 CL   UNL     1      32.962 -13.453 -21.606  0.00  0.00    -0.081 Cl
ATOM     29  C   UNL     1      35.274 -16.595 -22.616  0.00  0.00    -0.032 C 
ATOM     30  C   UNL     1      34.646 -15.603 -21.862  0.00  0.00    +0.062 C 
ATOM     31  C   UNL     1      35.029 -16.691 -23.985  0.00  0.00    -0.005 C 
ATOM     32  C   UNL     1      33.773 -14.707 -22.479  0.00  0.00    +0.068 C 
ATOM     33  C   UNL     1      34.156 -15.794 -24.602  0.00  0.00    +0.001 C 
ATOM     34  C   UNL     1      33.528 -14.803 -23.848  0.00  0.00    +0.012 C 
ENDBRANCH  26  29
ENDBRANCH  19  26
ENDBRANCH  18  20
ENDBRANCH   1  18
TORSDOF 5
ENDMDL
