MODEL 1
REMARK VINA RESULT:     -12.1      0.000      0.000
REMARK  Name = 24771824
REMARK  4 active torsions:
REMARK  status: ('A' for Active; 'I' for Inactive)
REMARK    1  A    between atoms: C_11  and  C_18
REMARK    2  A    between atoms: C_21  and  O_24
REMARK    3  A    between atoms: O_24  and  C_26
REMARK    4  A    between atoms: C_28  and  C_34
REMARK                            x       y       z     vdW  Elec       q    Type
REMARK                         _______ _______ _______ _____ _____    ______ ____
ROOT
ATOM      1  O   UNL     1      33.655 -23.497 -16.283  0.00  0.00    -0.252 OA
ATOM      2  N   UNL     1      33.765 -21.886 -17.939  0.00  0.00    -0.263 N 
ATOM      3  N   UNL     1      31.679 -22.580 -17.079  0.00  0.00    -0.252 N 
ATOM      4  N   UNL     1      31.153 -24.162 -15.374  0.00  0.00    -0.133 NA
ATOM      5  N   UNL     1      30.239 -24.817 -14.608  0.00  0.00    -0.145 NA
ATOM      6  C   UNL     1      35.769 -22.144 -19.381  0.00  0.00    +0.044 C 
ATOM      7  C   UNL     1      33.675 -21.056 -20.284  0.00  0.00    +0.044 C 
ATOM      8  C   UNL     1      35.234 -21.933 -17.966  0.00  0.00    +0.099 C 
ATOM      9  C   UNL     1      33.159 -20.894 -18.849  0.00  0.00    +0.099 C 
ATOM     10  C   UNL     1      35.178 -21.122 -20.312  0.00  0.00    -0.041 C 
ATOM     11  C   UNL     1      35.926 -20.321 -21.084  0.00  0.00    -0.008 C 
ATOM     12  C   UNL     1      33.065 -22.725 -17.044  0.00  0.00    +0.309 C 
ATOM     13  C   UNL     1      30.724 -23.260 -16.283  0.00  0.00    +0.157 C 
ATOM     14  C   UNL     1      29.389 -22.968 -16.477  0.00  0.00    +0.038 C 
ATOM     15  C   UNL     1      28.459 -23.635 -15.698  0.00  0.00    +0.025 C 
ATOM     16  C   UNL     1      28.928 -24.551 -14.777  0.00  0.00    +0.122 C 
ATOM     17  H   UNL     1      31.324 -21.932 -17.729  0.00  0.00    +0.158 HD
ENDROOT
BRANCH  11  18
ATOM     18  C   UNL     1      35.415 -19.303 -22.015  0.00  0.00    +0.002 C 
ATOM     19  C   UNL     1      35.798 -17.969 -21.867  0.00  0.00    +0.038 C 
ATOM     20  C   UNL     1      34.548 -19.669 -23.043  0.00  0.00    +0.000 C 
ATOM     21  C   UNL     1      35.315 -17.004 -22.751  0.00  0.00    +0.147 C 
ATOM     22  C   UNL     1      34.064 -18.704 -23.926  0.00  0.00    +0.003 C 
ATOM     23  C   UNL     1      34.448 -17.371 -23.779  0.00  0.00    +0.038 C 
BRANCH  21  24
ATOM     24  O   UNL     1      35.689 -15.703 -22.607  0.00  0.00    -0.436 OA
BRANCH  24  26
ATOM     25  N   UNL     1      34.294 -13.849 -22.851  0.00  0.00    -0.210 NA
ATOM     26  C   UNL     1      34.773 -14.827 -22.050  0.00  0.00    +0.230 C 
ATOM     27  C   UNL     1      34.401 -14.997 -20.726  0.00  0.00    +0.058 C 
ATOM     28  C   UNL     1      32.963 -13.086 -20.983  0.00  0.00    +0.091 C 
ATOM     29  C   UNL     1      33.479 -14.105 -20.189  0.00  0.00    +0.010 C 
ATOM     30  C   UNL     1      33.400 -13.001 -22.296  0.00  0.00    +0.106 C 
BRANCH  28  34
ATOM     31  F   UNL     1      32.155 -10.836 -20.888  0.00  0.00    -0.166 F 
ATOM     32  F   UNL     1      30.679 -12.418 -20.741  0.00  0.00    -0.166 F 
ATOM     33  F   UNL     1      32.020 -12.027 -19.074  0.00  0.00    -0.166 F 
ATOM     34  C   UNL     1      31.977 -12.114 -20.438  0.00  0.00    +0.420 C 
ENDBRANCH  28  34
ENDBRANCH  24  26
ENDBRANCH  21  24
ENDBRANCH  11  18
TORSDOF 4
ENDMDL
MODEL 2
REMARK VINA RESULT:     -12.0      4.491     10.244
REMARK  Name = 24771824
REMARK  4 active torsions:
REMARK  status: ('A' for Active; 'I' for Inactive)
REMARK    1  A    between atoms: C_11  and  C_18
REMARK    2  A    between atoms: C_21  and  O_24
REMARK    3  A    between atoms: O_24  and  C_26
REMARK    4  A    between atoms: C_28  and  C_34
REMARK                            x       y       z     vdW  Elec       q    Type
REMARK                         _______ _______ _______ _____ _____    ______ ____
ROOT
ATOM      1  O   UNL     1      32.969 -12.264 -22.807  0.00  0.00    -0.252 OA
ATOM      2  N   UNL     1      33.449 -14.350 -21.930  0.00  0.00    -0.263 N 
ATOM      3  N   UNL     1      32.723 -12.597 -20.526  0.00  0.00    -0.252 N 
ATOM      4  N   UNL     1      32.105 -10.352 -21.039  0.00  0.00    -0.133 NA
ATOM      5  N   UNL     1      31.665  -9.127 -20.646  0.00  0.00    -0.145 NA
ATOM      6  C   UNL     1      35.155 -15.567 -23.261  0.00  0.00    +0.044 C 
ATOM      7  C   UNL     1      34.878 -16.041 -20.794  0.00  0.00    +0.044 C 
ATOM      8  C   UNL     1      33.785 -14.891 -23.255  0.00  0.00    +0.099 C 
ATOM      9  C   UNL     1      33.524 -15.325 -20.824  0.00  0.00    +0.099 C 
ATOM     10  C   UNL     1      35.233 -16.582 -22.153  0.00  0.00    -0.041 C 
ATOM     11  C   UNL     1      35.566 -17.864 -22.361  0.00  0.00    -0.008 C 
ATOM     12  C   UNL     1      33.047 -13.000 -21.820  0.00  0.00    +0.309 C 
ATOM     13  C   UNL     1      32.263 -11.322 -20.113  0.00  0.00    +0.157 C 
ATOM     14  C   UNL     1      31.998 -11.129 -18.772  0.00  0.00    +0.038 C 
ATOM     15  C   UNL     1      31.550  -9.882 -18.373  0.00  0.00    +0.025 C 
ATOM     16  C   UNL     1      31.398  -8.910 -19.342  0.00  0.00    +0.122 C 
ATOM     17  H   UNL     1      32.825 -13.275 -19.818  0.00  0.00    +0.158 HD
ENDROOT
BRANCH  11  18
ATOM     18  C   UNL     1      35.661 -18.905 -21.326  0.00  0.00    +0.002 C 
ATOM     19  C   UNL     1      34.556 -19.708 -21.043  0.00  0.00    +0.038 C 
ATOM     20  C   UNL     1      36.855 -19.090 -20.629  0.00  0.00    +0.000 C 
ATOM     21  C   UNL     1      34.646 -20.697 -20.063  0.00  0.00    +0.147 C 
ATOM     22  C   UNL     1      36.945 -20.078 -19.650  0.00  0.00    +0.003 C 
ATOM     23  C   UNL     1      35.840 -20.882 -19.366  0.00  0.00    +0.038 C 
BRANCH  21  24
ATOM     24  O   UNL     1      33.568 -21.480 -19.787  0.00  0.00    -0.436 OA
BRANCH  24  26
ATOM     25  N   UNL     1      32.249 -22.167 -17.989  0.00  0.00    -0.210 NA
ATOM     26  C   UNL     1      33.485 -22.038 -18.522  0.00  0.00    +0.230 C 
ATOM     27  C   UNL     1      34.650 -22.430 -17.883  0.00  0.00    +0.058 C 
ATOM     28  C   UNL     1      33.285 -23.137 -16.033  0.00  0.00    +0.091 C 
ATOM     29  C   UNL     1      34.540 -22.988 -16.614  0.00  0.00    +0.010 C 
ATOM     30  C   UNL     1      32.181 -22.714 -16.755  0.00  0.00    +0.106 C 
BRANCH  28  34
ATOM     31  F   UNL     1      32.074 -24.585 -14.562  0.00  0.00    -0.166 F 
ATOM     32  F   UNL     1      34.219 -24.455 -14.268  0.00  0.00    -0.166 F 
ATOM     33  F   UNL     1      32.945 -22.785 -13.706  0.00  0.00    -0.166 F 
ATOM     34  C   UNL     1      33.135 -23.729 -14.676  0.00  0.00    +0.420 C 
ENDBRANCH  28  34
ENDBRANCH  24  26
ENDBRANCH  21  24
ENDBRANCH  11  18
TORSDOF 4
ENDMDL
MODEL 3
REMARK VINA RESULT:     -11.5      5.443     12.033
REMARK  Name = 24771824
REMARK  4 active torsions:
REMARK  status: ('A' for Active; 'I' for Inactive)
REMARK    1  A    between atoms: C_11  and  C_18
REMARK    2  A    between atoms: C_21  and  O_24
REMARK    3  A    between atoms: O_24  and  C_26
REMARK    4  A    between atoms: C_28  and  C_34
REMARK                            x       y       z     vdW  Elec       q    Type
REMARK                         _______ _______ _______ _____ _____    ______ ____
ROOT
ATOM      1  O   UNL     1      31.286  -7.813 -20.544  0.00  0.00    -0.252 OA
ATOM      2  N   UNL     1      32.336  -9.693 -21.391  0.00  0.00    -0.263 N 
ATOM      3  N   UNL     1      31.869  -7.848 -22.788  0.00  0.00    -0.252 N 
ATOM      4  N   UNL     1      30.850  -5.749 -22.297  0.00  0.00    -0.133 NA
ATOM      5  N   UNL     1      30.426  -4.518 -22.692  0.00  0.00    -0.145 NA
ATOM      6  C   UNL     1      31.719 -11.758 -20.160  0.00  0.00    +0.044 C 
ATOM      7  C   UNL     1      32.429 -11.876 -22.582  0.00  0.00    +0.044 C 
ATOM      8  C   UNL     1      32.325 -10.358 -20.081  0.00  0.00    +0.099 C 
ATOM      9  C   UNL     1      32.995 -10.456 -22.470  0.00  0.00    +0.099 C 
ATOM     10  C   UNL     1      32.402 -12.554 -21.239  0.00  0.00    -0.041 C 
ATOM     11  C   UNL     1      32.958 -13.753 -21.018  0.00  0.00    -0.008 C 
ATOM     12  C   UNL     1      31.780  -8.399 -21.511  0.00  0.00    +0.309 C 
ATOM     13  C   UNL     1      31.428  -6.567 -23.203  0.00  0.00    +0.157 C 
ATOM     14  C   UNL     1      31.611  -6.213 -24.525  0.00  0.00    +0.038 C 
ATOM     15  C   UNL     1      31.179  -4.961 -24.926  0.00  0.00    +0.025 C 
ATOM     16  C   UNL     1      30.592  -4.146 -23.978  0.00  0.00    +0.122 C 
ATOM     17  H   UNL     1      32.284  -8.413 -23.480  0.00  0.00    +0.158 HD
ENDROOT
BRANCH  11  18
ATOM     18  C   UNL     1      33.639 -14.582 -22.025  0.00  0.00    +0.002 C 
ATOM     19  C   UNL     1      34.659 -15.451 -21.637  0.00  0.00    +0.038 C 
ATOM     20  C   UNL     1      33.264 -14.501 -23.366  0.00  0.00    +0.000 C 
ATOM     21  C   UNL     1      35.304 -16.238 -22.592  0.00  0.00    +0.147 C 
ATOM     22  C   UNL     1      33.908 -15.287 -24.319  0.00  0.00    +0.003 C 
ATOM     23  C   UNL     1      34.929 -16.157 -23.932  0.00  0.00    +0.038 C 
BRANCH  21  24
ATOM     24  O   UNL     1      36.300 -17.085 -22.214  0.00  0.00    -0.436 OA
BRANCH  24  26
ATOM     25  N   UNL     1      36.866 -18.662 -20.590  0.00  0.00    -0.210 NA
ATOM     26  C   UNL     1      35.950 -18.200 -21.470  0.00  0.00    +0.230 C 
ATOM     27  C   UNL     1      34.702 -18.771 -21.663  0.00  0.00    +0.058 C 
ATOM     28  C   UNL     1      35.291 -20.393 -19.987  0.00  0.00    +0.091 C 
ATOM     29  C   UNL     1      34.374 -19.889 -20.903  0.00  0.00    +0.010 C 
ATOM     30  C   UNL     1      36.512 -19.749 -19.870  0.00  0.00    +0.106 C 
BRANCH  28  34
ATOM     31  F   UNL     1      35.107 -22.773 -19.831  0.00  0.00    -0.166 F 
ATOM     32  F   UNL     1      35.755 -21.718 -18.050  0.00  0.00    -0.166 F 
ATOM     33  F   UNL     1      33.684 -21.581 -18.698  0.00  0.00    -0.166 F 
ATOM     34  C   UNL     1      34.970 -21.588 -19.161  0.00  0.00    +0.420 C 
ENDBRANCH  28  34
ENDBRANCH  24  26
ENDBRANCH  21  24
ENDBRANCH  11  18
TORSDOF 4
ENDMDL
MODEL 4
REMARK VINA RESULT:     -10.5      6.580     14.152
REMARK  Name = 24771824
REMARK  4 active torsions:
REMARK  status: ('A' for Active; 'I' for Inactive)
REMARK    1  A    between atoms: C_11  and  C_18
REMARK    2  A    between atoms: C_21  and  O_24
REMARK    3  A    between atoms: O_24  and  C_26
REMARK    4  A    between atoms: C_28  and  C_34
REMARK                            x       y       z     vdW  Elec       q    Type
REMARK                         _______ _______ _______ _____ _____    ______ ____
ROOT
ATOM      1  O   UNL     1      32.185  -4.770 -24.723  0.00  0.00    -0.252 OA
ATOM      2  N   UNL     1      32.617  -6.807 -23.717  0.00  0.00    -0.263 N 
ATOM      3  N   UNL     1      34.257  -5.757 -25.052  0.00  0.00    -0.252 N 
ATOM      4  N   UNL     1      34.212  -3.674 -26.212  0.00  0.00    -0.133 NA
ATOM      5  N   UNL     1      34.818  -2.744 -26.998  0.00  0.00    -0.145 NA
ATOM      6  C   UNL     1      30.559  -8.152 -23.376  0.00  0.00    +0.044 C 
ATOM      7  C   UNL     1      32.801  -9.288 -23.641  0.00  0.00    +0.044 C 
ATOM      8  C   UNL     1      31.289  -6.842 -23.088  0.00  0.00    +0.099 C 
ATOM      9  C   UNL     1      33.494  -7.946 -23.380  0.00  0.00    +0.099 C 
ATOM     10  C   UNL     1      31.434  -9.320 -23.012  0.00  0.00    -0.041 C 
ATOM     11  C   UNL     1      31.039 -10.294 -22.180  0.00  0.00    -0.008 C 
ATOM     12  C   UNL     1      32.966  -5.705 -24.529  0.00  0.00    +0.309 C 
ATOM     13  C   UNL     1      34.892  -4.790 -25.871  0.00  0.00    +0.157 C 
ATOM     14  C   UNL     1      36.185  -5.037 -26.285  0.00  0.00    +0.038 C 
ATOM     15  C   UNL     1      36.801  -4.091 -27.085  0.00  0.00    +0.025 C 
ATOM     16  C   UNL     1      36.082  -2.960 -27.418  0.00  0.00    +0.122 C 
ATOM     17  H   UNL     1      34.788  -6.556 -24.827  0.00  0.00    +0.158 HD
ENDROOT
BRANCH  11  18
ATOM     18  C   UNL     1      31.842 -11.461 -21.782  0.00  0.00    +0.002 C 
ATOM     19  C   UNL     1      32.761 -12.011 -22.676  0.00  0.00    +0.038 C 
ATOM     20  C   UNL     1      31.684 -12.017 -20.513  0.00  0.00    +0.000 C 
ATOM     21  C   UNL     1      33.524 -13.116 -22.299  0.00  0.00    +0.147 C 
ATOM     22  C   UNL     1      32.446 -13.122 -20.136  0.00  0.00    +0.003 C 
ATOM     23  C   UNL     1      33.367 -13.672 -21.029  0.00  0.00    +0.038 C 
BRANCH  21  24
ATOM     24  O   UNL     1      34.421 -13.653 -23.170  0.00  0.00    -0.436 OA
BRANCH  24  26
ATOM     25  N   UNL     1      35.160 -15.548 -22.028  0.00  0.00    -0.210 NA
ATOM     26  C   UNL     1      34.603 -15.026 -23.144  0.00  0.00    +0.230 C 
ATOM     27  C   UNL     1      34.211 -15.776 -24.240  0.00  0.00    +0.058 C 
ATOM     28  C   UNL     1      34.973 -17.727 -23.058  0.00  0.00    +0.091 C 
ATOM     29  C   UNL     1      34.403 -17.153 -24.189  0.00  0.00    +0.010 C 
ATOM     30  C   UNL     1      35.331 -16.889 -22.014  0.00  0.00    +0.106 C 
BRANCH  28  34
ATOM     31  F   UNL     1      34.508 -19.800 -21.956  0.00  0.00    -0.166 F 
ATOM     32  F   UNL     1      34.823 -19.874 -24.101  0.00  0.00    -0.166 F 
ATOM     33  F   UNL     1      36.505 -19.522 -22.770  0.00  0.00    -0.166 F 
ATOM     34  C   UNL     1      35.194 -19.196 -22.974  0.00  0.00    +0.420 C 
ENDBRANCH  28  34
ENDBRANCH  24  26
ENDBRANCH  21  24
ENDBRANCH  11  18
TORSDOF 4
ENDMDL
MODEL 5
REMARK VINA RESULT:     -10.4      4.764     10.176
REMARK  Name = 24771824
REMARK  4 active torsions:
REMARK  status: ('A' for Active; 'I' for Inactive)
REMARK    1  A    between atoms: C_11  and  C_18
REMARK    2  A    between atoms: C_21  and  O_24
REMARK    3  A    between atoms: O_24  and  C_26
REMARK    4  A    between atoms: C_28  and  C_34
REMARK                            x       y       z     vdW  Elec       q    Type
REMARK                         _______ _______ _______ _____ _____    ______ ____
ROOT
ATOM      1  O   UNL     1      32.542 -10.367 -23.063  0.00  0.00    -0.252 OA
ATOM      2  N   UNL     1      32.837 -12.660 -22.980  0.00  0.00    -0.263 N 
ATOM      3  N   UNL     1      32.297 -11.449 -21.027  0.00  0.00    -0.252 N 
ATOM      4  N   UNL     1      31.885  -9.123 -20.708  0.00  0.00    -0.133 NA
ATOM      5  N   UNL     1      31.568  -8.077 -19.899  0.00  0.00    -0.145 NA
ATOM      6  C   UNL     1      34.402 -13.478 -24.725  0.00  0.00    +0.044 C 
ATOM      7  C   UNL     1      34.117 -14.753 -22.561  0.00  0.00    +0.044 C 
ATOM      8  C   UNL     1      33.102 -12.735 -24.424  0.00  0.00    +0.099 C 
ATOM      9  C   UNL     1      32.835 -13.961 -22.281  0.00  0.00    +0.099 C 
ATOM     10  C   UNL     1      34.400 -14.817 -24.039  0.00  0.00    -0.041 C 
ATOM     11  C   UNL     1      34.609 -15.970 -24.689  0.00  0.00    -0.008 C 
ATOM     12  C   UNL     1      32.564 -11.404 -22.394  0.00  0.00    +0.309 C 
ATOM     13  C   UNL     1      31.965 -10.363 -20.180  0.00  0.00    +0.157 C 
ATOM     14  C   UNL     1      31.738 -10.625 -18.844  0.00  0.00    +0.038 C 
ATOM     15  C   UNL     1      31.415  -9.561 -18.021  0.00  0.00    +0.025 C 
ATOM     16  C   UNL     1      31.341  -8.305 -18.589  0.00  0.00    +0.122 C 
ATOM     17  H   UNL     1      32.345 -12.336 -20.602  0.00  0.00    +0.158 HD
ENDROOT
BRANCH  11  18
ATOM     18  C   UNL     1      34.620 -17.309 -24.081  0.00  0.00    +0.002 C 
ATOM     19  C   UNL     1      35.226 -17.505 -22.840  0.00  0.00    +0.038 C 
ATOM     20  C   UNL     1      34.025 -18.382 -24.744  0.00  0.00    +0.000 C 
ATOM     21  C   UNL     1      35.235 -18.775 -22.262  0.00  0.00    +0.147 C 
ATOM     22  C   UNL     1      34.034 -19.651 -24.167  0.00  0.00    +0.003 C 
ATOM     23  C   UNL     1      34.640 -19.848 -22.925  0.00  0.00    +0.038 C 
BRANCH  21  24
ATOM     24  O   UNL     1      35.827 -18.967 -21.051  0.00  0.00    -0.436 OA
BRANCH  24  26
ATOM     25  N   UNL     1      36.163 -20.657 -19.479  0.00  0.00    -0.210 NA
ATOM     26  C   UNL     1      35.291 -19.936 -20.219  0.00  0.00    +0.230 C 
ATOM     27  C   UNL     1      33.918 -20.111 -20.189  0.00  0.00    +0.058 C 
ATOM     28  C   UNL     1      34.270 -21.852 -18.567  0.00  0.00    +0.091 C 
ATOM     29  C   UNL     1      33.404 -21.090 -19.345  0.00  0.00    +0.010 C 
ATOM     30  C   UNL     1      35.628 -21.599 -18.670  0.00  0.00    +0.106 C 
BRANCH  28  34
ATOM     31  F   UNL     1      32.490 -22.662 -17.189  0.00  0.00    -0.166 F 
ATOM     32  F   UNL     1      33.681 -24.145 -18.232  0.00  0.00    -0.166 F 
ATOM     33  F   UNL     1      34.525 -23.069 -16.541  0.00  0.00    -0.166 F 
ATOM     34  C   UNL     1      33.751 -22.908 -17.656  0.00  0.00    +0.420 C 
ENDBRANCH  28  34
ENDBRANCH  24  26
ENDBRANCH  21  24
ENDBRANCH  11  18
TORSDOF 4
ENDMDL
MODEL 6
REMARK VINA RESULT:     -10.3      5.955     13.050
REMARK  Name = 24771824
REMARK  4 active torsions:
REMARK  status: ('A' for Active; 'I' for Inactive)
REMARK    1  A    between atoms: C_11  and  C_18
REMARK    2  A    between atoms: C_21  and  O_24
REMARK    3  A    between atoms: O_24  and  C_26
REMARK    4  A    between atoms: C_28  and  C_34
REMARK                            x       y       z     vdW  Elec       q    Type
REMARK                         _______ _______ _______ _____ _____    ______ ____
ROOT
ATOM      1  O   UNL     1      32.273  -6.269 -22.008  0.00  0.00    -0.252 OA
ATOM      2  N   UNL     1      32.929  -8.388 -22.662  0.00  0.00    -0.263 N 
ATOM      3  N   UNL     1      33.049  -6.576 -24.171  0.00  0.00    -0.252 N 
ATOM      4  N   UNL     1      32.509  -4.273 -23.875  0.00  0.00    -0.133 NA
ATOM      5  N   UNL     1      32.426  -3.005 -24.361  0.00  0.00    -0.145 NA
ATOM      6  C   UNL     1      31.727 -10.175 -21.429  0.00  0.00    +0.044 C 
ATOM      7  C   UNL     1      32.625 -10.604 -23.752  0.00  0.00    +0.044 C 
ATOM      8  C   UNL     1      32.634  -8.950 -21.337  0.00  0.00    +0.099 C 
ATOM      9  C   UNL     1      33.494  -9.347 -23.632  0.00  0.00    +0.099 C 
ATOM     10  C   UNL     1      32.306 -11.172 -22.395  0.00  0.00    -0.041 C 
ATOM     11  C   UNL     1      32.541 -12.451 -22.070  0.00  0.00    -0.008 C 
ATOM     12  C   UNL     1      32.708  -7.012 -22.892  0.00  0.00    +0.309 C 
ATOM     13  C   UNL     1      32.965  -5.257 -24.680  0.00  0.00    +0.157 C 
ATOM     14  C   UNL     1      33.355  -5.037 -25.986  0.00  0.00    +0.038 C 
ATOM     15  C   UNL     1      33.271  -3.747 -26.479  0.00  0.00    +0.025 C 
ATOM     16  C   UNL     1      32.801  -2.762 -25.633  0.00  0.00    +0.122 C 
ATOM     17  H   UNL     1      33.386  -7.263 -24.791  0.00  0.00    +0.158 HD
ENDROOT
BRANCH  11  18
ATOM     18  C   UNL     1      33.104 -13.476 -22.963  0.00  0.00    +0.002 C 
ATOM     19  C   UNL     1      34.178 -14.256 -22.537  0.00  0.00    +0.038 C 
ATOM     20  C   UNL     1      32.563 -13.667 -24.234  0.00  0.00    +0.000 C 
ATOM     21  C   UNL     1      34.712 -15.229 -23.383  0.00  0.00    +0.147 C 
ATOM     22  C   UNL     1      33.096 -14.638 -25.080  0.00  0.00    +0.003 C 
ATOM     23  C   UNL     1      34.171 -15.420 -24.654  0.00  0.00    +0.038 C 
BRANCH  21  24
ATOM     24  O   UNL     1      35.760 -15.991 -22.968  0.00  0.00    -0.436 OA
BRANCH  24  26
ATOM     25  N   UNL     1      35.610 -17.186 -20.970  0.00  0.00    -0.210 NA
ATOM     26  C   UNL     1      35.475 -17.178 -22.315  0.00  0.00    +0.230 C 
ATOM     27  C   UNL     1      35.072 -18.274 -23.061  0.00  0.00    +0.058 C 
ATOM     28  C   UNL     1      34.918 -19.502 -20.998  0.00  0.00    +0.091 C 
ATOM     29  C   UNL     1      34.790 -19.455 -22.382  0.00  0.00    +0.010 C 
ATOM     30  C   UNL     1      35.328 -18.350 -20.345  0.00  0.00    +0.106 C 
BRANCH  28  34
ATOM     31  F   UNL     1      33.304 -21.101 -20.248  0.00  0.00    -0.166 F 
ATOM     32  F   UNL     1      35.285 -21.849 -20.721  0.00  0.00    -0.166 F 
ATOM     33  F   UNL     1      34.974 -20.664 -18.925  0.00  0.00    -0.166 F 
ATOM     34  C   UNL     1      34.626 -20.750 -20.244  0.00  0.00    +0.420 C 
ENDBRANCH  28  34
ENDBRANCH  24  26
ENDBRANCH  21  24
ENDBRANCH  11  18
TORSDOF 4
ENDMDL
MODEL 7
REMARK VINA RESULT:     -10.1      5.080     10.537
REMARK  Name = 24771824
REMARK  4 active torsions:
REMARK  status: ('A' for Active; 'I' for Inactive)
REMARK    1  A    between atoms: C_11  and  C_18
REMARK    2  A    between atoms: C_21  and  O_24
REMARK    3  A    between atoms: O_24  and  C_26
REMARK    4  A    between atoms: C_28  and  C_34
REMARK                            x       y       z     vdW  Elec       q    Type
REMARK                         _______ _______ _______ _____ _____    ______ ____
ROOT
ATOM      1  O   UNL     1      33.765 -12.513 -23.371  0.00  0.00    -0.252 OA
ATOM      2  N   UNL     1      33.757 -14.609 -22.390  0.00  0.00    -0.263 N 
ATOM      3  N   UNL     1      32.861 -12.747 -21.248  0.00  0.00    -0.252 N 
ATOM      4  N   UNL     1      32.654 -10.468 -21.918  0.00  0.00    -0.133 NA
ATOM      5  N   UNL     1      32.256  -9.192 -21.667  0.00  0.00    -0.145 NA
ATOM      6  C   UNL     1      35.625 -16.035 -23.190  0.00  0.00    +0.044 C 
ATOM      7  C   UNL     1      34.626 -16.400 -20.897  0.00  0.00    +0.044 C 
ATOM      8  C   UNL     1      34.387 -15.223 -23.568  0.00  0.00    +0.099 C 
ATOM      9  C   UNL     1      33.417 -15.550 -21.305  0.00  0.00    +0.099 C 
ATOM     10  C   UNL     1      35.283 -17.017 -22.103  0.00  0.00    -0.041 C 
ATOM     11  C   UNL     1      35.522 -18.332 -22.206  0.00  0.00    -0.008 C 
ATOM     12  C   UNL     1      33.486 -13.222 -22.400  0.00  0.00    +0.309 C 
ATOM     13  C   UNL     1      32.445 -11.419 -20.982  0.00  0.00    +0.157 C 
ATOM     14  C   UNL     1      31.840 -11.158 -19.769  0.00  0.00    +0.038 C 
ATOM     15  C   UNL     1      31.435  -9.859 -19.514  0.00  0.00    +0.025 C 
ATOM     16  C   UNL     1      31.663  -8.908 -20.489  0.00  0.00    +0.122 C 
ATOM     17  H   UNL     1      32.690 -13.409 -20.539  0.00  0.00    +0.158 HD
ENDROOT
BRANCH  11  18
ATOM     18  C   UNL     1      35.215 -19.344 -21.184  0.00  0.00    +0.002 C 
ATOM     19  C   UNL     1      36.221 -19.803 -20.334  0.00  0.00    +0.038 C 
ATOM     20  C   UNL     1      33.918 -19.843 -21.064  0.00  0.00    +0.000 C 
ATOM     21  C   UNL     1      35.929 -20.762 -19.363  0.00  0.00    +0.147 C 
ATOM     22  C   UNL     1      33.627 -20.801 -20.094  0.00  0.00    +0.003 C 
ATOM     23  C   UNL     1      34.633 -21.261 -19.243  0.00  0.00    +0.038 C 
BRANCH  21  24
ATOM     24  O   UNL     1      36.911 -21.210 -18.534  0.00  0.00    -0.436 OA
BRANCH  24  26
ATOM     25  N   UNL     1      35.320 -22.457 -17.369  0.00  0.00    -0.210 NA
ATOM     26  C   UNL     1      36.526 -21.847 -17.366  0.00  0.00    +0.230 C 
ATOM     27  C   UNL     1      37.382 -21.827 -16.277  0.00  0.00    +0.058 C 
ATOM     28  C   UNL     1      35.739 -23.113 -15.081  0.00  0.00    +0.091 C 
ATOM     29  C   UNL     1      36.974 -22.474 -15.115  0.00  0.00    +0.010 C 
ATOM     30  C   UNL     1      34.956 -23.075 -16.223  0.00  0.00    +0.106 C 
BRANCH  28  34
ATOM     31  F   UNL     1      35.136 -25.164 -14.006  0.00  0.00    -0.166 F 
ATOM     32  F   UNL     1      36.109 -23.660 -12.782  0.00  0.00    -0.166 F 
ATOM     33  F   UNL     1      34.052 -23.370 -13.425  0.00  0.00    -0.166 F 
ATOM     34  C   UNL     1      35.273 -23.812 -13.853  0.00  0.00    +0.420 C 
ENDBRANCH  28  34
ENDBRANCH  24  26
ENDBRANCH  21  24
ENDBRANCH  11  18
TORSDOF 4
ENDMDL
MODEL 8
REMARK VINA RESULT:      -9.7      6.123     11.190
REMARK  Name = 24771824
REMARK  4 active torsions:
REMARK  status: ('A' for Active; 'I' for Inactive)
REMARK    1  A    between atoms: C_11  and  C_18
REMARK    2  A    between atoms: C_21  and  O_24
REMARK    3  A    between atoms: O_24  and  C_26
REMARK    4  A    between atoms: C_28  and  C_34
REMARK                            x       y       z     vdW  Elec       q    Type
REMARK                         _______ _______ _______ _____ _____    ______ ____
ROOT
ATOM      1  O   UNL     1      35.164 -15.469 -23.849  0.00  0.00    -0.252 OA
ATOM      2  N   UNL     1      34.966 -17.131 -22.252  0.00  0.00    -0.263 N 
ATOM      3  N   UNL     1      33.897 -15.048 -21.953  0.00  0.00    -0.252 N 
ATOM      4  N   UNL     1      33.829 -13.123 -23.358  0.00  0.00    -0.133 NA
ATOM      5  N   UNL     1      33.403 -11.856 -23.611  0.00  0.00    -0.145 NA
ATOM      6  C   UNL     1      36.934 -18.643 -22.210  0.00  0.00    +0.044 C 
ATOM      7  C   UNL     1      35.542 -18.295 -20.129  0.00  0.00    +0.044 C 
ATOM      8  C   UNL     1      35.790 -18.061 -23.037  0.00  0.00    +0.099 C 
ATOM      9  C   UNL     1      34.432 -17.686 -20.992  0.00  0.00    +0.099 C 
ATOM     10  C   UNL     1      36.398 -19.235 -20.935  0.00  0.00    -0.041 C 
ATOM     11  C   UNL     1      36.641 -20.499 -20.559  0.00  0.00    -0.008 C 
ATOM     12  C   UNL     1      34.712 -15.838 -22.761  0.00  0.00    +0.309 C 
ATOM     13  C   UNL     1      33.450 -13.728 -22.212  0.00  0.00    +0.157 C 
ATOM     14  C   UNL     1      32.642 -13.119 -21.273  0.00  0.00    +0.038 C 
ATOM     15  C   UNL     1      32.208 -11.830 -21.531  0.00  0.00    +0.025 C 
ATOM     16  C   UNL     1      32.612 -11.236 -22.710  0.00  0.00    +0.122 C 
ATOM     17  H   UNL     1      33.597 -15.452 -21.106  0.00  0.00    +0.158 HD
ENDROOT
BRANCH  11  18
ATOM     18  C   UNL     1      36.149 -21.139 -19.330  0.00  0.00    +0.002 C 
ATOM     19  C   UNL     1      36.886 -21.038 -18.149  0.00  0.00    +0.038 C 
ATOM     20  C   UNL     1      34.947 -21.846 -19.343  0.00  0.00    +0.000 C 
ATOM     21  C   UNL     1      36.419 -21.644 -16.982  0.00  0.00    +0.147 C 
ATOM     22  C   UNL     1      34.481 -22.451 -18.177  0.00  0.00    +0.003 C 
ATOM     23  C   UNL     1      35.217 -22.350 -16.996  0.00  0.00    +0.038 C 
BRANCH  21  24
ATOM     24  O   UNL     1      37.137 -21.545 -15.831  0.00  0.00    -0.436 OA
BRANCH  24  26
ATOM     25  N   UNL     1      36.270 -22.826 -14.085  0.00  0.00    -0.210 NA
ATOM     26  C   UNL     1      37.225 -22.670 -15.028  0.00  0.00    +0.230 C 
ATOM     27  C   UNL     1      38.267 -23.560 -15.232  0.00  0.00    +0.058 C 
ATOM     28  C   UNL     1      37.367 -24.878 -13.432  0.00  0.00    +0.091 C 
ATOM     29  C   UNL     1      38.333 -24.683 -14.414  0.00  0.00    +0.010 C 
ATOM     30  C   UNL     1      36.366 -23.928 -13.309  0.00  0.00    +0.106 C 
BRANCH  28  34
ATOM     31  F   UNL     1      38.643 -26.298 -11.989  0.00  0.00    -0.166 F 
ATOM     32  F   UNL     1      36.558 -25.991 -11.476  0.00  0.00    -0.166 F 
ATOM     33  F   UNL     1      37.083 -27.226 -13.187  0.00  0.00    -0.166 F 
ATOM     34  C   UNL     1      37.412 -26.068 -12.540  0.00  0.00    +0.420 C 
ENDBRANCH  28  34
ENDBRANCH  24  26
ENDBRANCH  21  24
ENDBRANCH  11  18
TORSDOF 4
ENDMDL
MODEL 9
REMARK VINA RESULT:      -9.6      6.882     14.193
REMARK  Name = 24771824
REMARK  4 active torsions:
REMARK  status: ('A' for Active; 'I' for Inactive)
REMARK    1  A    between atoms: C_11  and  C_18
REMARK    2  A    between atoms: C_21  and  O_24
REMARK    3  A    between atoms: O_24  and  C_26
REMARK    4  A    between atoms: C_28  and  C_34
REMARK                            x       y       z     vdW  Elec       q    Type
REMARK                         _______ _______ _______ _____ _____    ______ ____
ROOT
ATOM      1  O   UNL     1      32.857  -4.332 -24.489  0.00  0.00    -0.252 OA
ATOM      2  N   UNL     1      32.946  -6.521 -23.747  0.00  0.00    -0.263 N 
ATOM      3  N   UNL     1      33.228  -6.019 -26.036  0.00  0.00    -0.252 N 
ATOM      4  N   UNL     1      33.239  -3.924 -27.175  0.00  0.00    -0.133 NA
ATOM      5  N   UNL     1      33.358  -3.201 -28.321  0.00  0.00    -0.145 NA
ATOM      6  C   UNL     1      31.583  -6.885 -21.704  0.00  0.00    +0.044 C 
ATOM      7  C   UNL     1      32.022  -8.789 -23.307  0.00  0.00    +0.044 C 
ATOM      8  C   UNL     1      32.733  -6.115 -22.350  0.00  0.00    +0.099 C 
ATOM      9  C   UNL     1      33.147  -7.969 -23.949  0.00  0.00    +0.099 C 
ATOM     10  C   UNL     1      31.790  -8.364 -21.881  0.00  0.00    -0.041 C 
ATOM     11  C   UNL     1      31.792  -9.228 -20.856  0.00  0.00    -0.008 C 
ATOM     12  C   UNL     1      32.991  -5.530 -24.752  0.00  0.00    +0.309 C 
ATOM     13  C   UNL     1      33.353  -5.269 -27.232  0.00  0.00    +0.157 C 
ATOM     14  C   UNL     1      33.587  -5.953 -28.408  0.00  0.00    +0.038 C 
ATOM     15  C   UNL     1      33.708  -5.216 -29.573  0.00  0.00    +0.025 C 
ATOM     16  C   UNL     1      33.587  -3.843 -29.484  0.00  0.00    +0.122 C 
ATOM     17  H   UNL     1      33.317  -6.996 -26.122  0.00  0.00    +0.158 HD
ENDROOT
BRANCH  11  18
ATOM     18  C   UNL     1      31.989 -10.682 -20.958  0.00  0.00    +0.002 C 
ATOM     19  C   UNL     1      32.789 -11.207 -21.973  0.00  0.00    +0.038 C 
ATOM     20  C   UNL     1      31.376 -11.535 -20.041  0.00  0.00    +0.000 C 
ATOM     21  C   UNL     1      32.977 -12.586 -22.070  0.00  0.00    +0.147 C 
ATOM     22  C   UNL     1      31.564 -12.914 -20.138  0.00  0.00    +0.003 C 
ATOM     23  C   UNL     1      32.365 -13.439 -21.153  0.00  0.00    +0.038 C 
BRANCH  21  24
ATOM     24  O   UNL     1      33.758 -13.098 -23.059  0.00  0.00    -0.436 OA
BRANCH  24  26
ATOM     25  N   UNL     1      34.117 -15.178 -24.053  0.00  0.00    -0.210 NA
ATOM     26  C   UNL     1      34.171 -14.414 -22.939  0.00  0.00    +0.230 C 
ATOM     27  C   UNL     1      34.610 -14.870 -21.706  0.00  0.00    +0.058 C 
ATOM     28  C   UNL     1      34.979 -17.012 -22.736  0.00  0.00    +0.091 C 
ATOM     29  C   UNL     1      35.019 -16.196 -21.610  0.00  0.00    +0.010 C 
ATOM     30  C   UNL     1      34.523 -16.461 -23.922  0.00  0.00    +0.106 C 
BRANCH  28  34
ATOM     31  F   UNL     1      35.104 -19.045 -21.479  0.00  0.00    -0.166 F 
ATOM     32  F   UNL     1      34.845 -19.229 -23.625  0.00  0.00    -0.166 F 
ATOM     33  F   UNL     1      36.758 -18.587 -22.814  0.00  0.00    -0.166 F 
ATOM     34  C   UNL     1      35.408 -18.435 -22.665  0.00  0.00    +0.420 C 
ENDBRANCH  28  34
ENDBRANCH  24  26
ENDBRANCH  21  24
ENDBRANCH  11  18
TORSDOF 4
ENDMDL
