MODEL 1
REMARK VINA RESULT:     -12.3      0.000      0.000
REMARK  Name = 46937081
REMARK  6 active torsions:
REMARK  status: ('A' for Active; 'I' for Inactive)
REMARK    1  A    between atoms: N_1  and  C_10
REMARK    2  A    between atoms: C_4  and  C_16
REMARK    3  A    between atoms: C_9  and  C_31
REMARK    4  A    between atoms: C_16  and  C_17
REMARK    5  A    between atoms: C_18  and  N_23
REMARK    6  A    between atoms: C_31  and  N_32
REMARK                            x       y       z     vdW  Elec       q    Type
REMARK                         _______ _______ _______ _____ _____    ______ ____
ROOT
ATOM      1  N   UNL     1      34.168 -23.426 -15.185  0.00  0.00    -0.267 N 
ATOM      2  N   UNL     1      35.212 -23.573 -13.015  0.00  0.00    -0.341 NA
ATOM      3  N   UNL     1      37.585 -23.033 -13.065  0.00  0.00    -0.188 NA
ATOM      4  C   UNL     1      34.563 -23.112 -16.459  0.00  0.00    +0.035 C 
ATOM      5  C   UNL     1      35.241 -23.335 -14.338  0.00  0.00    +0.199 C 
ATOM      6  C   UNL     1      36.346 -22.954 -15.088  0.00  0.00    +0.066 C 
ATOM      7  C   UNL     1      35.908 -22.815 -16.430  0.00  0.00    +0.016 C 
ATOM      8  C   UNL     1      37.549 -22.806 -14.398  0.00  0.00    +0.114 C 
ATOM      9  C   UNL     1      36.430 -23.398 -12.464  0.00  0.00    +0.042 C 
ENDROOT
BRANCH   1  10
ATOM     10  C   UNL     1      32.762 -23.817 -14.768  0.00  0.00    +0.079 C 
ATOM     11  C   UNL     1      32.767 -24.872 -13.648  0.00  0.00    +0.020 C 
ATOM     12  C   UNL     1      31.922 -22.591 -14.366  0.00  0.00    +0.020 C 
ATOM     13  C   UNL     1      31.347 -25.265 -13.244  0.00  0.00    +0.002 C 
ATOM     14  C   UNL     1      30.506 -22.993 -13.958  0.00  0.00    +0.002 C 
ATOM     15  C   UNL     1      30.515 -24.047 -12.854  0.00  0.00    +0.000 C 
ENDBRANCH   1  10
BRANCH   4  16
ATOM     16  C   UNL     1      33.597 -23.122 -17.629  0.00  0.00    +0.068 C 
BRANCH  16  17
ATOM     17  C   UNL     1      33.865 -22.062 -18.642  0.00  0.00    -0.016 C 
ATOM     18  C   UNL     1      34.366 -20.080 -20.541  0.00  0.00    +0.048 C 
ATOM     19  C   UNL     1      35.159 -21.872 -19.128  0.00  0.00    -0.003 C 
ATOM     20  C   UNL     1      32.822 -21.261 -19.106  0.00  0.00    -0.003 C 
ATOM     21  C   UNL     1      35.409 -20.882 -20.077  0.00  0.00    +0.014 C 
ATOM     22  C   UNL     1      33.072 -20.269 -20.055  0.00  0.00    +0.014 C 
BRANCH  18  23
ATOM     23  N   UNL     1      34.617 -19.086 -21.493  0.00  0.00    -0.312 N 
ATOM     24  N   UNL     1      35.381 -17.115 -23.415  0.00  0.00    +0.388 N 
ATOM     25  C   UNL     1      34.737 -19.448 -22.909  0.00  0.00    +0.068 C 
ATOM     26  C   UNL     1      35.381 -17.906 -21.073  0.00  0.00    +0.068 C 
ATOM     27  C   UNL     1      35.123 -16.733 -22.022  0.00  0.00    -0.056 C 
ATOM     28  C   UNL     1      34.501 -18.226 -23.799  0.00  0.00    -0.056 C 
ATOM     29  C   UNL     1      35.183 -15.973 -24.306  0.00  0.00    -0.101 C 
ATOM     30  H   UNL     1      36.350 -17.420 -23.499  0.00  0.00    -0.080 HD
ENDBRANCH  18  23
ENDBRANCH  16  17
ENDBRANCH   4  16
BRANCH   9  31
ATOM     31  C   UNL     1      36.516 -23.638 -10.993  0.00  0.00    +0.030 C 
BRANCH  31  32
ATOM     32  N   UNL     1      35.687 -24.766 -10.565  0.00  0.00    +0.390 N 
ATOM     33  H   UNL     1      34.828 -24.415 -10.141  0.00  0.00    -0.088 HD
ATOM     34  H   UNL     1      36.199 -25.324  -9.883  0.00  0.00    -0.088 HD
ATOM     35  H   UNL     1      35.457 -25.344 -11.373  0.00  0.00    -0.088 HD
ENDBRANCH  31  32
ENDBRANCH   9  31
TORSDOF 6
ENDMDL
MODEL 2
REMARK VINA RESULT:     -11.4      1.741      3.822
REMARK  Name = 46937081
REMARK  6 active torsions:
REMARK  status: ('A' for Active; 'I' for Inactive)
REMARK    1  A    between atoms: N_1  and  C_10
REMARK    2  A    between atoms: C_4  and  C_16
REMARK    3  A    between atoms: C_9  and  C_31
REMARK    4  A    between atoms: C_16  and  C_17
REMARK    5  A    between atoms: C_18  and  N_23
REMARK    6  A    between atoms: C_31  and  N_32
REMARK                            x       y       z     vdW  Elec       q    Type
REMARK                         _______ _______ _______ _____ _____    ______ ____
ROOT
ATOM      1  N   UNL     1      34.347 -23.367 -15.900  0.00  0.00    -0.267 N 
ATOM      2  N   UNL     1      32.672 -24.143 -14.347  0.00  0.00    -0.341 NA
ATOM      3  N   UNL     1      30.400 -23.680 -15.091  0.00  0.00    -0.188 NA
ATOM      4  C   UNL     1      34.359 -22.726 -17.111  0.00  0.00    +0.035 C 
ATOM      5  C   UNL     1      33.052 -23.546 -15.491  0.00  0.00    +0.199 C 
ATOM      6  C   UNL     1      32.217 -23.007 -16.462  0.00  0.00    +0.066 C 
ATOM      7  C   UNL     1      33.053 -22.489 -17.484  0.00  0.00    +0.016 C 
ATOM      8  C   UNL     1      30.846 -23.091 -16.225  0.00  0.00    +0.114 C 
ATOM      9  C   UNL     1      31.328 -24.163 -14.234  0.00  0.00    +0.042 C 
ENDROOT
BRANCH   1  10
ATOM     10  C   UNL     1      35.574 -23.813 -15.126  0.00  0.00    +0.079 C 
ATOM     11  C   UNL     1      35.697 -23.084 -13.777  0.00  0.00    +0.020 C 
ATOM     12  C   UNL     1      35.605 -25.339 -14.932  0.00  0.00    +0.020 C 
ATOM     13  C   UNL     1      36.941 -23.533 -13.012  0.00  0.00    +0.002 C 
ATOM     14  C   UNL     1      36.848 -25.779 -14.162  0.00  0.00    +0.002 C 
ATOM     15  C   UNL     1      36.973 -25.047 -12.828  0.00  0.00    +0.000 C 
ENDBRANCH   1  10
BRANCH   4  16
ATOM     16  C   UNL     1      35.649 -22.383 -17.831  0.00  0.00    +0.068 C 
BRANCH  16  17
ATOM     17  C   UNL     1      35.488 -21.370 -18.913  0.00  0.00    -0.016 C 
ATOM     18  C   UNL     1      35.187 -19.476 -20.939  0.00  0.00    +0.048 C 
ATOM     19  C   UNL     1      36.586 -20.620 -19.335  0.00  0.00    -0.003 C 
ATOM     20  C   UNL     1      34.241 -21.173 -19.503  0.00  0.00    -0.003 C 
ATOM     21  C   UNL     1      36.436 -19.673 -20.348  0.00  0.00    +0.014 C 
ATOM     22  C   UNL     1      34.089 -20.226 -20.516  0.00  0.00    +0.014 C 
BRANCH  18  23
ATOM     23  N   UNL     1      35.036 -18.526 -21.955  0.00  0.00    -0.312 N 
ATOM     24  N   UNL     1      34.984 -16.600 -24.064  0.00  0.00    +0.388 N 
ATOM     25  C   UNL     1      34.905 -18.965 -23.348  0.00  0.00    +0.068 C 
ATOM     26  C   UNL     1      35.645 -17.205 -21.760  0.00  0.00    +0.068 C 
ATOM     27  C   UNL     1      34.974 -16.166 -22.662  0.00  0.00    -0.056 C 
ATOM     28  C   UNL     1      34.259 -17.869 -24.198  0.00  0.00    -0.056 C 
ATOM     29  C   UNL     1      34.390 -15.576 -24.922  0.00  0.00    -0.101 C 
ATOM     30  H   UNL     1      35.950 -16.740 -24.359  0.00  0.00    -0.080 HD
ENDBRANCH  18  23
ENDBRANCH  16  17
ENDBRANCH   4  16
BRANCH   9  31
ATOM     31  C   UNL     1      30.792 -24.804 -12.997  0.00  0.00    +0.030 C 
BRANCH  31  32
ATOM     32  N   UNL     1      29.518 -25.484 -13.231  0.00  0.00    +0.390 N 
ATOM     33  H   UNL     1      28.753 -24.815 -13.138  0.00  0.00    -0.088 HD
ATOM     34  H   UNL     1      29.401 -26.231 -12.547  0.00  0.00    -0.088 HD
ATOM     35  H   UNL     1      29.512 -25.880 -14.171  0.00  0.00    -0.088 HD
ENDBRANCH  31  32
ENDBRANCH   9  31
TORSDOF 6
ENDMDL
