MODEL 1
REMARK VINA RESULT:     -11.3      0.000      0.000
REMARK  Name = 46937156
REMARK  6 active torsions:
REMARK  status: ('A' for Active; 'I' for Inactive)
REMARK    1  A    between atoms: C_5  and  O_22
REMARK    2  A    between atoms: C_7  and  O_24
REMARK    3  A    between atoms: C_8  and  O_26
REMARK    4  A    between atoms: C_9  and  C_12
REMARK    5  A    between atoms: C_10  and  C_28
REMARK    6  A    between atoms: C_28  and  O_29
REMARK                            x       y       z     vdW  Elec       q    Type
REMARK                         _______ _______ _______ _____ _____    ______ ____
ROOT
ATOM      1  O   UNL     1      36.971 -24.774 -14.993  0.00  0.00    -0.328 OA
ATOM      2  O   UNL     1      36.629 -22.470 -14.511  0.00  0.00    -0.260 OA
ATOM      3  N   UNL     1      36.794 -21.687 -15.739  0.00  0.00    -0.184 NA
ATOM      4  C   UNL     1      36.005 -23.722 -14.839  0.00  0.00    +0.234 C 
ATOM      5  C   UNL     1      34.987 -24.117 -13.763  0.00  0.00    +0.193 C 
ATOM      6  C   UNL     1      35.358 -23.479 -16.192  0.00  0.00    +0.083 C 
ATOM      7  C   UNL     1      35.682 -24.449 -12.443  0.00  0.00    +0.171 C 
ATOM      8  C   UNL     1      36.798 -25.473 -12.662  0.00  0.00    +0.169 C 
ATOM      9  C   UNL     1      36.371 -22.558 -16.843  0.00  0.00    +0.107 C 
ATOM     10  C   UNL     1      37.722 -25.041 -13.804  0.00  0.00    +0.176 C 
ATOM     11  H   UNL     1      37.771 -21.418 -15.857  0.00  0.00    +0.155 HD
ENDROOT
BRANCH   9  12
ATOM     12  C   UNL     1      35.832 -21.796 -18.029  0.00  0.00    -0.006 C 
ATOM     13  C   UNL     1      36.657 -20.910 -18.723  0.00  0.00    -0.003 C 
ATOM     14  C   UNL     1      34.510 -21.976 -18.429  0.00  0.00    -0.003 C 
ATOM     15  C   UNL     1      36.169 -20.193 -19.828  0.00  0.00    -0.000 C 
ATOM     16  C   UNL     1      34.010 -21.272 -19.523  0.00  0.00    -0.000 C 
ATOM     17  C   UNL     1      34.826 -20.377 -20.234  0.00  0.00    -0.000 C 
ATOM     18  C   UNL     1      36.985 -19.298 -20.537  0.00  0.00    -0.000 C 
ATOM     19  C   UNL     1      34.339 -19.658 -21.338  0.00  0.00    -0.000 C 
ATOM     20  C   UNL     1      36.484 -18.593 -21.632  0.00  0.00    -0.000 C 
ATOM     21  C   UNL     1      35.164 -18.773 -22.032  0.00  0.00    -0.000 C 
ENDBRANCH   9  12
BRANCH   5  22
ATOM     22  O   UNL     1      34.060 -23.056 -13.554  0.00  0.00    -0.378 OA
ATOM     23  H   UNL     1      33.221 -23.418 -13.229  0.00  0.00    +0.211 HD
ENDBRANCH   5  22
BRANCH   7  24
ATOM     24  O   UNL     1      34.712 -25.000 -11.550  0.00  0.00    -0.379 OA
ATOM     25  H   UNL     1      33.886 -24.493 -11.618  0.00  0.00    +0.211 HD
ENDBRANCH   7  24
BRANCH   8  26
ATOM     26  O   UNL     1      37.532 -25.591 -11.447  0.00  0.00    -0.379 OA
ATOM     27  H   UNL     1      38.255 -24.944 -11.441  0.00  0.00    +0.211 HD
ENDBRANCH   8  26
BRANCH  10  28
ATOM     28  C   UNL     1      38.742 -26.119 -14.156  0.00  0.00    +0.169 C 
BRANCH  28  29
ATOM     29  O   UNL     1      38.125 -27.386 -14.019  0.00  0.00    -0.379 OA
ATOM     30  H   UNL     1      37.239 -27.358 -14.414  0.00  0.00    +0.211 HD
ENDBRANCH  28  29
ENDBRANCH  10  28
TORSDOF 6
ENDMDL
MODEL 2
REMARK VINA RESULT:      -9.7     11.487     15.159
REMARK  Name = 46937156
REMARK  6 active torsions:
REMARK  status: ('A' for Active; 'I' for Inactive)
REMARK    1  A    between atoms: C_5  and  O_22
REMARK    2  A    between atoms: C_7  and  O_24
REMARK    3  A    between atoms: C_8  and  O_26
REMARK    4  A    between atoms: C_9  and  C_12
REMARK    5  A    between atoms: C_10  and  C_28
REMARK    6  A    between atoms: C_28  and  O_29
REMARK                            x       y       z     vdW  Elec       q    Type
REMARK                         _______ _______ _______ _____ _____    ______ ____
ROOT
ATOM      1  O   UNL     1      32.484  -9.230 -21.531  0.00  0.00    -0.328 OA
ATOM      2  O   UNL     1      33.989  -9.386 -23.366  0.00  0.00    -0.260 OA
ATOM      3  N   UNL     1      34.622 -10.708 -23.363  0.00  0.00    -0.184 NA
ATOM      4  C   UNL     1      32.627  -9.523 -22.929  0.00  0.00    +0.234 C 
ATOM      5  C   UNL     1      31.705  -8.605 -23.740  0.00  0.00    +0.193 C 
ATOM      6  C   UNL     1      32.311 -10.995 -23.134  0.00  0.00    +0.083 C 
ATOM      7  C   UNL     1      31.986  -7.134 -23.436  0.00  0.00    +0.171 C 
ATOM      8  C   UNL     1      31.961  -6.880 -21.927  0.00  0.00    +0.169 C 
ATOM      9  C   UNL     1      33.641 -11.633 -22.785  0.00  0.00    +0.107 C 
ATOM     10  C   UNL     1      32.845  -7.888 -21.186  0.00  0.00    +0.176 C 
ATOM     11  H   UNL     1      35.470 -10.692 -22.795  0.00  0.00    +0.155 HD
ENDROOT
BRANCH   9  12
ATOM     12  C   UNL     1      33.790 -13.049 -23.288  0.00  0.00    -0.006 C 
ATOM     13  C   UNL     1      34.436 -14.004 -22.502  0.00  0.00    -0.003 C 
ATOM     14  C   UNL     1      33.284 -13.400 -24.537  0.00  0.00    -0.003 C 
ATOM     15  C   UNL     1      34.583 -15.325 -22.957  0.00  0.00    -0.000 C 
ATOM     16  C   UNL     1      33.423 -14.707 -25.004  0.00  0.00    -0.000 C 
ATOM     17  C   UNL     1      34.069 -15.681 -24.227  0.00  0.00    -0.000 C 
ATOM     18  C   UNL     1      35.230 -16.298 -22.180  0.00  0.00    -0.000 C 
ATOM     19  C   UNL     1      34.218 -17.002 -24.681  0.00  0.00    -0.000 C 
ATOM     20  C   UNL     1      35.369 -17.606 -22.647  0.00  0.00    -0.000 C 
ATOM     21  C   UNL     1      34.863 -17.957 -23.895  0.00  0.00    -0.000 C 
ENDBRANCH   9  12
BRANCH   5  22
ATOM     22  O   UNL     1      31.883  -8.840 -25.134  0.00  0.00    -0.378 OA
ATOM     23  H   UNL     1      31.189  -9.439 -25.453  0.00  0.00    +0.211 HD
ENDBRANCH   5  22
BRANCH   7  24
ATOM     24  O   UNL     1      30.971  -6.345 -24.059  0.00  0.00    -0.379 OA
ATOM     25  H   UNL     1      30.351  -6.927 -24.528  0.00  0.00    +0.211 HD
ENDBRANCH   7  24
BRANCH   8  26
ATOM     26  O   UNL     1      32.421  -5.552 -21.696  0.00  0.00    -0.379 OA
ATOM     27  H   UNL     1      32.642  -5.134 -22.543  0.00  0.00    +0.211 HD
ENDBRANCH   8  26
BRANCH  10  28
ATOM     28  C   UNL     1      32.709  -7.766 -19.672  0.00  0.00    +0.169 C 
BRANCH  28  29
ATOM     29  O   UNL     1      33.780  -6.979 -19.185  0.00  0.00    -0.379 OA
ATOM     30  H   UNL     1      33.910  -6.214 -19.768  0.00  0.00    +0.211 HD
ENDBRANCH  28  29
ENDBRANCH  10  28
TORSDOF 6
ENDMDL
MODEL 3
REMARK VINA RESULT:      -9.2      5.322      9.136
REMARK  Name = 46937156
REMARK  6 active torsions:
REMARK  status: ('A' for Active; 'I' for Inactive)
REMARK    1  A    between atoms: C_5  and  O_22
REMARK    2  A    between atoms: C_7  and  O_24
REMARK    3  A    between atoms: C_8  and  O_26
REMARK    4  A    between atoms: C_9  and  C_12
REMARK    5  A    between atoms: C_10  and  C_28
REMARK    6  A    between atoms: C_28  and  O_29
REMARK                            x       y       z     vdW  Elec       q    Type
REMARK                         _______ _______ _______ _____ _____    ______ ____
ROOT
ATOM      1  O   UNL     1      35.015 -19.843 -22.757  0.00  0.00    -0.328 OA
ATOM      2  O   UNL     1      33.572 -19.035 -21.048  0.00  0.00    -0.260 OA
ATOM      3  N   UNL     1      33.299 -20.113 -20.093  0.00  0.00    -0.184 NA
ATOM      4  C   UNL     1      34.930 -19.151 -21.503  0.00  0.00    +0.234 C 
ATOM      5  C   UNL     1      35.573 -17.765 -21.640  0.00  0.00    +0.193 C 
ATOM      6  C   UNL     1      35.610 -20.007 -20.448  0.00  0.00    +0.083 C 
ATOM      7  C   UNL     1      34.929 -16.969 -22.775  0.00  0.00    +0.171 C 
ATOM      8  C   UNL     1      34.912 -17.787 -24.067  0.00  0.00    +0.169 C 
ATOM      9  C   UNL     1      34.495 -20.965 -20.082  0.00  0.00    +0.107 C 
ATOM     10  C   UNL     1      34.328 -19.183 -23.825  0.00  0.00    +0.176 C 
ATOM     11  H   UNL     1      32.486 -20.652 -20.391  0.00  0.00    +0.155 HD
ENDROOT
BRANCH   9  12
ATOM     12  C   UNL     1      34.706 -21.676 -18.767  0.00  0.00    -0.006 C 
ATOM     13  C   UNL     1      35.944 -21.606 -18.127  0.00  0.00    -0.003 C 
ATOM     14  C   UNL     1      33.666 -22.403 -18.194  0.00  0.00    -0.003 C 
ATOM     15  C   UNL     1      36.157 -22.262 -16.903  0.00  0.00    -0.000 C 
ATOM     16  C   UNL     1      33.860 -23.061 -16.980  0.00  0.00    -0.000 C 
ATOM     17  C   UNL     1      35.099 -23.001 -16.322  0.00  0.00    -0.000 C 
ATOM     18  C   UNL     1      37.396 -22.202 -16.246  0.00  0.00    -0.000 C 
ATOM     19  C   UNL     1      35.312 -23.658 -15.099  0.00  0.00    -0.000 C 
ATOM     20  C   UNL     1      37.590 -22.861 -15.032  0.00  0.00    -0.000 C 
ATOM     21  C   UNL     1      36.550 -23.587 -14.459  0.00  0.00    -0.000 C 
ENDBRANCH   9  12
BRANCH   5  22
ATOM     22  O   UNL     1      35.439 -17.041 -20.421  0.00  0.00    -0.378 OA
ATOM     23  H   UNL     1      34.499 -16.907 -20.226  0.00  0.00    +0.211 HD
ENDBRANCH   5  22
BRANCH   7  24
ATOM     24  O   UNL     1      35.697 -15.783 -22.984  0.00  0.00    -0.379 OA
ATOM     25  H   UNL     1      36.325 -15.671 -22.251  0.00  0.00    +0.211 HD
ENDBRANCH   7  24
BRANCH   8  26
ATOM     26  O   UNL     1      34.130 -17.081 -25.026  0.00  0.00    -0.379 OA
ATOM     27  H   UNL     1      33.500 -16.503 -24.567  0.00  0.00    +0.211 HD
ENDBRANCH   8  26
BRANCH  10  28
ATOM     28  C   UNL     1      34.451 -20.078 -25.055  0.00  0.00    +0.169 C 
BRANCH  28  29
ATOM     29  O   UNL     1      35.257 -21.193 -24.721  0.00  0.00    -0.379 OA
ATOM     30  H   UNL     1      35.612 -21.079 -23.825  0.00  0.00    +0.211 HD
ENDBRANCH  28  29
ENDBRANCH  10  28
TORSDOF 6
ENDMDL
MODEL 4
REMARK VINA RESULT:      -9.1     10.682     14.234
REMARK  Name = 46937156
REMARK  6 active torsions:
REMARK  status: ('A' for Active; 'I' for Inactive)
REMARK    1  A    between atoms: C_5  and  O_22
REMARK    2  A    between atoms: C_7  and  O_24
REMARK    3  A    between atoms: C_8  and  O_26
REMARK    4  A    between atoms: C_9  and  C_12
REMARK    5  A    between atoms: C_10  and  C_28
REMARK    6  A    between atoms: C_28  and  O_29
REMARK                            x       y       z     vdW  Elec       q    Type
REMARK                         _______ _______ _______ _____ _____    ______ ____
ROOT
ATOM      1  O   UNL     1      32.966 -13.716 -23.916  0.00  0.00    -0.328 OA
ATOM      2  O   UNL     1      34.710 -12.269 -23.195  0.00  0.00    -0.260 OA
ATOM      3  N   UNL     1      34.312 -10.877 -23.423  0.00  0.00    -0.184 NA
ATOM      4  C   UNL     1      33.553 -13.025 -22.803  0.00  0.00    +0.234 C 
ATOM      5  C   UNL     1      33.914 -14.035 -21.707  0.00  0.00    +0.193 C 
ATOM      6  C   UNL     1      32.562 -11.977 -22.326  0.00  0.00    +0.083 C 
ATOM      7  C   UNL     1      34.834 -15.129 -22.247  0.00  0.00    +0.171 C 
ATOM      8  C   UNL     1      34.245 -15.755 -23.513  0.00  0.00    +0.169 C 
ATOM      9  C   UNL     1      32.851 -10.839 -23.285  0.00  0.00    +0.107 C 
ATOM     10  C   UNL     1      33.839 -14.675 -24.521  0.00  0.00    +0.176 C 
ATOM     11  H   UNL     1      34.585 -10.581 -24.361  0.00  0.00    +0.155 HD
ENDROOT
BRANCH   9  12
ATOM     12  C   UNL     1      32.333  -9.500 -22.819  0.00  0.00    -0.006 C 
ATOM     13  C   UNL     1      32.015  -8.512 -23.751  0.00  0.00    -0.003 C 
ATOM     14  C   UNL     1      32.174  -9.251 -21.458  0.00  0.00    -0.003 C 
ATOM     15  C   UNL     1      31.533  -7.261 -23.333  0.00  0.00    -0.000 C 
ATOM     16  C   UNL     1      31.697  -8.014 -21.026  0.00  0.00    -0.000 C 
ATOM     17  C   UNL     1      31.372  -7.008 -21.950  0.00  0.00    -0.000 C 
ATOM     18  C   UNL     1      31.208  -6.255 -24.257  0.00  0.00    -0.000 C 
ATOM     19  C   UNL     1      30.890  -5.756 -21.532  0.00  0.00    -0.000 C 
ATOM     20  C   UNL     1      30.731  -5.018 -23.825  0.00  0.00    -0.000 C 
ATOM     21  C   UNL     1      30.572  -4.769 -22.465  0.00  0.00    -0.000 C 
ENDBRANCH   9  12
BRANCH   5  22
ATOM     22  O   UNL     1      34.556 -13.371 -20.622  0.00  0.00    -0.378 OA
ATOM     23  H   UNL     1      34.522 -12.412 -20.764  0.00  0.00    +0.211 HD
ENDBRANCH   5  22
BRANCH   7  24
ATOM     24  O   UNL     1      34.967 -16.139 -21.246  0.00  0.00    -0.379 OA
ATOM     25  H   UNL     1      34.227 -16.763 -21.316  0.00  0.00    +0.211 HD
ENDBRANCH   7  24
BRANCH   8  26
ATOM     26  O   UNL     1      35.228 -16.617 -24.077  0.00  0.00    -0.379 OA
ATOM     27  H   UNL     1      36.090 -16.173 -24.071  0.00  0.00    +0.211 HD
ENDBRANCH   8  26
BRANCH  10  28
ATOM     28  C   UNL     1      33.097 -15.258 -25.720  0.00  0.00    +0.169 C 
BRANCH  28  29
ATOM     29  O   UNL     1      32.850 -16.630 -25.473  0.00  0.00    -0.379 OA
ATOM     30  H   UNL     1      31.930 -16.839 -25.698  0.00  0.00    +0.211 HD
ENDBRANCH  28  29
ENDBRANCH  10  28
TORSDOF 6
ENDMDL
MODEL 5
REMARK VINA RESULT:      -8.9      9.980     13.700
REMARK  Name = 46937156
REMARK  6 active torsions:
REMARK  status: ('A' for Active; 'I' for Inactive)
REMARK    1  A    between atoms: C_5  and  O_22
REMARK    2  A    between atoms: C_7  and  O_24
REMARK    3  A    between atoms: C_8  and  O_26
REMARK    4  A    between atoms: C_9  and  C_12
REMARK    5  A    between atoms: C_10  and  C_28
REMARK    6  A    between atoms: C_28  and  O_29
REMARK                            x       y       z     vdW  Elec       q    Type
REMARK                         _______ _______ _______ _____ _____    ______ ____
ROOT
ATOM      1  O   UNL     1      34.487 -10.834 -23.038  0.00  0.00    -0.328 OA
ATOM      2  O   UNL     1      32.848 -12.015 -24.294  0.00  0.00    -0.260 OA
ATOM      3  N   UNL     1      33.396 -13.309 -24.711  0.00  0.00    -0.184 NA
ATOM      4  C   UNL     1      33.345 -11.702 -22.982  0.00  0.00    +0.234 C 
ATOM      5  C   UNL     1      32.249 -11.049 -22.131  0.00  0.00    +0.193 C 
ATOM      6  C   UNL     1      33.799 -13.039 -22.422  0.00  0.00    +0.083 C 
ATOM      7  C   UNL     1      31.886  -9.665 -22.668  0.00  0.00    +0.171 C 
ATOM      8  C   UNL     1      33.141  -8.808 -22.846  0.00  0.00    +0.169 C 
ATOM      9  C   UNL     1      34.345 -13.711 -23.666  0.00  0.00    +0.107 C 
ATOM     10  C   UNL     1      34.214  -9.563 -23.638  0.00  0.00    +0.176 C 
ATOM     11  H   UNL     1      33.875 -13.217 -25.607  0.00  0.00    +0.155 HD
ENDROOT
BRANCH   9  12
ATOM     12  C   UNL     1      34.491 -15.208 -23.538  0.00  0.00    -0.006 C 
ATOM     13  C   UNL     1      34.974 -15.763 -22.353  0.00  0.00    -0.003 C 
ATOM     14  C   UNL     1      34.145 -16.033 -24.605  0.00  0.00    -0.003 C 
ATOM     15  C   UNL     1      35.116 -17.154 -22.220  0.00  0.00    -0.000 C 
ATOM     16  C   UNL     1      34.280 -17.417 -24.489  0.00  0.00    -0.000 C 
ATOM     17  C   UNL     1      34.764 -17.993 -23.304  0.00  0.00    -0.000 C 
ATOM     18  C   UNL     1      35.601 -17.730 -21.035  0.00  0.00    -0.000 C 
ATOM     19  C   UNL     1      34.907 -19.384 -23.170  0.00  0.00    -0.000 C 
ATOM     20  C   UNL     1      35.737 -19.114 -20.920  0.00  0.00    -0.000 C 
ATOM     21  C   UNL     1      35.390 -19.939 -21.985  0.00  0.00    -0.000 C 
ENDBRANCH   9  12
BRANCH   5  22
ATOM     22  O   UNL     1      31.085 -11.870 -22.120  0.00  0.00    -0.378 OA
ATOM     23  H   UNL     1      31.220 -12.614 -21.513  0.00  0.00    +0.211 HD
ENDBRANCH   5  22
BRANCH   7  24
ATOM     24  O   UNL     1      31.018  -9.031 -21.727  0.00  0.00    -0.379 OA
ATOM     25  H   UNL     1      31.542  -8.685 -20.986  0.00  0.00    +0.211 HD
ENDBRANCH   7  24
BRANCH   8  26
ATOM     26  O   UNL     1      32.768  -7.615 -23.529  0.00  0.00    -0.379 OA
ATOM     27  H   UNL     1      33.502  -7.321 -24.091  0.00  0.00    +0.211 HD
ENDBRANCH   8  26
BRANCH  10  28
ATOM     28  C   UNL     1      35.535  -8.801 -23.687  0.00  0.00    +0.169 C 
BRANCH  28  29
ATOM     29  O   UNL     1      35.436  -7.674 -22.836  0.00  0.00    -0.379 OA
ATOM     30  H   UNL     1      36.213  -7.639 -22.255  0.00  0.00    +0.211 HD
ENDBRANCH  28  29
ENDBRANCH  10  28
TORSDOF 6
ENDMDL
MODEL 6
REMARK VINA RESULT:      -8.8     12.180     16.263
REMARK  Name = 46937156
REMARK  6 active torsions:
REMARK  status: ('A' for Active; 'I' for Inactive)
REMARK    1  A    between atoms: C_5  and  O_22
REMARK    2  A    between atoms: C_7  and  O_24
REMARK    3  A    between atoms: C_8  and  O_26
REMARK    4  A    between atoms: C_9  and  C_12
REMARK    5  A    between atoms: C_10  and  C_28
REMARK    6  A    between atoms: C_28  and  O_29
REMARK                            x       y       z     vdW  Elec       q    Type
REMARK                         _______ _______ _______ _____ _____    ______ ____
ROOT
ATOM      1  O   UNL     1      32.033  -7.518 -23.446  0.00  0.00    -0.328 OA
ATOM      2  O   UNL     1      31.282  -8.850 -21.625  0.00  0.00    -0.260 OA
ATOM      3  N   UNL     1      31.327 -10.264 -22.006  0.00  0.00    -0.184 NA
ATOM      4  C   UNL     1      32.399  -8.172 -22.221  0.00  0.00    +0.234 C 
ATOM      5  C   UNL     1      32.988  -7.142 -21.249  0.00  0.00    +0.193 C 
ATOM      6  C   UNL     1      33.379  -9.283 -22.558  0.00  0.00    +0.083 C 
ATOM      7  C   UNL     1      32.012  -5.990 -21.009  0.00  0.00    +0.171 C 
ATOM      8  C   UNL     1      31.535  -5.402 -22.338  0.00  0.00    +0.169 C 
ATOM      9  C   UNL     1      32.435 -10.397 -22.961  0.00  0.00    +0.107 C 
ATOM     10  C   UNL     1      31.037  -6.503 -23.279  0.00  0.00    +0.176 C 
ATOM     11  H   UNL     1      30.449 -10.541 -22.445  0.00  0.00    +0.155 HD
ENDROOT
BRANCH   9  12
ATOM     12  C   UNL     1      33.067 -11.768 -22.951  0.00  0.00    -0.006 C 
ATOM     13  C   UNL     1      33.314 -12.414 -21.739  0.00  0.00    -0.003 C 
ATOM     14  C   UNL     1      33.406 -12.386 -24.152  0.00  0.00    -0.003 C 
ATOM     15  C   UNL     1      33.903 -13.689 -21.714  0.00  0.00    -0.000 C 
ATOM     16  C   UNL     1      33.992 -13.652 -24.145  0.00  0.00    -0.000 C 
ATOM     17  C   UNL     1      34.247 -14.317 -22.935  0.00  0.00    -0.000 C 
ATOM     18  C   UNL     1      34.159 -14.353 -20.504  0.00  0.00    -0.000 C 
ATOM     19  C   UNL     1      34.836 -15.592 -22.909  0.00  0.00    -0.000 C 
ATOM     20  C   UNL     1      34.745 -15.619 -20.497  0.00  0.00    -0.000 C 
ATOM     21  C   UNL     1      35.083 -16.237 -21.696  0.00  0.00    -0.000 C 
ENDBRANCH   9  12
BRANCH   5  22
ATOM     22  O   UNL     1      33.296  -7.765 -20.005  0.00  0.00    -0.378 OA
ATOM     23  H   UNL     1      33.656  -7.105 -19.393  0.00  0.00    +0.211 HD
ENDBRANCH   5  22
BRANCH   7  24
ATOM     24  O   UNL     1      32.690  -4.976 -20.266  0.00  0.00    -0.379 OA
ATOM     25  H   UNL     1      32.121  -4.673 -19.540  0.00  0.00    +0.211 HD
ENDBRANCH   7  24
BRANCH   8  26
ATOM     26  O   UNL     1      30.488  -4.476 -22.060  0.00  0.00    -0.379 OA
ATOM     27  H   UNL     1      30.077  -4.699 -21.210  0.00  0.00    +0.211 HD
ENDBRANCH   8  26
BRANCH  10  28
ATOM     28  C   UNL     1      30.712  -5.967 -24.670  0.00  0.00    +0.169 C 
BRANCH  28  29
ATOM     29  O   UNL     1      31.358  -4.718 -24.834  0.00  0.00    -0.379 OA
ATOM     30  H   UNL     1      31.980  -4.772 -25.576  0.00  0.00    +0.211 HD
ENDBRANCH  28  29
ENDBRANCH  10  28
TORSDOF 6
ENDMDL
MODEL 7
REMARK VINA RESULT:      -8.6     11.862     15.769
REMARK  Name = 46937156
REMARK  6 active torsions:
REMARK  status: ('A' for Active; 'I' for Inactive)
REMARK    1  A    between atoms: C_5  and  O_22
REMARK    2  A    between atoms: C_7  and  O_24
REMARK    3  A    between atoms: C_8  and  O_26
REMARK    4  A    between atoms: C_9  and  C_12
REMARK    5  A    between atoms: C_10  and  C_28
REMARK    6  A    between atoms: C_28  and  O_29
REMARK                            x       y       z     vdW  Elec       q    Type
REMARK                         _______ _______ _______ _____ _____    ______ ____
ROOT
ATOM      1  O   UNL     1      31.847  -8.233 -23.282  0.00  0.00    -0.328 OA
ATOM      2  O   UNL     1      31.211  -9.455 -21.343  0.00  0.00    -0.260 OA
ATOM      3  N   UNL     1      31.301 -10.891 -21.624  0.00  0.00    -0.184 NA
ATOM      4  C   UNL     1      32.279  -8.781 -22.027  0.00  0.00    +0.234 C 
ATOM      5  C   UNL     1      32.858  -7.661 -21.154  0.00  0.00    +0.193 C 
ATOM      6  C   UNL     1      33.291  -9.876 -22.318  0.00  0.00    +0.083 C 
ATOM      7  C   UNL     1      31.846  -6.533 -20.963  0.00  0.00    +0.171 C 
ATOM      8  C   UNL     1      31.301  -6.062 -22.312  0.00  0.00    +0.169 C 
ATOM      9  C   UNL     1      32.380 -11.052 -22.606  0.00  0.00    +0.107 C 
ATOM     10  C   UNL     1      30.817  -7.247 -23.153  0.00  0.00    +0.176 C 
ATOM     11  H   UNL     1      30.420 -11.232 -22.009  0.00  0.00    +0.155 HD
ENDROOT
BRANCH   9  12
ATOM     12  C   UNL     1      33.067 -12.394 -22.520  0.00  0.00    -0.006 C 
ATOM     13  C   UNL     1      33.131 -13.218 -23.644  0.00  0.00    -0.003 C 
ATOM     14  C   UNL     1      33.634 -12.809 -21.318  0.00  0.00    -0.003 C 
ATOM     15  C   UNL     1      33.766 -14.469 -23.580  0.00  0.00    -0.000 C 
ATOM     16  C   UNL     1      34.268 -14.049 -21.237  0.00  0.00    -0.000 C 
ATOM     17  C   UNL     1      34.343 -14.890 -22.358  0.00  0.00    -0.000 C 
ATOM     18  C   UNL     1      33.839 -15.311 -24.701  0.00  0.00    -0.000 C 
ATOM     19  C   UNL     1      34.976 -16.142 -22.294  0.00  0.00    -0.000 C 
ATOM     20  C   UNL     1      34.473 -16.551 -24.619  0.00  0.00    -0.000 C 
ATOM     21  C   UNL     1      35.041 -16.966 -23.419  0.00  0.00    -0.000 C 
ENDBRANCH   9  12
BRANCH   5  22
ATOM     22  O   UNL     1      33.233  -8.179 -19.881  0.00  0.00    -0.378 OA
ATOM     23  H   UNL     1      34.014  -7.705 -19.555  0.00  0.00    +0.211 HD
ENDBRANCH   5  22
BRANCH   7  24
ATOM     24  O   UNL     1      32.507  -5.441 -20.320  0.00  0.00    -0.379 OA
ATOM     25  H   UNL     1      32.939  -5.757 -19.510  0.00  0.00    +0.211 HD
ENDBRANCH   7  24
BRANCH   8  26
ATOM     26  O   UNL     1      30.228  -5.158 -22.063  0.00  0.00    -0.379 OA
ATOM     27  H   UNL     1      29.642  -5.530 -21.385  0.00  0.00    +0.211 HD
ENDBRANCH   8  26
BRANCH  10  28
ATOM     28  C   UNL     1      30.424  -6.827 -24.566  0.00  0.00    +0.169 C 
BRANCH  28  29
ATOM     29  O   UNL     1      30.884  -5.507 -24.788  0.00  0.00    -0.379 OA
ATOM     30  H   UNL     1      31.065  -5.080 -23.936  0.00  0.00    +0.211 HD
ENDBRANCH  28  29
ENDBRANCH  10  28
TORSDOF 6
ENDMDL
MODEL 8
REMARK VINA RESULT:      -8.5     13.630     17.726
REMARK  Name = 46937156
REMARK  6 active torsions:
REMARK  status: ('A' for Active; 'I' for Inactive)
REMARK    1  A    between atoms: C_5  and  O_22
REMARK    2  A    between atoms: C_7  and  O_24
REMARK    3  A    between atoms: C_8  and  O_26
REMARK    4  A    between atoms: C_9  and  C_12
REMARK    5  A    between atoms: C_10  and  C_28
REMARK    6  A    between atoms: C_28  and  O_29
REMARK                            x       y       z     vdW  Elec       q    Type
REMARK                         _______ _______ _______ _____ _____    ______ ____
ROOT
ATOM      1  O   UNL     1      32.262  -6.215 -24.142  0.00  0.00    -0.328 OA
ATOM      2  O   UNL     1      30.563  -7.457 -23.035  0.00  0.00    -0.260 OA
ATOM      3  N   UNL     1      30.775  -8.888 -23.271  0.00  0.00    -0.184 NA
ATOM      4  C   UNL     1      31.841  -6.813 -22.907  0.00  0.00    +0.234 C 
ATOM      5  C   UNL     1      31.799  -5.742 -21.810  0.00  0.00    +0.193 C 
ATOM      6  C   UNL     1      32.802  -7.943 -22.582  0.00  0.00    +0.083 C 
ATOM      7  C   UNL     1      30.898  -4.575 -22.213  0.00  0.00    +0.171 C 
ATOM      8  C   UNL     1      31.286  -4.047 -23.596  0.00  0.00    +0.169 C 
ATOM      9  C   UNL     1      32.225  -9.071 -23.414  0.00  0.00    +0.107 C 
ATOM     10  C   UNL     1      31.382  -5.189 -24.612  0.00  0.00    +0.176 C 
ATOM     11  H   UNL     1      30.297  -9.179 -24.124  0.00  0.00    +0.155 HD
ENDROOT
BRANCH   9  12
ATOM     12  C   UNL     1      32.695 -10.443 -22.995  0.00  0.00    -0.006 C 
ATOM     13  C   UNL     1      32.173 -11.038 -21.846  0.00  0.00    -0.003 C 
ATOM     14  C   UNL     1      33.651 -11.112 -23.754  0.00  0.00    -0.003 C 
ATOM     15  C   UNL     1      32.601 -12.314 -21.443  0.00  0.00    -0.000 C 
ATOM     16  C   UNL     1      34.088 -12.379 -23.368  0.00  0.00    -0.000 C 
ATOM     17  C   UNL     1      33.573 -12.994 -22.215  0.00  0.00    -0.000 C 
ATOM     18  C   UNL     1      32.087 -12.928 -20.290  0.00  0.00    -0.000 C 
ATOM     19  C   UNL     1      34.001 -14.269 -21.811  0.00  0.00    -0.000 C 
ATOM     20  C   UNL     1      32.524 -14.196 -19.903  0.00  0.00    -0.000 C 
ATOM     21  C   UNL     1      33.479 -14.865 -20.662  0.00  0.00    -0.000 C 
ENDBRANCH   9  12
BRANCH   5  22
ATOM     22  O   UNL     1      31.321  -6.308 -20.593  0.00  0.00    -0.378 OA
ATOM     23  H   UNL     1      30.401  -6.034 -20.448  0.00  0.00    +0.211 HD
ENDBRANCH   5  22
BRANCH   7  24
ATOM     24  O   UNL     1      31.060  -3.531 -21.252  0.00  0.00    -0.379 OA
ATOM     25  H   UNL     1      30.588  -2.738 -21.555  0.00  0.00    +0.211 HD
ENDBRANCH   7  24
BRANCH   8  26
ATOM     26  O   UNL     1      30.298  -3.104 -24.000  0.00  0.00    -0.379 OA
ATOM     27  H   UNL     1      29.479  -3.259 -23.502  0.00  0.00    +0.211 HD
ENDBRANCH   8  26
BRANCH  10  28
ATOM     28  C   UNL     1      31.928  -4.716 -25.956  0.00  0.00    +0.169 C 
BRANCH  28  29
ATOM     29  O   UNL     1      32.547  -3.456 -25.774  0.00  0.00    -0.379 OA
ATOM     30  H   UNL     1      31.948  -2.755 -26.076  0.00  0.00    +0.211 HD
ENDBRANCH  28  29
ENDBRANCH  10  28
TORSDOF 6
ENDMDL
MODEL 9
REMARK VINA RESULT:      -8.4     14.792     18.797
REMARK  Name = 46937156
REMARK  6 active torsions:
REMARK  status: ('A' for Active; 'I' for Inactive)
REMARK    1  A    between atoms: C_5  and  O_22
REMARK    2  A    between atoms: C_7  and  O_24
REMARK    3  A    between atoms: C_8  and  O_26
REMARK    4  A    between atoms: C_9  and  C_12
REMARK    5  A    between atoms: C_10  and  C_28
REMARK    6  A    between atoms: C_28  and  O_29
REMARK                            x       y       z     vdW  Elec       q    Type
REMARK                         _______ _______ _______ _____ _____    ______ ____
ROOT
ATOM      1  O   UNL     1      30.667  -4.795 -22.310  0.00  0.00    -0.328 OA
ATOM      2  O   UNL     1      32.861  -5.682 -22.551  0.00  0.00    -0.260 OA
ATOM      3  N   UNL     1      33.083  -6.711 -21.532  0.00  0.00    -0.184 NA
ATOM      4  C   UNL     1      31.495  -5.750 -22.991  0.00  0.00    +0.234 C 
ATOM      5  C   UNL     1      31.403  -5.519 -24.504  0.00  0.00    +0.193 C 
ATOM      6  C   UNL     1      31.037  -7.140 -22.584  0.00  0.00    +0.083 C 
ATOM      7  C   UNL     1      31.777  -4.083 -24.866  0.00  0.00    +0.171 C 
ATOM      8  C   UNL     1      30.974  -3.087 -24.026  0.00  0.00    +0.169 C 
ATOM      9  C   UNL     1      31.774  -7.322 -21.272  0.00  0.00    +0.107 C 
ATOM     10  C   UNL     1      31.056  -3.436 -22.536  0.00  0.00    +0.176 C 
ATOM     11  H   UNL     1      33.451  -6.291 -20.679  0.00  0.00    +0.155 HD
ENDROOT
BRANCH   9  12
ATOM     12  C   UNL     1      31.867  -8.759 -20.817  0.00  0.00    -0.006 C 
ATOM     13  C   UNL     1      32.005  -9.781 -21.757  0.00  0.00    -0.003 C 
ATOM     14  C   UNL     1      31.813  -9.062 -19.459  0.00  0.00    -0.003 C 
ATOM     15  C   UNL     1      32.092 -11.122 -21.349  0.00  0.00    -0.000 C 
ATOM     16  C   UNL     1      31.897 -10.389 -19.037  0.00  0.00    -0.000 C 
ATOM     17  C   UNL     1      32.037 -11.430 -19.968  0.00  0.00    -0.000 C 
ATOM     18  C   UNL     1      32.231 -12.162 -22.280  0.00  0.00    -0.000 C 
ATOM     19  C   UNL     1      32.124 -12.772 -19.561  0.00  0.00    -0.000 C 
ATOM     20  C   UNL     1      32.316 -13.490 -21.858  0.00  0.00    -0.000 C 
ATOM     21  C   UNL     1      32.262 -13.794 -20.501  0.00  0.00    -0.000 C 
ENDBRANCH   9  12
BRANCH   5  22
ATOM     22  O   UNL     1      32.269  -6.419 -25.190  0.00  0.00    -0.378 OA
ATOM     23  H   UNL     1      32.733  -5.946 -25.898  0.00  0.00    +0.211 HD
ENDBRANCH   5  22
BRANCH   7  24
ATOM     24  O   UNL     1      31.478  -3.875 -26.247  0.00  0.00    -0.379 OA
ATOM     25  H   UNL     1      31.161  -2.966 -26.377  0.00  0.00    +0.211 HD
ENDBRANCH   7  24
BRANCH   8  26
ATOM     26  O   UNL     1      31.502  -1.786 -24.261  0.00  0.00    -0.379 OA
ATOM     27  H   UNL     1      31.389  -1.554 -25.196  0.00  0.00    +0.211 HD
ENDBRANCH   8  26
BRANCH  10  28
ATOM     28  C   UNL     1      30.132  -2.563 -21.692  0.00  0.00    +0.169 C 
BRANCH  28  29
ATOM     29  O   UNL     1      29.229  -1.896 -22.554  0.00  0.00    -0.379 OA
ATOM     30  H   UNL     1      28.928  -1.075 -22.134  0.00  0.00    +0.211 HD
ENDBRANCH  28  29
ENDBRANCH  10  28
TORSDOF 6
ENDMDL
