MODEL 1
REMARK VINA RESULT:     -10.4      0.000      0.000
REMARK  Name = 6918331
REMARK  7 active torsions:
REMARK  status: ('A' for Active; 'I' for Inactive)
REMARK    1  A    between atoms: C_1  and  C_2
REMARK    2  A    between atoms: C_1  and  N_19
REMARK    3  A    between atoms: C_3  and  O_17
REMARK    4  A    between atoms: C_5  and  N_8
REMARK    5  A    between atoms: C_12  and  C_16
REMARK    6  A    between atoms: N_19  and  C_23
REMARK    7  A    between atoms: C_24  and  C_30
REMARK                            x       y       z     vdW  Elec       q    Type
REMARK                         _______ _______ _______ _____ _____    ______ ____
ROOT
ATOM      1  C   UNL     1      31.153 -11.201 -22.128  0.00  0.00    -0.051 C 
ENDROOT
BRANCH   1   2
ATOM      2  C   UNL     1      31.497  -9.803 -21.685  0.00  0.00    -0.008 C 
ATOM      3  C   UNL     1      31.507  -9.481 -20.333  0.00  0.00    +0.133 C 
ATOM      4  C   UNL     1      31.802  -8.851 -22.647  0.00  0.00    +0.016 C 
ATOM      5  C   UNL     1      32.124  -7.553 -22.253  0.00  0.00    +0.086 C 
ATOM      6  C   UNL     1      31.828  -8.182 -19.939  0.00  0.00    +0.038 C 
ATOM      7  C   UNL     1      32.137  -7.218 -20.898  0.00  0.00    +0.022 C 
BRANCH   5   8
ATOM      8  N   UNL     1      32.430  -6.596 -23.203  0.00  0.00    -0.188 N 
ATOM      9  N   UNL     1      31.484  -5.826 -23.768  0.00  0.00    -0.039 NA
ATOM     10  N   UNL     1      33.487  -5.305 -24.598  0.00  0.00    -0.104 NA
ATOM     11  N   UNL     1      32.135  -5.042 -24.617  0.00  0.00    -0.022 NA
ATOM     12  C   UNL     1      33.647  -6.267 -23.719  0.00  0.00    +0.260 A 
BRANCH  12  16
ATOM     13  F   UNL     1      35.058  -7.027 -21.969  0.00  0.00    -0.163 F 
ATOM     14  F   UNL     1      35.044  -8.184 -23.809  0.00  0.00    -0.163 F 
ATOM     15  F   UNL     1      36.003  -6.227 -23.764  0.00  0.00    -0.163 F 
ATOM     16  C   UNL     1      34.909  -6.915 -23.323  0.00  0.00    +0.454 C 
ENDBRANCH  12  16
ENDBRANCH   5   8
BRANCH   3  17
ATOM     17  O   UNL     1      31.208 -10.410 -19.383  0.00  0.00    -0.472 OA
ATOM     18  C   UNL     1      31.854 -10.276 -18.119  0.00  0.00    +0.252 C 
ENDBRANCH   3  17
ENDBRANCH   1   2
BRANCH   1  19
ATOM     19  N   UNL     1      32.332 -11.942 -22.545  0.00  0.00    +0.387 N 
ATOM     20  H   UNL     1      32.065 -12.630 -23.249  0.00  0.00    -0.084 HD
ATOM     21  H   UNL     1      33.012 -11.287 -22.929  0.00  0.00    -0.084 HD
BRANCH  19  23
ATOM     22  N   UNL     1      34.690 -14.219 -20.631  0.00  0.00    +0.386 N 
ATOM     23  C   UNL     1      32.935 -12.633 -21.405  0.00  0.00    -0.077 C 
ATOM     24  C   UNL     1      34.158 -13.503 -21.812  0.00  0.00    -0.058 C 
ATOM     25  C   UNL     1      31.871 -13.393 -20.601  0.00  0.00    -0.025 C 
ATOM     26  C   UNL     1      32.512 -14.179 -19.462  0.00  0.00    -0.026 C 
ATOM     27  C   UNL     1      33.673 -15.032 -19.961  0.00  0.00    -0.081 C 
ATOM     28  H   UNL     1      35.048 -13.532 -19.967  0.00  0.00    -0.084 HD
ATOM     29  H   UNL     1      35.425 -14.847 -20.955  0.00  0.00    -0.084 HD
BRANCH  24  30
ATOM     30  C   UNL     1      34.082 -14.430 -23.023  0.00  0.00    -0.044 C 
ATOM     31  C   UNL     1      34.849 -15.591 -23.053  0.00  0.00    -0.006 C 
ATOM     32  C   UNL     1      33.247 -14.107 -24.087  0.00  0.00    -0.006 C 
ATOM     33  C   UNL     1      34.781 -16.437 -24.159  0.00  0.00    -0.000 C 
ATOM     34  C   UNL     1      33.178 -14.955 -25.193  0.00  0.00    -0.000 C 
ATOM     35  C   UNL     1      33.945 -16.120 -25.229  0.00  0.00    -0.000 C 
ENDBRANCH  24  30
ENDBRANCH  19  23
ENDBRANCH   1  19
TORSDOF 7
ENDMDL
MODEL 2
REMARK VINA RESULT:     -10.3      4.953      9.382
REMARK  Name = 6918331
REMARK  7 active torsions:
REMARK  status: ('A' for Active; 'I' for Inactive)
REMARK    1  A    between atoms: C_1  and  C_2
REMARK    2  A    between atoms: C_1  and  N_19
REMARK    3  A    between atoms: C_3  and  O_17
REMARK    4  A    between atoms: C_5  and  N_8
REMARK    5  A    between atoms: C_12  and  C_16
REMARK    6  A    between atoms: N_19  and  C_23
REMARK    7  A    between atoms: C_24  and  C_30
REMARK                            x       y       z     vdW  Elec       q    Type
REMARK                         _______ _______ _______ _____ _____    ______ ____
ROOT
ATOM      1  C   UNL     1      33.943 -14.171 -21.384  0.00  0.00    -0.051 C 
ENDROOT
BRANCH   1   2
ATOM      2  C   UNL     1      34.477 -15.441 -21.992  0.00  0.00    -0.008 C 
ATOM      3  C   UNL     1      34.448 -15.623 -23.369  0.00  0.00    +0.133 C 
ATOM      4  C   UNL     1      34.996 -16.419 -21.155  0.00  0.00    +0.016 C 
ATOM      5  C   UNL     1      35.495 -17.601 -21.703  0.00  0.00    +0.086 C 
ATOM      6  C   UNL     1      34.947 -16.806 -23.917  0.00  0.00    +0.038 C 
ATOM      7  C   UNL     1      35.470 -17.794 -23.084  0.00  0.00    +0.022 C 
BRANCH   5   8
ATOM      8  N   UNL     1      36.014 -18.582 -20.877  0.00  0.00    -0.188 N 
ATOM      9  N   UNL     1      37.292 -18.559 -20.462  0.00  0.00    -0.039 NA
ATOM     10  N   UNL     1      36.251 -20.347 -19.630  0.00  0.00    -0.104 NA
ATOM     11  N   UNL     1      37.429 -19.638 -19.702  0.00  0.00    -0.022 NA
ATOM     12  C   UNL     1      35.390 -19.678 -20.362  0.00  0.00    +0.260 A 
BRANCH  12  16
ATOM     13  F   UNL     1      33.623 -21.243 -20.137  0.00  0.00    -0.163 F 
ATOM     14  F   UNL     1      33.102 -19.135 -20.045  0.00  0.00    -0.163 F 
ATOM     15  F   UNL     1      33.682 -20.029 -21.947  0.00  0.00    -0.163 F 
ATOM     16  C   UNL     1      33.979 -20.014 -20.614  0.00  0.00    +0.454 C 
ENDBRANCH  12  16
ENDBRANCH   5   8
BRANCH   3  17
ATOM     17  O   UNL     1      33.940 -14.668 -24.198  0.00  0.00    -0.472 OA
ATOM     18  C   UNL     1      33.286 -15.118 -25.382  0.00  0.00    +0.252 C 
ENDBRANCH   3  17
ENDBRANCH   1   2
BRANCH   1  19
ATOM     19  N   UNL     1      32.772 -13.682 -22.094  0.00  0.00    +0.387 N 
ATOM     20  H   UNL     1      33.071 -13.179 -22.929  0.00  0.00    -0.084 HD
ATOM     21  H   UNL     1      32.188 -14.478 -22.351  0.00  0.00    -0.084 HD
BRANCH  19  23
ATOM     22  N   UNL     1      30.979 -10.523 -20.997  0.00  0.00    +0.386 N 
ATOM     23  C   UNL     1      31.994 -12.782 -21.244  0.00  0.00    -0.077 C 
ATOM     24  C   UNL     1      31.719 -11.408 -21.922  0.00  0.00    -0.058 C 
ATOM     25  C   UNL     1      32.619 -12.671 -19.847  0.00  0.00    -0.025 C 
ATOM     26  C   UNL     1      31.854 -11.668 -18.989  0.00  0.00    -0.026 C 
ATOM     27  C   UNL     1      31.669 -10.342 -19.718  0.00  0.00    -0.081 C 
ATOM     28  H   UNL     1      30.061 -10.930 -20.818  0.00  0.00    -0.084 HD
ATOM     29  H   UNL     1      30.903  -9.607 -21.440  0.00  0.00    -0.084 HD
BRANCH  24  30
ATOM     30  C   UNL     1      32.845 -10.650 -22.621  0.00  0.00    -0.044 C 
ATOM     31  C   UNL     1      33.764 -11.344 -23.402  0.00  0.00    -0.006 C 
ATOM     32  C   UNL     1      32.942  -9.270 -22.474  0.00  0.00    -0.006 C 
ATOM     33  C   UNL     1      34.792 -10.652 -24.040  0.00  0.00    -0.000 C 
ATOM     34  C   UNL     1      33.971  -8.577 -23.114  0.00  0.00    -0.000 C 
ATOM     35  C   UNL     1      34.896  -9.268 -23.897  0.00  0.00    -0.000 C 
ENDBRANCH  24  30
ENDBRANCH  19  23
ENDBRANCH   1  19
TORSDOF 7
ENDMDL
MODEL 3
REMARK VINA RESULT:     -10.2      1.610      1.902
REMARK  Name = 6918331
REMARK  7 active torsions:
REMARK  status: ('A' for Active; 'I' for Inactive)
REMARK    1  A    between atoms: C_1  and  C_2
REMARK    2  A    between atoms: C_1  and  N_19
REMARK    3  A    between atoms: C_3  and  O_17
REMARK    4  A    between atoms: C_5  and  N_8
REMARK    5  A    between atoms: C_12  and  C_16
REMARK    6  A    between atoms: N_19  and  C_23
REMARK    7  A    between atoms: C_24  and  C_30
REMARK                            x       y       z     vdW  Elec       q    Type
REMARK                         _______ _______ _______ _____ _____    ______ ____
ROOT
ATOM      1  C   UNL     1      31.316 -11.091 -22.176  0.00  0.00    -0.051 C 
ENDROOT
BRANCH   1   2
ATOM      2  C   UNL     1      31.892  -9.777 -21.717  0.00  0.00    -0.008 C 
ATOM      3  C   UNL     1      31.731  -9.365 -20.400  0.00  0.00    +0.133 C 
ATOM      4  C   UNL     1      32.582  -8.992 -22.631  0.00  0.00    +0.016 C 
ATOM      5  C   UNL     1      33.123  -7.774 -22.221  0.00  0.00    +0.086 C 
ATOM      6  C   UNL     1      32.271  -8.145 -19.992  0.00  0.00    +0.038 C 
ATOM      7  C   UNL     1      32.967  -7.350 -20.901  0.00  0.00    +0.022 C 
BRANCH   5   8
ATOM      8  N   UNL     1      33.813  -6.984 -23.123  0.00  0.00    -0.188 N 
ATOM      9  N   UNL     1      35.155  -6.988 -23.190  0.00  0.00    -0.039 NA
ATOM     10  N   UNL     1      34.320  -5.570 -24.695  0.00  0.00    -0.104 NA
ATOM     11  N   UNL     1      35.457  -6.124 -24.151  0.00  0.00    -0.022 NA
ATOM     12  C   UNL     1      33.316  -6.115 -24.046  0.00  0.00    +0.260 A 
BRANCH  12  16
ATOM     13  F   UNL     1      31.229  -5.500 -23.101  0.00  0.00    -0.163 F 
ATOM     14  F   UNL     1      31.625  -4.859 -25.140  0.00  0.00    -0.163 F 
ATOM     15  F   UNL     1      31.222  -6.960 -24.719  0.00  0.00    -0.163 F 
ATOM     16  C   UNL     1      31.879  -5.861 -24.246  0.00  0.00    +0.454 C 
ENDBRANCH  12  16
ENDBRANCH   5   8
BRANCH   3  17
ATOM     17  O   UNL     1      31.054 -10.129 -19.498  0.00  0.00    -0.472 OA
ATOM     18  C   UNL     1      31.703 -10.393 -18.256  0.00  0.00    +0.252 C 
ENDBRANCH   3  17
ENDBRANCH   1   2
BRANCH   1  19
ATOM     19  N   UNL     1      32.353 -12.023 -22.584  0.00  0.00    +0.387 N 
ATOM     20  H   UNL     1      31.948 -12.730 -23.198  0.00  0.00    -0.084 HD
ATOM     21  H   UNL     1      33.085 -11.508 -23.073  0.00  0.00    -0.084 HD
BRANCH  19  23
ATOM     22  N   UNL     1      34.690 -14.241 -20.577  0.00  0.00    +0.386 N 
ATOM     23  C   UNL     1      32.941 -12.682 -21.418  0.00  0.00    -0.077 C 
ATOM     24  C   UNL     1      34.174 -13.558 -21.784  0.00  0.00    -0.058 C 
ATOM     25  C   UNL     1      31.868 -13.426 -20.611  0.00  0.00    -0.025 C 
ATOM     26  C   UNL     1      32.494 -14.181 -19.443  0.00  0.00    -0.026 C 
ATOM     27  C   UNL     1      33.666 -15.041 -19.903  0.00  0.00    -0.081 C 
ATOM     28  H   UNL     1      35.035 -13.536 -19.925  0.00  0.00    -0.084 HD
ATOM     29  H   UNL     1      35.432 -14.874 -20.873  0.00  0.00    -0.084 HD
BRANCH  24  30
ATOM     30  C   UNL     1      34.121 -14.515 -22.972  0.00  0.00    -0.044 C 
ATOM     31  C   UNL     1      34.869 -15.688 -22.947  0.00  0.00    -0.006 C 
ATOM     32  C   UNL     1      33.324 -14.208 -24.070  0.00  0.00    -0.006 C 
ATOM     33  C   UNL     1      34.821 -16.562 -24.032  0.00  0.00    -0.000 C 
ATOM     34  C   UNL     1      33.275 -15.084 -25.155  0.00  0.00    -0.000 C 
ATOM     35  C   UNL     1      34.024 -16.261 -25.136  0.00  0.00    -0.000 C 
ENDBRANCH  24  30
ENDBRANCH  19  23
ENDBRANCH   1  19
TORSDOF 7
ENDMDL
MODEL 4
REMARK VINA RESULT:     -10.0      3.110      7.680
REMARK  Name = 6918331
REMARK  7 active torsions:
REMARK  status: ('A' for Active; 'I' for Inactive)
REMARK    1  A    between atoms: C_1  and  C_2
REMARK    2  A    between atoms: C_1  and  N_19
REMARK    3  A    between atoms: C_3  and  O_17
REMARK    4  A    between atoms: C_5  and  N_8
REMARK    5  A    between atoms: C_12  and  C_16
REMARK    6  A    between atoms: N_19  and  C_23
REMARK    7  A    between atoms: C_24  and  C_30
REMARK                            x       y       z     vdW  Elec       q    Type
REMARK                         _______ _______ _______ _____ _____    ______ ____
ROOT
ATOM      1  C   UNL     1      32.879  -9.340 -22.805  0.00  0.00    -0.051 C 
ENDROOT
BRANCH   1   2
ATOM      2  C   UNL     1      32.591 -10.786 -22.498  0.00  0.00    -0.008 C 
ATOM      3  C   UNL     1      31.895 -11.132 -21.346  0.00  0.00    +0.133 C 
ATOM      4  C   UNL     1      33.031 -11.760 -23.384  0.00  0.00    +0.016 C 
ATOM      5  C   UNL     1      32.770 -13.104 -23.115  0.00  0.00    +0.086 C 
ATOM      6  C   UNL     1      31.636 -12.476 -21.077  0.00  0.00    +0.038 C 
ATOM      7  C   UNL     1      32.073 -13.461 -21.961  0.00  0.00    +0.022 C 
BRANCH   5   8
ATOM      8  N   UNL     1      33.204 -14.082 -23.991  0.00  0.00    -0.188 N 
ATOM      9  N   UNL     1      32.748 -14.160 -25.253  0.00  0.00    -0.039 NA
ATOM     10  N   UNL     1      34.222 -15.789 -24.872  0.00  0.00    -0.104 NA
ATOM     11  N   UNL     1      33.373 -15.203 -25.784  0.00  0.00    -0.022 NA
ATOM     12  C   UNL     1      34.102 -15.082 -23.772  0.00  0.00    +0.260 A 
BRANCH  12  16
ATOM     13  F   UNL     1      35.251 -14.138 -21.924  0.00  0.00    -0.163 F 
ATOM     14  F   UNL     1      34.019 -15.887 -21.541  0.00  0.00    -0.163 F 
ATOM     15  F   UNL     1      35.896 -16.097 -22.630  0.00  0.00    -0.163 F 
ATOM     16  C   UNL     1      34.800 -15.295 -22.493  0.00  0.00    +0.454 C 
ENDBRANCH  12  16
ENDBRANCH   5   8
BRANCH   3  17
ATOM     17  O   UNL     1      31.461 -10.182 -20.472  0.00  0.00    -0.472 OA
ATOM     18  C   UNL     1      31.797 -10.362 -19.098  0.00  0.00    +0.252 C 
ENDBRANCH   3  17
ENDBRANCH   1   2
BRANCH   1  19
ATOM     19  N   UNL     1      31.815  -8.730 -23.584  0.00  0.00    +0.387 N 
ATOM     20  H   UNL     1      32.155  -8.538 -24.526  0.00  0.00    -0.084 HD
ATOM     21  H   UNL     1      31.023  -9.371 -23.617  0.00  0.00    -0.084 HD
BRANCH  19  23
ATOM     22  N   UNL     1      31.176  -5.008 -23.207  0.00  0.00    +0.386 N 
ATOM     23  C   UNL     1      31.380  -7.476 -22.968  0.00  0.00    -0.077 C 
ATOM     24  C   UNL     1      31.580  -6.249 -23.903  0.00  0.00    -0.058 C 
ATOM     25  C   UNL     1      32.004  -7.305 -21.576  0.00  0.00    -0.025 C 
ATOM     26  C   UNL     1      31.616  -5.961 -20.970  0.00  0.00    -0.026 C 
ATOM     27  C   UNL     1      31.884  -4.817 -21.941  0.00  0.00    -0.081 C 
ATOM     28  H   UNL     1      30.174  -5.050 -23.018  0.00  0.00    -0.084 HD
ATOM     29  H   UNL     1      31.409  -4.223 -23.815  0.00  0.00    -0.084 HD
BRANCH  24  30
ATOM     30  C   UNL     1      32.895  -6.052 -24.653  0.00  0.00    -0.044 C 
ATOM     31  C   UNL     1      32.876  -5.777 -26.017  0.00  0.00    -0.006 C 
ATOM     32  C   UNL     1      34.101  -6.146 -23.968  0.00  0.00    -0.006 C 
ATOM     33  C   UNL     1      34.077  -5.597 -26.703  0.00  0.00    -0.000 C 
ATOM     34  C   UNL     1      35.302  -5.965 -24.654  0.00  0.00    -0.000 C 
ATOM     35  C   UNL     1      35.291  -5.690 -26.021  0.00  0.00    -0.000 C 
ENDBRANCH  24  30
ENDBRANCH  19  23
ENDBRANCH   1  19
TORSDOF 7
ENDMDL
MODEL 5
REMARK VINA RESULT:      -9.6     13.429     16.261
REMARK  Name = 6918331
REMARK  7 active torsions:
REMARK  status: ('A' for Active; 'I' for Inactive)
REMARK    1  A    between atoms: C_1  and  C_2
REMARK    2  A    between atoms: C_1  and  N_19
REMARK    3  A    between atoms: C_3  and  O_17
REMARK    4  A    between atoms: C_5  and  N_8
REMARK    5  A    between atoms: C_12  and  C_16
REMARK    6  A    between atoms: N_19  and  C_23
REMARK    7  A    between atoms: C_24  and  C_30
REMARK                            x       y       z     vdW  Elec       q    Type
REMARK                         _______ _______ _______ _____ _____    ______ ____
ROOT
ATOM      1  C   UNL     1      33.523 -23.595 -16.847  0.00  0.00    -0.051 C 
ENDROOT
BRANCH   1   2
ATOM      2  C   UNL     1      34.877 -23.082 -16.430  0.00  0.00    -0.008 C 
ATOM      3  C   UNL     1      35.607 -22.264 -17.283  0.00  0.00    +0.133 C 
ATOM      4  C   UNL     1      35.375 -23.440 -15.185  0.00  0.00    +0.016 C 
ATOM      5  C   UNL     1      36.627 -22.973 -14.785  0.00  0.00    +0.086 C 
ATOM      6  C   UNL     1      36.859 -21.798 -16.882  0.00  0.00    +0.038 C 
ATOM      7  C   UNL     1      37.369 -22.151 -15.634  0.00  0.00    +0.022 C 
BRANCH   5   8
ATOM      8  N   UNL     1      37.133 -23.324 -13.547  0.00  0.00    -0.188 N 
ATOM      9  N   UNL     1      36.773 -22.680 -12.422  0.00  0.00    -0.039 NA
ATOM     10  N   UNL     1      38.234 -24.296 -11.943  0.00  0.00    -0.104 NA
ATOM     11  N   UNL     1      37.448 -23.279 -11.449  0.00  0.00    -0.022 NA
ATOM     12  C   UNL     1      38.025 -24.307 -13.240  0.00  0.00    +0.260 A 
BRANCH  12  16
ATOM     13  F   UNL     1      37.706 -25.845 -15.017  0.00  0.00    -0.163 F 
ATOM     14  F   UNL     1      39.466 -24.573 -15.106  0.00  0.00    -0.163 F 
ATOM     15  F   UNL     1      39.370 -26.196 -13.653  0.00  0.00    -0.163 F 
ATOM     16  C   UNL     1      38.628 -25.209 -14.235  0.00  0.00    +0.454 C 
ENDBRANCH  12  16
ENDBRANCH   5   8
BRANCH   3  17
ATOM     17  O   UNL     1      35.125 -21.908 -18.507  0.00  0.00    -0.472 OA
ATOM     18  C   UNL     1      35.993 -21.158 -19.353  0.00  0.00    +0.252 C 
ENDBRANCH   3  17
ENDBRANCH   1   2
BRANCH   1  19
ATOM     19  N   UNL     1      32.457 -23.025 -16.039  0.00  0.00    +0.387 N 
ATOM     20  H   UNL     1      32.753 -22.115 -15.686  0.00  0.00    -0.084 HD
ATOM     21  H   UNL     1      31.623 -22.926 -16.618  0.00  0.00    -0.084 HD
BRANCH  19  23
ATOM     22  N   UNL     1      30.486 -25.439 -13.873  0.00  0.00    +0.386 N 
ATOM     23  C   UNL     1      32.144 -23.899 -14.909  0.00  0.00    -0.077 C 
ATOM     24  C   UNL     1      30.772 -24.615 -15.068  0.00  0.00    -0.058 C 
ATOM     25  C   UNL     1      32.305 -23.152 -13.578  0.00  0.00    -0.025 C 
ATOM     26  C   UNL     1      31.900 -24.039 -12.406  0.00  0.00    -0.026 C 
ATOM     27  C   UNL     1      30.527 -24.664 -12.632  0.00  0.00    -0.081 C 
ATOM     28  H   UNL     1      31.181 -26.184 -13.815  0.00  0.00    -0.084 HD
ATOM     29  H   UNL     1      29.543 -25.813 -13.974  0.00  0.00    -0.084 HD
BRANCH  24  30
ATOM     30  C   UNL     1      29.535 -23.832 -15.500  0.00  0.00    -0.044 C 
ATOM     31  C   UNL     1      28.839 -24.217 -16.643  0.00  0.00    -0.006 C 
ATOM     32  C   UNL     1      29.111 -22.741 -14.749  0.00  0.00    -0.006 C 
ATOM     33  C   UNL     1      27.709 -23.502 -17.038  0.00  0.00    -0.000 C 
ATOM     34  C   UNL     1      27.979 -22.027 -15.144  0.00  0.00    -0.000 C 
ATOM     35  C   UNL     1      27.278 -22.407 -16.289  0.00  0.00    -0.000 C 
ENDBRANCH  24  30
ENDBRANCH  19  23
ENDBRANCH   1  19
TORSDOF 7
ENDMDL
MODEL 6
REMARK VINA RESULT:      -9.5      2.506      7.609
REMARK  Name = 6918331
REMARK  7 active torsions:
REMARK  status: ('A' for Active; 'I' for Inactive)
REMARK    1  A    between atoms: C_1  and  C_2
REMARK    2  A    between atoms: C_1  and  N_19
REMARK    3  A    between atoms: C_3  and  O_17
REMARK    4  A    between atoms: C_5  and  N_8
REMARK    5  A    between atoms: C_12  and  C_16
REMARK    6  A    between atoms: N_19  and  C_23
REMARK    7  A    between atoms: C_24  and  C_30
REMARK                            x       y       z     vdW  Elec       q    Type
REMARK                         _______ _______ _______ _____ _____    ______ ____
ROOT
ATOM      1  C   UNL     1      32.078 -10.042 -22.729  0.00  0.00    -0.051 C 
ENDROOT
BRANCH   1   2
ATOM      2  C   UNL     1      32.263 -11.285 -21.897  0.00  0.00    -0.008 C 
ATOM      3  C   UNL     1      31.664 -11.386 -20.648  0.00  0.00    +0.133 C 
ATOM      4  C   UNL     1      33.040 -12.319 -22.402  0.00  0.00    +0.016 C 
ATOM      5  C   UNL     1      33.220 -13.476 -21.645  0.00  0.00    +0.086 C 
ATOM      6  C   UNL     1      31.846 -12.543 -19.891  0.00  0.00    +0.038 C 
ATOM      7  C   UNL     1      32.624 -13.588 -20.389  0.00  0.00    +0.022 C 
BRANCH   5   8
ATOM      8  N   UNL     1      33.992 -14.513 -22.138  0.00  0.00    -0.188 N 
ATOM      9  N   UNL     1      34.733 -15.294 -21.332  0.00  0.00    -0.039 NA
ATOM     10  N   UNL     1      34.972 -15.940 -23.453  0.00  0.00    -0.104 NA
ATOM     11  N   UNL     1      35.327 -16.161 -22.141  0.00  0.00    -0.022 NA
ATOM     12  C   UNL     1      34.148 -14.918 -23.429  0.00  0.00    +0.260 A 
BRANCH  12  16
ATOM     13  F   UNL     1      33.952 -13.031 -24.852  0.00  0.00    -0.163 F 
ATOM     14  F   UNL     1      33.611 -14.985 -25.739  0.00  0.00    -0.163 F 
ATOM     15  F   UNL     1      32.135 -14.138 -24.376  0.00  0.00    -0.163 F 
ATOM     16  C   UNL     1      33.479 -14.282 -24.576  0.00  0.00    +0.454 C 
ENDBRANCH  12  16
ENDBRANCH   5   8
BRANCH   3  17
ATOM     17  O   UNL     1      30.901 -10.375 -20.146  0.00  0.00    -0.472 OA
ATOM     18  C   UNL     1      31.197  -9.934 -18.822  0.00  0.00    +0.252 C 
ENDBRANCH   3  17
ENDBRANCH   1   2
BRANCH   1  19
ATOM     19  N   UNL     1      32.600  -8.862 -22.060  0.00  0.00    +0.387 N 
ATOM     20  H   UNL     1      32.777  -9.082 -21.080  0.00  0.00    -0.084 HD
ATOM     21  H   UNL     1      33.463  -8.578 -22.521  0.00  0.00    -0.084 HD
BRANCH  19  23
ATOM     22  N   UNL     1      30.724  -5.900 -23.514  0.00  0.00    +0.386 N 
ATOM     23  C   UNL     1      31.640  -7.760 -22.138  0.00  0.00    -0.077 C 
ATOM     24  C   UNL     1      31.672  -7.036 -23.514  0.00  0.00    -0.058 C 
ATOM     25  C   UNL     1      31.791  -6.817 -20.935  0.00  0.00    -0.025 C 
ATOM     26  C   UNL     1      30.847  -5.626 -21.060  0.00  0.00    -0.026 C 
ATOM     27  C   UNL     1      30.977  -4.956 -22.423  0.00  0.00    -0.081 C 
ATOM     28  H   UNL     1      29.776  -6.265 -23.416  0.00  0.00    -0.084 HD
ATOM     29  H   UNL     1      30.843  -5.397 -24.393  0.00  0.00    -0.084 HD
BRANCH  24  30
ATOM     30  C   UNL     1      33.001  -6.637 -24.150  0.00  0.00    -0.044 C 
ATOM     31  C   UNL     1      33.035  -6.233 -25.482  0.00  0.00    -0.006 C 
ATOM     32  C   UNL     1      34.168  -6.679 -23.395  0.00  0.00    -0.006 C 
ATOM     33  C   UNL     1      34.249  -5.869 -26.063  0.00  0.00    -0.000 C 
ATOM     34  C   UNL     1      35.383  -6.314 -23.977  0.00  0.00    -0.000 C 
ATOM     35  C   UNL     1      35.423  -5.909 -25.311  0.00  0.00    -0.000 C 
ENDBRANCH  24  30
ENDBRANCH  19  23
ENDBRANCH   1  19
TORSDOF 7
ENDMDL
MODEL 7
REMARK VINA RESULT:      -9.5     13.758     16.773
REMARK  Name = 6918331
REMARK  7 active torsions:
REMARK  status: ('A' for Active; 'I' for Inactive)
REMARK    1  A    between atoms: C_1  and  C_2
REMARK    2  A    between atoms: C_1  and  N_19
REMARK    3  A    between atoms: C_3  and  O_17
REMARK    4  A    between atoms: C_5  and  N_8
REMARK    5  A    between atoms: C_12  and  C_16
REMARK    6  A    between atoms: N_19  and  C_23
REMARK    7  A    between atoms: C_24  and  C_30
REMARK                            x       y       z     vdW  Elec       q    Type
REMARK                         _______ _______ _______ _____ _____    ______ ____
ROOT
ATOM      1  C   UNL     1      33.413 -23.601 -16.778  0.00  0.00    -0.051 C 
ENDROOT
BRANCH   1   2
ATOM      2  C   UNL     1      34.768 -23.495 -16.128  0.00  0.00    -0.008 C 
ATOM      3  C   UNL     1      35.664 -22.515 -16.536  0.00  0.00    +0.133 C 
ATOM      4  C   UNL     1      35.099 -24.391 -15.120  0.00  0.00    +0.016 C 
ATOM      5  C   UNL     1      36.350 -24.305 -14.508  0.00  0.00    +0.086 C 
ATOM      6  C   UNL     1      36.915 -22.431 -15.924  0.00  0.00    +0.038 C 
ATOM      7  C   UNL     1      37.258 -23.326 -14.910  0.00  0.00    +0.022 C 
BRANCH   5   8
ATOM      8  N   UNL     1      36.691 -25.192 -13.504  0.00  0.00    -0.188 N 
ATOM      9  N   UNL     1      37.168 -26.421 -13.771  0.00  0.00    -0.039 NA
ATOM     10  N   UNL     1      37.039 -26.114 -11.566  0.00  0.00    -0.104 NA
ATOM     11  N   UNL     1      37.377 -26.977 -12.584  0.00  0.00    -0.022 NA
ATOM     12  C   UNL     1      36.617 -25.019 -12.155  0.00  0.00    +0.260 A 
BRANCH  12  16
ATOM     13  F   UNL     1      34.906 -23.389 -11.951  0.00  0.00    -0.163 F 
ATOM     14  F   UNL     1      36.018 -23.894 -10.153  0.00  0.00    -0.163 F 
ATOM     15  F   UNL     1      36.972 -22.729 -11.730  0.00  0.00    -0.163 F 
ATOM     16  C   UNL     1      36.136 -23.786 -11.510  0.00  0.00    +0.454 C 
ENDBRANCH  12  16
ENDBRANCH   5   8
BRANCH   3  17
ATOM     17  O   UNL     1      35.346 -21.633 -17.524  0.00  0.00    -0.472 OA
ATOM     18  C   UNL     1      36.178 -21.629 -18.682  0.00  0.00    +0.252 C 
ENDBRANCH   3  17
ENDBRANCH   1   2
BRANCH   1  19
ATOM     19  N   UNL     1      32.370 -23.013 -15.952  0.00  0.00    +0.387 N 
ATOM     20  H   UNL     1      32.704 -22.129 -15.569  0.00  0.00    -0.084 HD
ATOM     21  H   UNL     1      31.543 -22.860 -16.528  0.00  0.00    -0.084 HD
BRANCH  19  23
ATOM     22  N   UNL     1      30.330 -25.477 -13.911  0.00  0.00    +0.386 N 
ATOM     23  C   UNL     1      32.019 -23.910 -14.852  0.00  0.00    -0.077 C 
ATOM     24  C   UNL     1      30.658 -24.629 -15.078  0.00  0.00    -0.058 C 
ATOM     25  C   UNL     1      32.123 -23.187 -13.502  0.00  0.00    -0.025 C 
ATOM     26  C   UNL     1      31.677 -24.098 -12.364  0.00  0.00    -0.026 C 
ATOM     27  C   UNL     1      30.318 -24.725 -12.655  0.00  0.00    -0.081 C 
ATOM     28  H   UNL     1      31.026 -26.219 -13.840  0.00  0.00    -0.084 HD
ATOM     29  H   UNL     1      29.393 -25.854 -14.056  0.00  0.00    -0.084 HD
BRANCH  24  30
ATOM     30  C   UNL     1      29.434 -23.844 -15.544  0.00  0.00    -0.044 C 
ATOM     31  C   UNL     1      29.009 -22.734 -14.820  0.00  0.00    -0.006 C 
ATOM     32  C   UNL     1      28.753 -24.244 -16.689  0.00  0.00    -0.006 C 
ATOM     33  C   UNL     1      27.891 -22.017 -15.245  0.00  0.00    -0.000 C 
ATOM     34  C   UNL     1      27.635 -23.526 -17.114  0.00  0.00    -0.000 C 
ATOM     35  C   UNL     1      27.204 -22.413 -16.393  0.00  0.00    -0.000 C 
ENDBRANCH  24  30
ENDBRANCH  19  23
ENDBRANCH   1  19
TORSDOF 7
ENDMDL
MODEL 8
REMARK VINA RESULT:      -9.4     14.362     16.679
REMARK  Name = 6918331
REMARK  7 active torsions:
REMARK  status: ('A' for Active; 'I' for Inactive)
REMARK    1  A    between atoms: C_1  and  C_2
REMARK    2  A    between atoms: C_1  and  N_19
REMARK    3  A    between atoms: C_3  and  O_17
REMARK    4  A    between atoms: C_5  and  N_8
REMARK    5  A    between atoms: C_12  and  C_16
REMARK    6  A    between atoms: N_19  and  C_23
REMARK    7  A    between atoms: C_24  and  C_30
REMARK                            x       y       z     vdW  Elec       q    Type
REMARK                         _______ _______ _______ _____ _____    ______ ____
ROOT
ATOM      1  C   UNL     1      34.331 -23.990 -13.917  0.00  0.00    -0.051 C 
ENDROOT
BRANCH   1   2
ATOM      2  C   UNL     1      33.473 -23.547 -15.073  0.00  0.00    -0.008 C 
ATOM      3  C   UNL     1      34.056 -23.213 -16.289  0.00  0.00    +0.133 C 
ATOM      4  C   UNL     1      32.097 -23.479 -14.899  0.00  0.00    +0.016 C 
ATOM      5  C   UNL     1      31.289 -23.071 -15.960  0.00  0.00    +0.086 C 
ATOM      6  C   UNL     1      33.247 -22.804 -17.349  0.00  0.00    +0.038 C 
ATOM      7  C   UNL     1      31.864 -22.733 -17.185  0.00  0.00    +0.022 C 
BRANCH   5   8
ATOM      8  N   UNL     1      29.917 -23.000 -15.797  0.00  0.00    -0.188 N 
ATOM      9  N   UNL     1      29.192 -21.991 -16.311  0.00  0.00    -0.039 NA
ATOM     10  N   UNL     1      27.861 -23.416 -15.228  0.00  0.00    -0.104 NA
ATOM     11  N   UNL     1      27.939 -22.252 -15.960  0.00  0.00    -0.022 NA
ATOM     12  C   UNL     1      29.093 -23.861 -15.139  0.00  0.00    +0.260 A 
BRANCH  12  16
ATOM     13  F   UNL     1      30.310 -25.894 -15.252  0.00  0.00    -0.163 F 
ATOM     14  F   UNL     1      30.329 -24.827 -13.358  0.00  0.00    -0.163 F 
ATOM     15  F   UNL     1      28.517 -25.849 -14.012  0.00  0.00    -0.163 F 
ATOM     16  C   UNL     1      29.555 -25.081 -14.455  0.00  0.00    +0.454 C 
ENDBRANCH  12  16
ENDBRANCH   5   8
BRANCH   3  17
ATOM     17  O   UNL     1      35.405 -23.277 -16.467  0.00  0.00    -0.472 OA
ATOM     18  C   UNL     1      36.029 -22.162 -17.101  0.00  0.00    +0.252 C 
ENDBRANCH   3  17
ENDBRANCH   1   2
BRANCH   1  19
ATOM     19  N   UNL     1      35.450 -23.089 -13.698  0.00  0.00    +0.387 N 
ATOM     20  H   UNL     1      36.204 -23.327 -14.342  0.00  0.00    -0.084 HD
ATOM     21  H   UNL     1      35.138 -22.132 -13.858  0.00  0.00    -0.084 HD
BRANCH  19  23
ATOM     22  N   UNL     1      37.862 -23.759 -10.845  0.00  0.00    +0.386 N 
ATOM     23  C   UNL     1      35.940 -23.201 -12.324  0.00  0.00    -0.077 C 
ATOM     24  C   UNL     1      37.440 -23.608 -12.255  0.00  0.00    -0.058 C 
ATOM     25  C   UNL     1      35.015 -24.093 -11.484  0.00  0.00    -0.025 C 
ATOM     26  C   UNL     1      35.571 -24.276 -10.076  0.00  0.00    -0.026 C 
ATOM     27  C   UNL     1      37.031 -24.713 -10.109  0.00  0.00    -0.081 C 
ATOM     28  H   UNL     1      37.802 -22.851 -10.386  0.00  0.00    -0.084 HD
ATOM     29  H   UNL     1      38.818 -24.116 -10.845  0.00  0.00    -0.084 HD
BRANCH  24  30
ATOM     30  C   UNL     1      37.973 -24.754 -13.111  0.00  0.00    -0.044 C 
ATOM     31  C   UNL     1      37.163 -25.855 -13.373  0.00  0.00    -0.006 C 
ATOM     32  C   UNL     1      39.265 -24.690 -13.624  0.00  0.00    -0.006 C 
ATOM     33  C   UNL     1      37.649 -26.902 -14.154  0.00  0.00    -0.000 C 
ATOM     34  C   UNL     1      39.750 -25.738 -14.407  0.00  0.00    -0.000 C 
ATOM     35  C   UNL     1      38.943 -26.844 -14.672  0.00  0.00    -0.000 C 
ENDBRANCH  24  30
ENDBRANCH  19  23
ENDBRANCH   1  19
TORSDOF 7
ENDMDL
MODEL 9
REMARK VINA RESULT:      -9.3      2.624      7.624
REMARK  Name = 6918331
REMARK  7 active torsions:
REMARK  status: ('A' for Active; 'I' for Inactive)
REMARK    1  A    between atoms: C_1  and  C_2
REMARK    2  A    between atoms: C_1  and  N_19
REMARK    3  A    between atoms: C_3  and  O_17
REMARK    4  A    between atoms: C_5  and  N_8
REMARK    5  A    between atoms: C_12  and  C_16
REMARK    6  A    between atoms: N_19  and  C_23
REMARK    7  A    between atoms: C_24  and  C_30
REMARK                            x       y       z     vdW  Elec       q    Type
REMARK                         _______ _______ _______ _____ _____    ______ ____
ROOT
ATOM      1  C   UNL     1      31.327 -10.460 -22.517  0.00  0.00    -0.051 C 
ENDROOT
BRANCH   1   2
ATOM      2  C   UNL     1      31.887 -11.564 -21.659  0.00  0.00    -0.008 C 
ATOM      3  C   UNL     1      31.614 -11.597 -20.297  0.00  0.00    +0.133 C 
ATOM      4  C   UNL     1      32.675 -12.540 -22.252  0.00  0.00    +0.016 C 
ATOM      5  C   UNL     1      33.200 -13.569 -21.471  0.00  0.00    +0.086 C 
ATOM      6  C   UNL     1      32.141 -12.626 -19.516  0.00  0.00    +0.038 C 
ATOM      7  C   UNL     1      32.933 -13.612 -20.102  0.00  0.00    +0.022 C 
BRANCH   5   8
ATOM      8  N   UNL     1      33.987 -14.548 -22.052  0.00  0.00    -0.188 N 
ATOM      9  N   UNL     1      34.710 -15.409 -21.315  0.00  0.00    -0.039 NA
ATOM     10  N   UNL     1      35.004 -15.826 -23.486  0.00  0.00    -0.104 NA
ATOM     11  N   UNL     1      35.327 -16.186 -22.197  0.00  0.00    -0.022 NA
ATOM     12  C   UNL     1      34.176 -14.813 -23.374  0.00  0.00    +0.260 A 
BRANCH  12  16
ATOM     13  F   UNL     1      33.957 -12.763 -24.547  0.00  0.00    -0.163 F 
ATOM     14  F   UNL     1      33.758 -14.595 -25.700  0.00  0.00    -0.163 F 
ATOM     15  F   UNL     1      32.177 -14.001 -24.321  0.00  0.00    -0.163 F 
ATOM     16  C   UNL     1      33.533 -14.059 -24.464  0.00  0.00    +0.454 C 
ENDBRANCH  12  16
ENDBRANCH   5   8
BRANCH   3  17
ATOM     17  O   UNL     1      30.842 -10.642 -19.707  0.00  0.00    -0.472 OA
ATOM     18  C   UNL     1      31.323 -10.080 -18.488  0.00  0.00    +0.252 C 
ENDBRANCH   3  17
ENDBRANCH   1   2
BRANCH   1  19
ATOM     19  N   UNL     1      31.599  -9.147 -21.955  0.00  0.00    +0.387 N 
ATOM     20  H   UNL     1      31.047  -8.448 -22.452  0.00  0.00    -0.084 HD
ATOM     21  H   UNL     1      31.351  -9.156 -20.966  0.00  0.00    -0.084 HD
BRANCH  19  23
ATOM     22  N   UNL     1      34.769  -7.062 -21.860  0.00  0.00    +0.386 N 
ATOM     23  C   UNL     1      33.018  -8.817 -22.082  0.00  0.00    -0.077 C 
ATOM     24  C   UNL     1      33.332  -7.354 -21.657  0.00  0.00    -0.058 C 
ATOM     25  C   UNL     1      33.543  -9.185 -23.477  0.00  0.00    -0.025 C 
ATOM     26  C   UNL     1      35.000  -8.765 -23.636  0.00  0.00    -0.026 C 
ATOM     27  C   UNL     1      35.204  -7.308 -23.235  0.00  0.00    -0.081 C 
ATOM     28  H   UNL     1      35.314  -7.654 -21.234  0.00  0.00    -0.084 HD
ATOM     29  H   UNL     1      34.914  -6.072 -21.661  0.00  0.00    -0.084 HD
BRANCH  24  30
ATOM     30  C   UNL     1      32.465  -6.199 -22.153  0.00  0.00    -0.044 C 
ATOM     31  C   UNL     1      32.077  -6.151 -23.488  0.00  0.00    -0.006 C 
ATOM     32  C   UNL     1      32.069  -5.204 -21.265  0.00  0.00    -0.006 C 
ATOM     33  C   UNL     1      31.285  -5.097 -23.941  0.00  0.00    -0.000 C 
ATOM     34  C   UNL     1      31.276  -4.149 -21.719  0.00  0.00    -0.000 C 
ATOM     35  C   UNL     1      30.884  -4.095 -23.057  0.00  0.00    -0.000 C 
ENDBRANCH  24  30
ENDBRANCH  19  23
ENDBRANCH   1  19
TORSDOF 7
ENDMDL
