MODEL 1
REMARK VINA RESULT:     -12.0      0.000      0.000
REMARK  Name = 60149
REMARK  5 active torsions:
REMARK  status: ('A' for Active; 'I' for Inactive)
REMARK    1  A    between atoms: N_2  and  C_12
REMARK    2  A    between atoms: C_3  and  C_19
REMARK    3  A    between atoms: N_18  and  C_25
REMARK    4  A    between atoms: C_25  and  C_26
REMARK    5  A    between atoms: C_26  and  N_28
REMARK                            x       y       z     vdW  Elec       q    Type
REMARK                         _______ _______ _______ _____ _____    ______ ____
ROOT
ATOM      1 CL   UNL     1      29.124 -22.969 -16.018  0.00  0.00    -0.082 Cl
ATOM      2  N   UNL     1      34.894 -23.567 -15.325  0.00  0.00    -0.265 N 
ATOM      3  C   UNL     1      34.275 -22.685 -17.259  0.00  0.00    -0.006 C 
ATOM      4  C   UNL     1      33.102 -22.957 -16.506  0.00  0.00    +0.012 C 
ATOM      5  C   UNL     1      35.360 -23.069 -16.512  0.00  0.00    +0.065 C 
ATOM      6  C   UNL     1      33.519 -23.511 -15.293  0.00  0.00    +0.055 C 
ATOM      7  C   UNL     1      31.722 -22.787 -16.735  0.00  0.00    +0.012 C 
ATOM      8  C   UNL     1      32.621 -23.904 -14.294  0.00  0.00    +0.016 C 
ATOM      9  C   UNL     1      30.813 -23.176 -15.745  0.00  0.00    +0.058 C 
ATOM     10  C   UNL     1      31.257 -23.726 -14.544  0.00  0.00    +0.013 C 
ENDROOT
BRANCH   2  12
ATOM     11  F   UNL     1      38.133 -25.489 -11.301  0.00  0.00    -0.204 F 
ATOM     12  C   UNL     1      35.715 -24.054 -14.304  0.00  0.00    +0.056 C 
ATOM     13  C   UNL     1      36.071 -25.395 -14.296  0.00  0.00    +0.017 C 
ATOM     14  C   UNL     1      36.162 -23.189 -13.316  0.00  0.00    +0.017 C 
ATOM     15  C   UNL     1      36.889 -25.882 -13.276  0.00  0.00    +0.031 C 
ATOM     16  C   UNL     1      36.981 -23.676 -12.297  0.00  0.00    +0.031 C 
ATOM     17  C   UNL     1      37.346 -25.022 -12.277  0.00  0.00    +0.140 C 
ENDBRANCH   2  12
BRANCH   3  19
ATOM     18  N   UNL     1      34.535 -19.824 -20.507  0.00  0.00    +0.388 N 
ATOM     19  C   UNL     1      34.329 -22.081 -18.644  0.00  0.00    +0.019 C 
ATOM     20  C   UNL     1      33.153 -21.130 -18.924  0.00  0.00    -0.018 C 
ATOM     21  C   UNL     1      35.657 -21.362 -18.927  0.00  0.00    -0.018 C 
ATOM     22  C   UNL     1      33.253 -20.520 -20.323  0.00  0.00    -0.077 C 
ATOM     23  C   UNL     1      35.667 -20.741 -20.326  0.00  0.00    -0.077 C 
ATOM     24  H   UNL     1      34.602 -19.096 -19.796  0.00  0.00    -0.080 HD
BRANCH  18  25
ATOM     25  C   UNL     1      34.590 -19.197 -21.828  0.00  0.00    -0.055 C 
BRANCH  25  26
ATOM     26  C   UNL     1      35.730 -18.191 -21.888  0.00  0.00    +0.077 C 
BRANCH  26  28
ATOM     27  O   UNL     1      34.962 -16.745 -24.408  0.00  0.00    -0.252 OA
ATOM     28  N   UNL     1      35.234 -16.853 -22.066  0.00  0.00    -0.243 N 
ATOM     29  N   UNL     1      34.425 -14.957 -22.995  0.00  0.00    -0.266 N 
ATOM     30  C   UNL     1      34.946 -15.975 -20.946  0.00  0.00    +0.085 C 
ATOM     31  C   UNL     1      34.514 -14.665 -21.587  0.00  0.00    +0.082 C 
ATOM     32  C   UNL     1      34.886 -16.250 -23.290  0.00  0.00    +0.311 C 
ATOM     33  H   UNL     1      34.082 -14.326 -23.668  0.00  0.00    +0.157 HD
ENDBRANCH  26  28
ENDBRANCH  25  26
ENDBRANCH  18  25
ENDBRANCH   3  19
TORSDOF 5
ENDMDL
MODEL 2
REMARK VINA RESULT:     -11.3      2.840      4.390
REMARK  Name = 60149
REMARK  5 active torsions:
REMARK  status: ('A' for Active; 'I' for Inactive)
REMARK    1  A    between atoms: N_2  and  C_12
REMARK    2  A    between atoms: C_3  and  C_19
REMARK    3  A    between atoms: N_18  and  C_25
REMARK    4  A    between atoms: C_25  and  C_26
REMARK    5  A    between atoms: C_26  and  N_28
REMARK                            x       y       z     vdW  Elec       q    Type
REMARK                         _______ _______ _______ _____ _____    ______ ____
ROOT
ATOM      1 CL   UNL     1      38.520 -23.430 -14.831  0.00  0.00    -0.082 Cl
ATOM      2  N   UNL     1      32.927 -23.092 -16.486  0.00  0.00    -0.265 N 
ATOM      3  C   UNL     1      34.376 -22.217 -17.914  0.00  0.00    -0.006 C 
ATOM      4  C   UNL     1      35.105 -22.724 -16.806  0.00  0.00    +0.012 C 
ATOM      5  C   UNL     1      33.043 -22.456 -17.693  0.00  0.00    +0.065 C 
ATOM      6  C   UNL     1      34.171 -23.269 -15.922  0.00  0.00    +0.055 C 
ATOM      7  C   UNL     1      36.471 -22.773 -16.464  0.00  0.00    +0.012 C 
ATOM      8  C   UNL     1      34.537 -23.864 -14.709  0.00  0.00    +0.016 C 
ATOM      9  C   UNL     1      36.851 -23.364 -15.255  0.00  0.00    +0.058 C 
ATOM     10  C   UNL     1      35.897 -23.901 -14.392  0.00  0.00    +0.013 C 
ENDROOT
BRANCH   2  12
ATOM     11  F   UNL     1      28.134 -24.691 -14.285  0.00  0.00    -0.204 F 
ATOM     12  C   UNL     1      31.712 -23.497 -15.928  0.00  0.00    +0.056 C 
ATOM     13  C   UNL     1      30.567 -22.753 -16.171  0.00  0.00    +0.017 C 
ATOM     14  C   UNL     1      31.671 -24.638 -15.140  0.00  0.00    +0.017 C 
ATOM     15  C   UNL     1      29.354 -23.157 -15.613  0.00  0.00    +0.031 C 
ATOM     16  C   UNL     1      30.457 -25.042 -14.581  0.00  0.00    +0.031 C 
ATOM     17  C   UNL     1      29.299 -24.302 -14.819  0.00  0.00    +0.140 C 
ENDBRANCH   2  12
BRANCH   3  19
ATOM     18  N   UNL     1      35.853 -19.172 -20.625  0.00  0.00    +0.388 N 
ATOM     19  C   UNL     1      34.958 -21.532 -19.130  0.00  0.00    +0.019 C 
ATOM     20  C   UNL     1      33.975 -20.546 -19.783  0.00  0.00    -0.018 C 
ATOM     21  C   UNL     1      36.287 -20.821 -18.832  0.00  0.00    -0.018 C 
ATOM     22  C   UNL     1      34.605 -19.854 -20.994  0.00  0.00    -0.077 C 
ATOM     23  C   UNL     1      36.833 -20.118 -20.077  0.00  0.00    -0.077 C 
ATOM     24  H   UNL     1      35.635 -18.489 -19.899  0.00  0.00    -0.080 HD
BRANCH  18  25
ATOM     25  C   UNL     1      36.412 -18.468 -21.780  0.00  0.00    -0.055 C 
BRANCH  25  26
ATOM     26  C   UNL     1      35.327 -18.209 -22.815  0.00  0.00    +0.077 C 
BRANCH  26  28
ATOM     27  O   UNL     1      34.464 -16.538 -25.160  0.00  0.00    -0.252 OA
ATOM     28  N   UNL     1      34.988 -16.813 -22.876  0.00  0.00    -0.243 N 
ATOM     29  N   UNL     1      34.324 -14.783 -23.618  0.00  0.00    -0.266 N 
ATOM     30  C   UNL     1      34.944 -15.971 -21.693  0.00  0.00    +0.085 C 
ATOM     31  C   UNL     1      34.611 -14.585 -22.221  0.00  0.00    +0.082 C 
ATOM     32  C   UNL     1      34.581 -16.103 -24.022  0.00  0.00    +0.311 C 
ATOM     33  H   UNL     1      33.989 -14.077 -24.218  0.00  0.00    +0.157 HD
ENDBRANCH  26  28
ENDBRANCH  25  26
ENDBRANCH  18  25
ENDBRANCH   3  19
TORSDOF 5
ENDMDL
MODEL 3
REMARK VINA RESULT:     -11.0      9.983     13.980
REMARK  Name = 60149
REMARK  5 active torsions:
REMARK  status: ('A' for Active; 'I' for Inactive)
REMARK    1  A    between atoms: N_2  and  C_12
REMARK    2  A    between atoms: C_3  and  C_19
REMARK    3  A    between atoms: N_18  and  C_25
REMARK    4  A    between atoms: C_25  and  C_26
REMARK    5  A    between atoms: C_26  and  N_28
REMARK                            x       y       z     vdW  Elec       q    Type
REMARK                         _______ _______ _______ _____ _____    ______ ____
ROOT
ATOM      1 CL   UNL     1      30.684 -10.031 -18.761  0.00  0.00    -0.082 Cl
ATOM      2  N   UNL     1      33.381 -12.550 -23.291  0.00  0.00    -0.265 N 
ATOM      3  C   UNL     1      33.161 -10.351 -23.442  0.00  0.00    -0.006 C 
ATOM      4  C   UNL     1      32.579 -10.767 -22.215  0.00  0.00    +0.012 C 
ATOM      5  C   UNL     1      33.645 -11.465 -24.082  0.00  0.00    +0.065 C 
ATOM      6  C   UNL     1      32.731 -12.153 -22.144  0.00  0.00    +0.055 C 
ATOM      7  C   UNL     1      31.936 -10.099 -21.154  0.00  0.00    +0.012 C 
ATOM      8  C   UNL     1      32.270 -12.908 -21.059  0.00  0.00    +0.016 C 
ATOM      9  C   UNL     1      31.470 -10.841 -20.064  0.00  0.00    +0.058 C 
ATOM     10  C   UNL     1      31.635 -12.224 -20.019  0.00  0.00    +0.013 C 
ENDROOT
BRANCH   2  12
ATOM     11  F   UNL     1      34.766 -17.726 -24.581  0.00  0.00    -0.204 F 
ATOM     12  C   UNL     1      33.732 -13.862 -23.618  0.00  0.00    +0.056 C 
ATOM     13  C   UNL     1      34.619 -14.554 -22.806  0.00  0.00    +0.017 C 
ATOM     14  C   UNL     1      33.188 -14.452 -24.750  0.00  0.00    +0.017 C 
ATOM     15  C   UNL     1      34.971 -15.864 -23.134  0.00  0.00    +0.031 C 
ATOM     16  C   UNL     1      33.540 -15.762 -25.077  0.00  0.00    +0.031 C 
ATOM     17  C   UNL     1      34.430 -16.468 -24.269  0.00  0.00    +0.140 C 
ENDBRANCH   2  12
BRANCH   3  19
ATOM     18  N   UNL     1      32.771  -6.045 -23.760  0.00  0.00    +0.388 N 
ATOM     19  C   UNL     1      33.238  -8.933 -23.962  0.00  0.00    +0.019 C 
ATOM     20  C   UNL     1      31.852  -8.304 -24.177  0.00  0.00    -0.018 C 
ATOM     21  C   UNL     1      34.092  -8.019 -23.070  0.00  0.00    -0.018 C 
ATOM     22  C   UNL     1      31.968  -6.863 -24.679  0.00  0.00    -0.077 C 
ATOM     23  C   UNL     1      34.127  -6.588 -23.612  0.00  0.00    -0.077 C 
ATOM     24  H   UNL     1      32.321  -6.066 -22.845  0.00  0.00    -0.080 HD
BRANCH  18  25
ATOM     25  C   UNL     1      32.824  -4.658 -24.225  0.00  0.00    -0.055 C 
BRANCH  25  26
ATOM     26  C   UNL     1      31.423  -4.150 -24.532  0.00  0.00    +0.077 C 
BRANCH  26  28
ATOM     27  O   UNL     1      30.204  -5.322 -22.047  0.00  0.00    -0.252 OA
ATOM     28  N   UNL     1      30.846  -3.492 -23.392  0.00  0.00    -0.243 N 
ATOM     29  N   UNL     1      29.884  -3.100 -21.383  0.00  0.00    -0.266 N 
ATOM     30  C   UNL     1      30.844  -2.046 -23.246  0.00  0.00    +0.085 C 
ATOM     31  C   UNL     1      30.092  -1.792 -21.950  0.00  0.00    +0.082 C 
ATOM     32  C   UNL     1      30.301  -4.119 -22.254  0.00  0.00    +0.311 C 
ATOM     33  H   UNL     1      29.496  -3.260 -20.492  0.00  0.00    +0.157 HD
ENDBRANCH  26  28
ENDBRANCH  25  26
ENDBRANCH  18  25
ENDBRANCH   3  19
TORSDOF 5
ENDMDL
MODEL 4
REMARK VINA RESULT:     -10.6      7.346     13.667
REMARK  Name = 60149
REMARK  5 active torsions:
REMARK  status: ('A' for Active; 'I' for Inactive)
REMARK    1  A    between atoms: N_2  and  C_12
REMARK    2  A    between atoms: C_3  and  C_19
REMARK    3  A    between atoms: N_18  and  C_25
REMARK    4  A    between atoms: C_25  and  C_26
REMARK    5  A    between atoms: C_26  and  N_28
REMARK                            x       y       z     vdW  Elec       q    Type
REMARK                         _______ _______ _______ _____ _____    ______ ____
ROOT
ATOM      1 CL   UNL     1      31.578 -10.904 -17.010  0.00  0.00    -0.082 Cl
ATOM      2  N   UNL     1      32.290  -9.504 -22.638  0.00  0.00    -0.265 N 
ATOM      3  C   UNL     1      32.597 -11.646 -22.164  0.00  0.00    -0.006 C 
ATOM      4  C   UNL     1      32.268 -10.972 -20.957  0.00  0.00    +0.012 C 
ATOM      5  C   UNL     1      32.603 -10.722 -23.179  0.00  0.00    +0.065 C 
ATOM      6  C   UNL     1      32.080  -9.628 -21.282  0.00  0.00    +0.055 C 
ATOM      7  C   UNL     1      32.112 -11.375 -19.616  0.00  0.00    +0.012 C 
ATOM      8  C   UNL     1      31.741  -8.661 -20.328  0.00  0.00    +0.016 C 
ATOM      9  C   UNL     1      31.773 -10.419 -18.652  0.00  0.00    +0.058 C 
ATOM     10  C   UNL     1      31.592  -9.083 -19.005  0.00  0.00    +0.013 C 
ENDROOT
BRANCH   2  12
ATOM     11  F   UNL     1      31.932  -4.833 -25.541  0.00  0.00    -0.204 F 
ATOM     12  C   UNL     1      32.200  -8.320 -23.374  0.00  0.00    +0.056 C 
ATOM     13  C   UNL     1      30.950  -7.809 -23.693  0.00  0.00    +0.017 C 
ATOM     14  C   UNL     1      33.361  -7.675 -23.773  0.00  0.00    +0.017 C 
ATOM     15  C   UNL     1      30.859  -6.627 -24.429  0.00  0.00    +0.031 C 
ATOM     16  C   UNL     1      33.270  -6.493 -24.509  0.00  0.00    +0.031 C 
ATOM     17  C   UNL     1      32.019  -5.968 -24.836  0.00  0.00    +0.140 C 
ENDBRANCH   2  12
BRANCH   3  19
ATOM     18  N   UNL     1      34.635 -15.388 -22.968  0.00  0.00    +0.388 N 
ATOM     19  C   UNL     1      32.891 -13.121 -22.314  0.00  0.00    +0.019 C 
ATOM     20  C   UNL     1      33.225 -13.516 -23.762  0.00  0.00    -0.018 C 
ATOM     21  C   UNL     1      34.006 -13.604 -21.373  0.00  0.00    -0.018 C 
ATOM     22  C   UNL     1      33.540 -15.010 -23.872  0.00  0.00    -0.077 C 
ATOM     23  C   UNL     1      34.294 -15.094 -21.570  0.00  0.00    -0.077 C 
ATOM     24  H   UNL     1      35.453 -14.833 -23.216  0.00  0.00    -0.080 HD
BRANCH  18  25
ATOM     25  C   UNL     1      34.962 -16.805 -23.127  0.00  0.00    -0.055 C 
BRANCH  25  26
ATOM     26  C   UNL     1      36.097 -17.194 -22.191  0.00  0.00    +0.077 C 
BRANCH  26  28
ATOM     27  O   UNL     1      37.857 -18.968 -20.521  0.00  0.00    -0.252 OA
ATOM     28  N   UNL     1      35.763 -18.366 -21.428  0.00  0.00    -0.243 N 
ATOM     29  N   UNL     1      35.898 -20.164 -20.063  0.00  0.00    -0.266 N 
ATOM     30  C   UNL     1      34.398 -18.844 -21.294  0.00  0.00    +0.085 C 
ATOM     31  C   UNL     1      34.517 -20.118 -20.471  0.00  0.00    +0.082 C 
ATOM     32  C   UNL     1      36.653 -19.141 -20.658  0.00  0.00    +0.311 C 
ATOM     33  H   UNL     1      36.267 -20.833 -19.442  0.00  0.00    +0.157 HD
ENDBRANCH  26  28
ENDBRANCH  25  26
ENDBRANCH  18  25
ENDBRANCH   3  19
TORSDOF 5
ENDMDL
MODEL 5
REMARK VINA RESULT:     -10.3     10.099     13.972
REMARK  Name = 60149
REMARK  5 active torsions:
REMARK  status: ('A' for Active; 'I' for Inactive)
REMARK    1  A    between atoms: N_2  and  C_12
REMARK    2  A    between atoms: C_3  and  C_19
REMARK    3  A    between atoms: N_18  and  C_25
REMARK    4  A    between atoms: C_25  and  C_26
REMARK    5  A    between atoms: C_26  and  N_28
REMARK                            x       y       z     vdW  Elec       q    Type
REMARK                         _______ _______ _______ _____ _____    ______ ____
ROOT
ATOM      1 CL   UNL     1      30.838 -10.040 -18.452  0.00  0.00    -0.082 Cl
ATOM      2  N   UNL     1      33.204 -12.380 -23.254  0.00  0.00    -0.265 N 
ATOM      3  C   UNL     1      32.795 -10.208 -23.381  0.00  0.00    -0.006 C 
ATOM      4  C   UNL     1      32.388 -10.656 -22.096  0.00  0.00    +0.012 C 
ATOM      5  C   UNL     1      33.292 -11.285 -24.070  0.00  0.00    +0.065 C 
ATOM      6  C   UNL     1      32.657 -12.025 -22.041  0.00  0.00    +0.055 C 
ATOM      7  C   UNL     1      31.817 -10.031 -20.970  0.00  0.00    +0.012 C 
ATOM      8  C   UNL     1      32.381 -12.804 -20.911  0.00  0.00    +0.016 C 
ATOM      9  C   UNL     1      31.536 -10.798 -19.834  0.00  0.00    +0.058 C 
ATOM     10  C   UNL     1      31.814 -12.163 -19.807  0.00  0.00    +0.013 C 
ENDROOT
BRANCH   2  12
ATOM     11  F   UNL     1      34.844 -17.443 -24.689  0.00  0.00    -0.204 F 
ATOM     12  C   UNL     1      33.620 -13.664 -23.618  0.00  0.00    +0.056 C 
ATOM     13  C   UNL     1      34.530 -14.339 -22.818  0.00  0.00    +0.017 C 
ATOM     14  C   UNL     1      33.116 -14.242 -24.774  0.00  0.00    +0.017 C 
ATOM     15  C   UNL     1      34.946 -15.620 -23.181  0.00  0.00    +0.031 C 
ATOM     16  C   UNL     1      33.532 -15.523 -25.137  0.00  0.00    +0.031 C 
ATOM     17  C   UNL     1      34.446 -16.213 -24.341  0.00  0.00    +0.140 C 
ENDBRANCH   2  12
BRANCH   3  19
ATOM     18  N   UNL     1      32.166  -5.924 -23.614  0.00  0.00    +0.388 N 
ATOM     19  C   UNL     1      32.700  -8.793 -23.907  0.00  0.00    +0.019 C 
ATOM     20  C   UNL     1      31.275  -8.223 -23.822  0.00  0.00    -0.018 C 
ATOM     21  C   UNL     1      33.685  -7.836 -23.218  0.00  0.00    -0.018 C 
ATOM     22  C   UNL     1      31.221  -6.784 -24.340  0.00  0.00    -0.077 C 
ATOM     23  C   UNL     1      33.544  -6.410 -23.757  0.00  0.00    -0.077 C 
ATOM     24  H   UNL     1      31.922  -5.954 -22.624  0.00  0.00    -0.080 HD
BRANCH  18  25
ATOM     25  C   UNL     1      32.061  -4.541 -24.081  0.00  0.00    -0.055 C 
BRANCH  25  26
ATOM     26  C   UNL     1      33.187  -4.225 -25.054  0.00  0.00    +0.077 C 
BRANCH  26  28
ATOM     27  O   UNL     1      33.833  -5.799 -27.532  0.00  0.00    -0.252 OA
ATOM     28  N   UNL     1      32.690  -4.076 -26.395  0.00  0.00    -0.243 N 
ATOM     29  N   UNL     1      32.297  -4.392 -28.599  0.00  0.00    -0.266 N 
ATOM     30  C   UNL     1      31.665  -3.107 -26.741  0.00  0.00    +0.085 C 
ATOM     31  C   UNL     1      31.494  -3.249 -28.245  0.00  0.00    +0.082 C 
ATOM     32  C   UNL     1      33.038  -4.868 -27.507  0.00  0.00    +0.311 C 
ATOM     33  H   UNL     1      32.322  -4.790 -29.500  0.00  0.00    +0.157 HD
ENDBRANCH  26  28
ENDBRANCH  25  26
ENDBRANCH  18  25
ENDBRANCH   3  19
TORSDOF 5
ENDMDL
MODEL 6
REMARK VINA RESULT:      -9.9     10.207     13.857
REMARK  Name = 60149
REMARK  5 active torsions:
REMARK  status: ('A' for Active; 'I' for Inactive)
REMARK    1  A    between atoms: N_2  and  C_12
REMARK    2  A    between atoms: C_3  and  C_19
REMARK    3  A    between atoms: N_18  and  C_25
REMARK    4  A    between atoms: C_25  and  C_26
REMARK    5  A    between atoms: C_26  and  N_28
REMARK                            x       y       z     vdW  Elec       q    Type
REMARK                         _______ _______ _______ _____ _____    ______ ____
ROOT
ATOM      1 CL   UNL     1      30.721 -10.068 -18.342  0.00  0.00    -0.082 Cl
ATOM      2  N   UNL     1      33.313 -12.175 -23.135  0.00  0.00    -0.265 N 
ATOM      3  C   UNL     1      33.106  -9.971 -23.080  0.00  0.00    -0.006 C 
ATOM      4  C   UNL     1      32.544 -10.494 -21.885  0.00  0.00    +0.012 C 
ATOM      5  C   UNL     1      33.570 -11.023 -23.829  0.00  0.00    +0.065 C 
ATOM      6  C   UNL     1      32.688 -11.882 -21.944  0.00  0.00    +0.055 C 
ATOM      7  C   UNL     1      31.927  -9.923 -20.755  0.00  0.00    +0.012 C 
ATOM      8  C   UNL     1      32.243 -12.730 -20.923  0.00  0.00    +0.016 C 
ATOM      9  C   UNL     1      31.476 -10.759 -19.728  0.00  0.00    +0.058 C 
ATOM     10  C   UNL     1      31.633 -12.141 -19.813  0.00  0.00    +0.013 C 
ENDROOT
BRANCH   2  12
ATOM     11  F   UNL     1      34.638 -17.218 -24.921  0.00  0.00    -0.204 F 
ATOM     12  C   UNL     1      33.649 -13.454 -23.588  0.00  0.00    +0.056 C 
ATOM     13  C   UNL     1      33.099 -13.925 -24.771  0.00  0.00    +0.017 C 
ATOM     14  C   UNL     1      34.527 -14.231 -22.847  0.00  0.00    +0.017 C 
ATOM     15  C   UNL     1      33.434 -15.202 -25.223  0.00  0.00    +0.031 C 
ATOM     16  C   UNL     1      34.862 -15.508 -23.298  0.00  0.00    +0.031 C 
ATOM     17  C   UNL     1      34.316 -15.993 -24.487  0.00  0.00    +0.140 C 
ENDBRANCH   2  12
BRANCH   3  19
ATOM     18  N   UNL     1      33.957  -6.319 -25.257  0.00  0.00    +0.388 N 
ATOM     19  C   UNL     1      33.182  -8.512 -23.470  0.00  0.00    +0.019 C 
ATOM     20  C   UNL     1      34.628  -7.998 -23.568  0.00  0.00    -0.018 C 
ATOM     21  C   UNL     1      32.431  -8.206 -24.776  0.00  0.00    -0.018 C 
ATOM     22  C   UNL     1      34.667  -6.527 -23.988  0.00  0.00    -0.077 C 
ATOM     23  C   UNL     1      32.551  -6.727 -25.152  0.00  0.00    -0.077 C 
ATOM     24  H   UNL     1      34.402  -6.902 -25.966  0.00  0.00    -0.080 HD
BRANCH  18  25
ATOM     25  C   UNL     1      34.053  -4.919 -25.673  0.00  0.00    -0.055 C 
BRANCH  25  26
ATOM     26  C   UNL     1      35.075  -4.768 -26.790  0.00  0.00    +0.077 C 
BRANCH  26  28
ATOM     27  O   UNL     1      36.389  -6.852 -28.513  0.00  0.00    -0.252 OA
ATOM     28  N   UNL     1      34.613  -5.384 -28.004  0.00  0.00    -0.243 N 
ATOM     29  N   UNL     1      34.464  -6.700 -29.836  0.00  0.00    -0.266 N 
ATOM     30  C   UNL     1      33.302  -5.107 -28.566  0.00  0.00    +0.085 C 
ATOM     31  C   UNL     1      33.261  -5.908 -29.858  0.00  0.00    +0.082 C 
ATOM     32  C   UNL     1      35.290  -6.367 -28.752  0.00  0.00    +0.311 C 
ATOM     33  H   UNL     1      34.681  -7.392 -30.503  0.00  0.00    +0.157 HD
ENDBRANCH  26  28
ENDBRANCH  25  26
ENDBRANCH  18  25
ENDBRANCH   3  19
TORSDOF 5
ENDMDL
MODEL 7
REMARK VINA RESULT:      -9.8      8.767     14.923
REMARK  Name = 60149
REMARK  5 active torsions:
REMARK  status: ('A' for Active; 'I' for Inactive)
REMARK    1  A    between atoms: N_2  and  C_12
REMARK    2  A    between atoms: C_3  and  C_19
REMARK    3  A    between atoms: N_18  and  C_25
REMARK    4  A    between atoms: C_25  and  C_26
REMARK    5  A    between atoms: C_26  and  N_28
REMARK                            x       y       z     vdW  Elec       q    Type
REMARK                         _______ _______ _______ _____ _____    ______ ____
ROOT
ATOM      1 CL   UNL     1      31.747 -10.415 -17.519  0.00  0.00    -0.082 Cl
ATOM      2  N   UNL     1      31.841  -7.606 -22.641  0.00  0.00    -0.265 N 
ATOM      3  C   UNL     1      32.214  -9.786 -22.766  0.00  0.00    -0.006 C 
ATOM      4  C   UNL     1      32.011  -9.453 -21.400  0.00  0.00    +0.012 C 
ATOM      5  C   UNL     1      32.104  -8.635 -23.505  0.00  0.00    +0.065 C 
ATOM      6  C   UNL     1      31.778  -8.078 -21.349  0.00  0.00    +0.055 C 
ATOM      7  C   UNL     1      32.002 -10.189 -20.198  0.00  0.00    +0.012 C 
ATOM      8  C   UNL     1      31.535  -7.398 -20.149  0.00  0.00    +0.016 C 
ATOM      9  C   UNL     1      31.761  -9.522 -18.992  0.00  0.00    +0.058 C 
ATOM     10  C   UNL     1      31.531  -8.148 -18.970  0.00  0.00    +0.013 C 
ENDROOT
BRANCH   2  12
ATOM     11  F   UNL     1      31.136  -2.366 -24.196  0.00  0.00    -0.204 F 
ATOM     12  C   UNL     1      31.662  -6.278 -23.035  0.00  0.00    +0.056 C 
ATOM     13  C   UNL     1      32.039  -5.255 -22.178  0.00  0.00    +0.017 C 
ATOM     14  C   UNL     1      31.110  -6.004 -24.278  0.00  0.00    +0.017 C 
ATOM     15  C   UNL     1      31.860  -3.928 -22.571  0.00  0.00    +0.031 C 
ATOM     16  C   UNL     1      30.931  -4.677 -24.671  0.00  0.00    +0.031 C 
ATOM     17  C   UNL     1      31.307  -3.639 -23.818  0.00  0.00    +0.140 C 
ENDBRANCH   2  12
BRANCH   3  19
ATOM     18  N   UNL     1      33.860 -13.764 -23.286  0.00  0.00    +0.388 N 
ATOM     19  C   UNL     1      32.503 -11.163 -23.319  0.00  0.00    +0.019 C 
ATOM     20  C   UNL     1      33.968 -11.335 -23.749  0.00  0.00    -0.018 C 
ATOM     21  C   UNL     1      32.110 -12.287 -22.348  0.00  0.00    -0.018 C 
ATOM     22  C   UNL     1      34.229 -12.747 -24.281  0.00  0.00    -0.077 C 
ATOM     23  C   UNL     1      32.439 -13.665 -22.929  0.00  0.00    -0.077 C 
ATOM     24  H   UNL     1      34.409 -13.594 -22.444  0.00  0.00    -0.080 HD
BRANCH  18  25
ATOM     25  C   UNL     1      34.169 -15.104 -23.787  0.00  0.00    -0.055 C 
BRANCH  25  26
ATOM     26  C   UNL     1      35.145 -15.804 -22.854  0.00  0.00    +0.077 C 
BRANCH  26  28
ATOM     27  O   UNL     1      35.665 -17.895 -20.759  0.00  0.00    -0.252 OA
ATOM     28  N   UNL     1      34.997 -17.233 -22.922  0.00  0.00    -0.243 N 
ATOM     29  N   UNL     1      34.948 -19.426 -22.377  0.00  0.00    -0.266 N 
ATOM     30  C   UNL     1      34.458 -17.903 -24.093  0.00  0.00    +0.085 C 
ATOM     31  C   UNL     1      34.540 -19.384 -23.758  0.00  0.00    +0.082 C 
ATOM     32  C   UNL     1      35.254 -18.149 -21.884  0.00  0.00    +0.311 C 
ATOM     33  H   UNL     1      35.004 -20.253 -21.844  0.00  0.00    +0.157 HD
ENDBRANCH  26  28
ENDBRANCH  25  26
ENDBRANCH  18  25
ENDBRANCH   3  19
TORSDOF 5
ENDMDL
MODEL 8
REMARK VINA RESULT:      -9.1      3.002      4.614
REMARK  Name = 60149
REMARK  5 active torsions:
REMARK  status: ('A' for Active; 'I' for Inactive)
REMARK    1  A    between atoms: N_2  and  C_12
REMARK    2  A    between atoms: C_3  and  C_19
REMARK    3  A    between atoms: N_18  and  C_25
REMARK    4  A    between atoms: C_25  and  C_26
REMARK    5  A    between atoms: C_26  and  N_28
REMARK                            x       y       z     vdW  Elec       q    Type
REMARK                         _______ _______ _______ _____ _____    ______ ____
ROOT
ATOM      1 CL   UNL     1      38.021 -23.461 -12.393  0.00  0.00    -0.082 Cl
ATOM      2  N   UNL     1      32.945 -23.745 -15.272  0.00  0.00    -0.265 N 
ATOM      3  C   UNL     1      34.642 -22.950 -16.451  0.00  0.00    -0.006 C 
ATOM      4  C   UNL     1      35.120 -23.259 -15.150  0.00  0.00    +0.012 C 
ATOM      5  C   UNL     1      33.306 -23.257 -16.499  0.00  0.00    +0.065 C 
ATOM      6  C   UNL     1      34.033 -23.758 -14.429  0.00  0.00    +0.055 C 
ATOM      7  C   UNL     1      36.373 -23.165 -14.512  0.00  0.00    +0.012 C 
ATOM      8  C   UNL     1      34.138 -24.170 -13.095  0.00  0.00    +0.016 C 
ATOM      9  C   UNL     1      36.491 -23.572 -13.179  0.00  0.00    +0.058 C 
ATOM     10  C   UNL     1      35.390 -24.066 -12.483  0.00  0.00    +0.013 C 
ENDROOT
BRANCH   2  12
ATOM     11  F   UNL     1      27.851 -25.407 -13.983  0.00  0.00    -0.204 F 
ATOM     12  C   UNL     1      31.653 -24.166 -14.945  0.00  0.00    +0.056 C 
ATOM     13  C   UNL     1      31.484 -25.254 -14.101  0.00  0.00    +0.017 C 
ATOM     14  C   UNL     1      30.562 -23.490 -15.471  0.00  0.00    +0.017 C 
ATOM     15  C   UNL     1      30.194 -25.675 -13.775  0.00  0.00    +0.031 C 
ATOM     16  C   UNL     1      29.272 -23.912 -15.146  0.00  0.00    +0.031 C 
ATOM     17  C   UNL     1      29.088 -25.004 -14.297  0.00  0.00    +0.140 C 
ENDBRANCH   2  12
BRANCH   3  19
ATOM     18  N   UNL     1      36.147 -20.275 -19.516  0.00  0.00    +0.388 N 
ATOM     19  C   UNL     1      35.456 -22.379 -17.591  0.00  0.00    +0.019 C 
ATOM     20  C   UNL     1      34.607 -22.091 -18.841  0.00  0.00    -0.018 C 
ATOM     21  C   UNL     1      36.236 -21.117 -17.191  0.00  0.00    -0.018 C 
ATOM     22  C   UNL     1      35.458 -21.494 -19.964  0.00  0.00    -0.077 C 
ATOM     23  C   UNL     1      37.027 -20.553 -18.374  0.00  0.00    -0.077 C 
ATOM     24  H   UNL     1      35.439 -19.607 -19.212  0.00  0.00    -0.080 HD
BRANCH  18  25
ATOM     25  C   UNL     1      36.909 -19.685 -20.617  0.00  0.00    -0.055 C 
BRANCH  25  26
ATOM     26  C   UNL     1      36.396 -18.286 -20.923  0.00  0.00    +0.077 C 
BRANCH  26  28
ATOM     27  O   UNL     1      35.459 -15.961 -22.582  0.00  0.00    -0.252 OA
ATOM     28  N   UNL     1      35.611 -18.271 -22.128  0.00  0.00    -0.243 N 
ATOM     29  N   UNL     1      34.498 -17.581 -23.971  0.00  0.00    -0.266 N 
ATOM     30  C   UNL     1      35.195 -19.490 -22.799  0.00  0.00    +0.085 C 
ATOM     31  C   UNL     1      34.350 -19.014 -23.970  0.00  0.00    +0.082 C 
ATOM     32  C   UNL     1      35.220 -17.130 -22.855  0.00  0.00    +0.311 C 
ATOM     33  H   UNL     1      34.135 -16.990 -24.670  0.00  0.00    +0.157 HD
ENDBRANCH  26  28
ENDBRANCH  25  26
ENDBRANCH  18  25
ENDBRANCH   3  19
TORSDOF 5
ENDMDL
MODEL 9
REMARK VINA RESULT:      -9.0     10.178     17.304
REMARK  Name = 60149
REMARK  5 active torsions:
REMARK  status: ('A' for Active; 'I' for Inactive)
REMARK    1  A    between atoms: N_2  and  C_12
REMARK    2  A    between atoms: C_3  and  C_19
REMARK    3  A    between atoms: N_18  and  C_25
REMARK    4  A    between atoms: C_25  and  C_26
REMARK    5  A    between atoms: C_26  and  N_28
REMARK                            x       y       z     vdW  Elec       q    Type
REMARK                         _______ _______ _______ _____ _____    ______ ____
ROOT
ATOM      1 CL   UNL     1      30.045  -2.724 -21.404  0.00  0.00    -0.082 Cl
ATOM      2  N   UNL     1      33.326  -5.882 -25.065  0.00  0.00    -0.265 N 
ATOM      3  C   UNL     1      32.299  -7.052 -23.490  0.00  0.00    -0.006 C 
ATOM      4  C   UNL     1      31.957  -5.684 -23.314  0.00  0.00    +0.012 C 
ATOM      5  C   UNL     1      33.140  -7.145 -24.570  0.00  0.00    +0.065 C 
ATOM      6  C   UNL     1      32.615  -4.970 -24.317  0.00  0.00    +0.055 C 
ATOM      7  C   UNL     1      31.150  -4.981 -22.398  0.00  0.00    +0.012 C 
ATOM      8  C   UNL     1      32.506  -3.581 -24.451  0.00  0.00    +0.016 C 
ATOM      9  C   UNL     1      31.032  -3.592 -22.520  0.00  0.00    +0.058 C 
ATOM     10  C   UNL     1      31.701  -2.904 -23.531  0.00  0.00    +0.013 C 
ENDROOT
BRANCH   2  12
ATOM     11  F   UNL     1      36.476  -4.710 -29.433  0.00  0.00    -0.204 F 
ATOM     12  C   UNL     1      34.125  -5.585 -26.172  0.00  0.00    +0.056 C 
ATOM     13  C   UNL     1      33.581  -5.661 -27.446  0.00  0.00    +0.017 C 
ATOM     14  C   UNL     1      35.449  -5.219 -25.980  0.00  0.00    +0.017 C 
ATOM     15  C   UNL     1      34.378  -5.365 -28.552  0.00  0.00    +0.031 C 
ATOM     16  C   UNL     1      36.247  -4.924 -27.086  0.00  0.00    +0.031 C 
ATOM     17  C   UNL     1      35.711  -4.995 -28.372  0.00  0.00    +0.140 C 
ENDBRANCH   2  12
BRANCH   3  19
ATOM     18  N   UNL     1      32.256 -10.653 -21.075  0.00  0.00    +0.388 N 
ATOM     19  C   UNL     1      31.826  -8.209 -22.639  0.00  0.00    +0.019 C 
ATOM     20  C   UNL     1      32.088  -9.575 -23.296  0.00  0.00    -0.018 C 
ATOM     21  C   UNL     1      32.424  -8.189 -21.224  0.00  0.00    -0.018 C 
ATOM     22  C   UNL     1      31.619 -10.721 -22.398  0.00  0.00    -0.077 C 
ATOM     23  C   UNL     1      31.944  -9.387 -20.400  0.00  0.00    -0.077 C 
ATOM     24  H   UNL     1      33.266 -10.698 -21.210  0.00  0.00    -0.080 HD
BRANCH  18  25
ATOM     25  C   UNL     1      31.842 -11.788 -20.250  0.00  0.00    -0.055 C 
BRANCH  25  26
ATOM     26  C   UNL     1      31.632 -13.022 -21.115  0.00  0.00    +0.077 C 
BRANCH  26  28
ATOM     27  O   UNL     1      33.388 -13.669 -23.467  0.00  0.00    -0.252 OA
ATOM     28  N   UNL     1      32.826 -13.821 -21.180  0.00  0.00    -0.243 N 
ATOM     29  N   UNL     1      34.685 -14.867 -21.930  0.00  0.00    -0.266 N 
ATOM     30  C   UNL     1      33.432 -14.411 -19.999  0.00  0.00    +0.085 C 
ATOM     31  C   UNL     1      34.613 -15.207 -20.532  0.00  0.00    +0.082 C 
ATOM     32  C   UNL     1      33.602 -14.069 -22.329  0.00  0.00    +0.311 C 
ATOM     33  H   UNL     1      35.407 -15.161 -22.532  0.00  0.00    +0.157 HD
ENDBRANCH  26  28
ENDBRANCH  25  26
ENDBRANCH  18  25
ENDBRANCH   3  19
TORSDOF 5
ENDMDL
