MODEL 1
REMARK VINA RESULT:     -11.6      0.000      0.000
REMARK  Name = 66000
REMARK  8 active torsions:
REMARK  status: ('A' for Active; 'I' for Inactive)
REMARK    1  A    between atoms: C_1  and  O_19
REMARK    2  A    between atoms: C_4  and  C_7
REMARK    3  A    between atoms: C_10  and  C_15
REMARK    4  A    between atoms: O_19  and  C_20
REMARK    5  A    between atoms: C_20  and  C_24
REMARK    6  A    between atoms: C_23  and  C_28
REMARK    7  A    between atoms: C_28  and  C_30
REMARK    8  A    between atoms: C_30  and  O_31
REMARK                            x       y       z     vdW  Elec       q    Type
REMARK                         _______ _______ _______ _____ _____    ______ ____
ROOT
ATOM      1  C   UNL     1      35.360 -22.381 -17.614  0.00  0.00    +0.139 C 
ATOM      2  C   UNL     1      36.493 -21.679 -18.007  0.00  0.00    +0.037 C 
ATOM      3  C   UNL     1      34.147 -22.197 -18.266  0.00  0.00    +0.037 C 
ATOM      4  C   UNL     1      35.198 -20.586 -19.728  0.00  0.00    +0.000 C 
ATOM      5  C   UNL     1      36.411 -20.778 -19.067  0.00  0.00    +0.003 C 
ATOM      6  C   UNL     1      34.065 -21.294 -19.327  0.00  0.00    +0.003 C 
ENDROOT
BRANCH   4   7
ATOM      7  C   UNL     1      35.113 -19.650 -20.828  0.00  0.00    +0.000 C 
ATOM      8  C   UNL     1      35.701 -18.389 -20.719  0.00  0.00    +0.000 C 
ATOM      9  C   UNL     1      34.444 -20.008 -21.999  0.00  0.00    +0.000 C 
ATOM     10  C   UNL     1      34.951 -17.846 -22.950  0.00  0.00    +0.031 C 
ATOM     11  C   UNL     1      35.620 -17.487 -21.780  0.00  0.00    +0.003 C 
ATOM     12  C   UNL     1      34.363 -19.106 -23.060  0.00  0.00    +0.003 C 
BRANCH  10  15
ATOM     13  N   UNL     1      35.558 -15.696 -24.035  0.00  0.00    -0.343 N 
ATOM     14  N   UNL     1      34.117 -17.191 -25.107  0.00  0.00    -0.285 NA
ATOM     15  C   UNL     1      34.866 -16.905 -24.056  0.00  0.00    +0.117 C 
ATOM     16  H   UNL     1      35.485 -15.074 -24.794  0.00  0.00    +0.144 HD
ATOM     17  H   UNL     1      36.118 -15.464 -23.260  0.00  0.00    +0.144 HD
ATOM     18  H   UNL     1      34.057 -16.556 -25.857  0.00  0.00    +0.188 HD
ENDBRANCH  10  15
ENDBRANCH   4   7
BRANCH   1  19
ATOM     19  O   UNL     1      35.440 -23.268 -16.569  0.00  0.00    -0.474 OA
BRANCH  19  20
ATOM     20  C   UNL     1      36.180 -22.858 -15.433  0.00  0.00    +0.225 C 
BRANCH  20  24
ATOM     21  O   UNL     1      36.820 -27.201 -15.406  0.00  0.00    -0.275 OA
ATOM     22  N   UNL     1      35.708 -25.202 -14.909  0.00  0.00    -0.302 N 
ATOM     23  C   UNL     1      37.995 -25.296 -14.424  0.00  0.00    +0.089 C 
ATOM     24  C   UNL     1      36.028 -23.913 -14.345  0.00  0.00    +0.116 C 
ATOM     25  C   UNL     1      37.329 -24.189 -13.599  0.00  0.00    +0.033 C 
ATOM     26  C   UNL     1      36.803 -26.060 -14.967  0.00  0.00    +0.223 C 
ATOM     27  H   UNL     1      34.807 -25.450 -15.219  0.00  0.00    +0.149 HD
BRANCH  23  28
ATOM     28  C   UNL     1      38.932 -26.167 -13.609  0.00  0.00    +0.118 C 
BRANCH  28  30
ATOM     29  O   UNL     1      41.314 -26.675 -13.693  0.00  0.00    -0.250 OA
ATOM     30  C   UNL     1      40.297 -26.275 -14.239  0.00  0.00    +0.314 C 
BRANCH  30  31
ATOM     31  O   UNL     1      40.248 -25.859 -15.531  0.00  0.00    -0.480 OA
ATOM     32  H   UNL     1      40.338 -26.479 -16.227  0.00  0.00    +0.295 HD
ENDBRANCH  30  31
ENDBRANCH  28  30
ENDBRANCH  23  28
ENDBRANCH  20  24
ENDBRANCH  19  20
ENDBRANCH   1  19
TORSDOF 8
ENDMDL
MODEL 2
REMARK VINA RESULT:     -11.4      1.471      2.360
REMARK  Name = 66000
REMARK  8 active torsions:
REMARK  status: ('A' for Active; 'I' for Inactive)
REMARK    1  A    between atoms: C_1  and  O_19
REMARK    2  A    between atoms: C_4  and  C_7
REMARK    3  A    between atoms: C_10  and  C_15
REMARK    4  A    between atoms: O_19  and  C_20
REMARK    5  A    between atoms: C_20  and  C_24
REMARK    6  A    between atoms: C_23  and  C_28
REMARK    7  A    between atoms: C_28  and  C_30
REMARK    8  A    between atoms: C_30  and  O_31
REMARK                            x       y       z     vdW  Elec       q    Type
REMARK                         _______ _______ _______ _____ _____    ______ ____
ROOT
ATOM      1  C   UNL     1      34.695 -23.584 -15.412  0.00  0.00    +0.139 C 
ATOM      2  C   UNL     1      35.864 -22.884 -15.683  0.00  0.00    +0.037 C 
ATOM      3  C   UNL     1      33.616 -23.532 -16.284  0.00  0.00    +0.037 C 
ATOM      4  C   UNL     1      34.876 -22.060 -17.727  0.00  0.00    +0.000 C 
ATOM      5  C   UNL     1      35.955 -22.119 -16.845  0.00  0.00    +0.003 C 
ATOM      6  C   UNL     1      33.706 -22.766 -17.446  0.00  0.00    +0.003 C 
ENDROOT
BRANCH   4   7
ATOM      7  C   UNL     1      34.969 -21.265 -18.932  0.00  0.00    +0.000 C 
ATOM      8  C   UNL     1      33.810 -20.885 -19.609  0.00  0.00    +0.000 C 
ATOM      9  C   UNL     1      36.218 -20.878 -19.418  0.00  0.00    +0.000 C 
ATOM     10  C   UNL     1      35.148 -19.731 -21.256  0.00  0.00    +0.031 C 
ATOM     11  C   UNL     1      33.899 -20.118 -20.771  0.00  0.00    +0.003 C 
ATOM     12  C   UNL     1      36.308 -20.111 -20.580  0.00  0.00    +0.003 C 
BRANCH  10  15
ATOM     13  N   UNL     1      35.997 -17.762 -22.509  0.00  0.00    -0.343 N 
ATOM     14  N   UNL     1      34.596 -19.311 -23.557  0.00  0.00    -0.285 NA
ATOM     15  C   UNL     1      35.241 -18.932 -22.467  0.00  0.00    +0.117 C 
ATOM     16  H   UNL     1      36.045 -17.236 -23.340  0.00  0.00    +0.144 HD
ATOM     17  H   UNL     1      36.482 -17.461 -21.707  0.00  0.00    +0.144 HD
ATOM     18  H   UNL     1      34.657 -18.772 -24.378  0.00  0.00    +0.188 HD
ENDBRANCH  10  15
ENDBRANCH   4   7
BRANCH   1  19
ATOM     19  O   UNL     1      34.606 -24.337 -14.267  0.00  0.00    -0.474 OA
BRANCH  19  20
ATOM     20  C   UNL     1      35.423 -23.949 -13.177  0.00  0.00    +0.225 C 
BRANCH  20  24
ATOM     21  O   UNL     1      37.653 -27.224 -15.067  0.00  0.00    -0.275 OA
ATOM     22  N   UNL     1      36.125 -26.260 -13.580  0.00  0.00    -0.302 N 
ATOM     23  C   UNL     1      38.273 -25.334 -13.647  0.00  0.00    +0.089 C 
ATOM     24  C   UNL     1      36.105 -25.189 -12.613  0.00  0.00    +0.116 C 
ATOM     25  C   UNL     1      37.587 -24.973 -12.325  0.00  0.00    +0.033 C 
ATOM     26  C   UNL     1      37.360 -26.410 -14.205  0.00  0.00    +0.223 C 
ATOM     27  H   UNL     1      35.345 -26.827 -13.777  0.00  0.00    +0.149 HD
BRANCH  23  28
ATOM     28  C   UNL     1      39.703 -25.809 -13.468  0.00  0.00    +0.118 C 
BRANCH  28  30
ATOM     29  O   UNL     1      41.372 -24.346 -14.475  0.00  0.00    -0.250 OA
ATOM     30  C   UNL     1      40.610 -25.297 -14.558  0.00  0.00    +0.314 C 
BRANCH  30  31
ATOM     31  O   UNL     1      40.467 -26.054 -15.677  0.00  0.00    -0.480 OA
ATOM     32  H   UNL     1      40.775 -25.734 -16.502  0.00  0.00    +0.295 HD
ENDBRANCH  30  31
ENDBRANCH  28  30
ENDBRANCH  23  28
ENDBRANCH  20  24
ENDBRANCH  19  20
ENDBRANCH   1  19
TORSDOF 8
ENDMDL
MODEL 3
REMARK VINA RESULT:     -11.3      1.505      2.248
REMARK  Name = 66000
REMARK  8 active torsions:
REMARK  status: ('A' for Active; 'I' for Inactive)
REMARK    1  A    between atoms: C_1  and  O_19
REMARK    2  A    between atoms: C_4  and  C_7
REMARK    3  A    between atoms: C_10  and  C_15
REMARK    4  A    between atoms: O_19  and  C_20
REMARK    5  A    between atoms: C_20  and  C_24
REMARK    6  A    between atoms: C_23  and  C_28
REMARK    7  A    between atoms: C_28  and  C_30
REMARK    8  A    between atoms: C_30  and  O_31
REMARK                            x       y       z     vdW  Elec       q    Type
REMARK                         _______ _______ _______ _____ _____    ______ ____
ROOT
ATOM      1  C   UNL     1      34.587 -22.400 -18.225  0.00  0.00    +0.139 C 
ATOM      2  C   UNL     1      35.825 -21.884 -18.588  0.00  0.00    +0.037 C 
ATOM      3  C   UNL     1      33.416 -21.896 -18.778  0.00  0.00    +0.037 C 
ATOM      4  C   UNL     1      34.723 -20.335 -20.078  0.00  0.00    +0.000 C 
ATOM      5  C   UNL     1      35.893 -20.848 -19.518  0.00  0.00    +0.003 C 
ATOM      6  C   UNL     1      33.484 -20.858 -19.708  0.00  0.00    +0.003 C 
ENDROOT
BRANCH   4   7
ATOM      7  C   UNL     1      34.793 -19.259 -21.043  0.00  0.00    +0.000 C 
ATOM      8  C   UNL     1      34.495 -19.504 -22.384  0.00  0.00    +0.000 C 
ATOM      9  C   UNL     1      35.158 -17.976 -20.633  0.00  0.00    +0.000 C 
ATOM     10  C   UNL     1      34.926 -17.184 -22.903  0.00  0.00    +0.031 C 
ATOM     11  C   UNL     1      34.562 -18.466 -23.314  0.00  0.00    +0.003 C 
ATOM     12  C   UNL     1      35.224 -16.939 -21.563  0.00  0.00    +0.003 C 
BRANCH  10  15
ATOM     13  N   UNL     1      34.930 -14.768 -23.479  0.00  0.00    -0.343 N 
ATOM     14  N   UNL     1      35.121 -16.380 -25.160  0.00  0.00    -0.285 NA
ATOM     15  C   UNL     1      34.996 -16.103 -23.873  0.00  0.00    +0.117 C 
ATOM     16  H   UNL     1      34.978 -14.052 -24.153  0.00  0.00    +0.144 HD
ATOM     17  H   UNL     1      34.834 -14.541 -22.526  0.00  0.00    +0.144 HD
ATOM     18  H   UNL     1      35.168 -15.650 -25.818  0.00  0.00    +0.188 HD
ENDBRANCH  10  15
ENDBRANCH   4   7
BRANCH   1  19
ATOM     19  O   UNL     1      34.520 -23.420 -17.308  0.00  0.00    -0.474 OA
BRANCH  19  20
ATOM     20  C   UNL     1      33.899 -23.130 -16.068  0.00  0.00    +0.225 C 
BRANCH  20  24
ATOM     21  O   UNL     1      34.598 -24.688 -12.023  0.00  0.00    -0.275 OA
ATOM     22  N   UNL     1      34.486 -23.050 -13.692  0.00  0.00    -0.302 N 
ATOM     23  C   UNL     1      35.703 -24.988 -14.183  0.00  0.00    +0.089 C 
ATOM     24  C   UNL     1      34.982 -22.856 -15.033  0.00  0.00    +0.116 C 
ATOM     25  C   UNL     1      36.140 -23.846 -15.107  0.00  0.00    +0.033 C 
ATOM     26  C   UNL     1      34.882 -24.263 -13.133  0.00  0.00    +0.223 C 
ATOM     27  H   UNL     1      33.925 -22.393 -13.221  0.00  0.00    +0.149 HD
BRANCH  23  28
ATOM     28  C   UNL     1      36.869 -25.757 -13.592  0.00  0.00    +0.118 C 
BRANCH  28  30
ATOM     29  O   UNL     1      36.796 -27.261 -15.509  0.00  0.00    -0.250 OA
ATOM     30  C   UNL     1      37.381 -26.819 -14.531  0.00  0.00    +0.314 C 
BRANCH  30  31
ATOM     31  O   UNL     1      38.615 -27.233 -14.140  0.00  0.00    -0.480 OA
ATOM     32  H   UNL     1      38.728 -27.644 -13.306  0.00  0.00    +0.295 HD
ENDBRANCH  30  31
ENDBRANCH  28  30
ENDBRANCH  23  28
ENDBRANCH  20  24
ENDBRANCH  19  20
ENDBRANCH   1  19
TORSDOF 8
ENDMDL
MODEL 4
REMARK VINA RESULT:     -11.1      1.382      1.876
REMARK  Name = 66000
REMARK  8 active torsions:
REMARK  status: ('A' for Active; 'I' for Inactive)
REMARK    1  A    between atoms: C_1  and  O_19
REMARK    2  A    between atoms: C_4  and  C_7
REMARK    3  A    between atoms: C_10  and  C_15
REMARK    4  A    between atoms: O_19  and  C_20
REMARK    5  A    between atoms: C_20  and  C_24
REMARK    6  A    between atoms: C_23  and  C_28
REMARK    7  A    between atoms: C_28  and  C_30
REMARK    8  A    between atoms: C_30  and  O_31
REMARK                            x       y       z     vdW  Elec       q    Type
REMARK                         _______ _______ _______ _____ _____    ______ ____
ROOT
ATOM      1  C   UNL     1      35.324 -22.122 -17.996  0.00  0.00    +0.139 C 
ATOM      2  C   UNL     1      34.083 -21.898 -18.580  0.00  0.00    +0.037 C 
ATOM      3  C   UNL     1      36.454 -21.453 -18.447  0.00  0.00    +0.037 C 
ATOM      4  C   UNL     1      35.101 -20.315 -20.094  0.00  0.00    +0.000 C 
ATOM      5  C   UNL     1      33.971 -20.992 -19.633  0.00  0.00    +0.003 C 
ATOM      6  C   UNL     1      36.342 -20.546 -19.502  0.00  0.00    +0.003 C 
ENDROOT
BRANCH   4   7
ATOM      7  C   UNL     1      34.985 -19.375 -21.187  0.00  0.00    +0.000 C 
ATOM      8  C   UNL     1      35.335 -18.038 -20.997  0.00  0.00    +0.000 C 
ATOM      9  C   UNL     1      34.526 -19.805 -22.432  0.00  0.00    +0.000 C 
ATOM     10  C   UNL     1      34.766 -17.562 -23.296  0.00  0.00    +0.031 C 
ATOM     11  C   UNL     1      35.225 -17.131 -22.052  0.00  0.00    +0.003 C 
ATOM     12  C   UNL     1      34.416 -18.898 -23.487  0.00  0.00    +0.003 C 
BRANCH  10  15
ATOM     13  N   UNL     1      35.570 -15.582 -24.563  0.00  0.00    -0.343 N 
ATOM     14  N   UNL     1      33.655 -16.727 -25.257  0.00  0.00    -0.285 NA
ATOM     15  C   UNL     1      34.651 -16.616 -24.395  0.00  0.00    +0.117 C 
ATOM     16  H   UNL     1      35.472 -14.953 -25.313  0.00  0.00    +0.144 HD
ATOM     17  H   UNL     1      36.316 -15.481 -23.929  0.00  0.00    +0.144 HD
ATOM     18  H   UNL     1      33.575 -16.088 -26.002  0.00  0.00    +0.188 HD
ENDBRANCH  10  15
ENDBRANCH   4   7
BRANCH   1  19
ATOM     19  O   UNL     1      35.433 -23.016 -16.959  0.00  0.00    -0.474 OA
BRANCH  19  20
ATOM     20  C   UNL     1      36.347 -22.692 -15.925  0.00  0.00    +0.225 C 
BRANCH  20  24
ATOM     21  O   UNL     1      36.497 -26.943 -14.839  0.00  0.00    -0.275 OA
ATOM     22  N   UNL     1      35.558 -24.803 -14.969  0.00  0.00    -0.302 N 
ATOM     23  C   UNL     1      37.741 -24.958 -14.142  0.00  0.00    +0.089 C 
ATOM     24  C   UNL     1      35.944 -23.447 -14.665  0.00  0.00    +0.116 C 
ATOM     25  C   UNL     1      37.102 -23.639 -13.692  0.00  0.00    +0.033 C 
ATOM     26  C   UNL     1      36.550 -25.734 -14.672  0.00  0.00    +0.223 C 
ATOM     27  H   UNL     1      34.682 -25.046 -15.347  0.00  0.00    +0.149 HD
BRANCH  23  28
ATOM     28  C   UNL     1      38.466 -25.683 -13.024  0.00  0.00    +0.118 C 
BRANCH  28  30
ATOM     29  O   UNL     1      37.887 -24.732 -10.856  0.00  0.00    -0.250 OA
ATOM     30  C   UNL     1      37.727 -25.587 -11.713  0.00  0.00    +0.314 C 
BRANCH  30  31
ATOM     31  O   UNL     1      36.831 -26.602 -11.608  0.00  0.00    -0.480 OA
ATOM     32  H   UNL     1      36.911 -27.228 -10.915  0.00  0.00    +0.295 HD
ENDBRANCH  30  31
ENDBRANCH  28  30
ENDBRANCH  23  28
ENDBRANCH  20  24
ENDBRANCH  19  20
ENDBRANCH   1  19
TORSDOF 8
ENDMDL
MODEL 5
REMARK VINA RESULT:     -11.0      1.752      2.584
REMARK  Name = 66000
REMARK  8 active torsions:
REMARK  status: ('A' for Active; 'I' for Inactive)
REMARK    1  A    between atoms: C_1  and  O_19
REMARK    2  A    between atoms: C_4  and  C_7
REMARK    3  A    between atoms: C_10  and  C_15
REMARK    4  A    between atoms: O_19  and  C_20
REMARK    5  A    between atoms: C_20  and  C_24
REMARK    6  A    between atoms: C_23  and  C_28
REMARK    7  A    between atoms: C_28  and  C_30
REMARK    8  A    between atoms: C_30  and  O_31
REMARK                            x       y       z     vdW  Elec       q    Type
REMARK                         _______ _______ _______ _____ _____    ______ ____
ROOT
ATOM      1  C   UNL     1      34.990 -22.390 -17.898  0.00  0.00    +0.139 C 
ATOM      2  C   UNL     1      36.174 -21.763 -18.265  0.00  0.00    +0.037 C 
ATOM      3  C   UNL     1      33.793 -22.079 -18.531  0.00  0.00    +0.037 C 
ATOM      4  C   UNL     1      34.964 -20.487 -19.921  0.00  0.00    +0.000 C 
ATOM      5  C   UNL     1      36.160 -20.807 -19.281  0.00  0.00    +0.003 C 
ATOM      6  C   UNL     1      33.780 -21.122 -19.546  0.00  0.00    +0.003 C 
ENDROOT
BRANCH   4   7
ATOM      7  C   UNL     1      34.949 -19.495 -20.974  0.00  0.00    +0.000 C 
ATOM      8  C   UNL     1      34.417 -19.812 -22.224  0.00  0.00    +0.000 C 
ATOM      9  C   UNL     1      35.466 -18.221 -20.740  0.00  0.00    +0.000 C 
ATOM     10  C   UNL     1      34.919 -17.582 -23.004  0.00  0.00    +0.031 C 
ATOM     11  C   UNL     1      34.402 -18.855 -23.240  0.00  0.00    +0.003 C 
ATOM     12  C   UNL     1      35.451 -17.264 -21.755  0.00  0.00    +0.003 C 
BRANCH  10  15
ATOM     13  N   UNL     1      35.429 -15.309 -23.867  0.00  0.00    -0.343 N 
ATOM     14  N   UNL     1      34.378 -16.882 -25.240  0.00  0.00    -0.285 NA
ATOM     15  C   UNL     1      34.903 -16.585 -24.063  0.00  0.00    +0.117 C 
ATOM     16  H   UNL     1      35.407 -14.650 -24.598  0.00  0.00    +0.144 HD
ATOM     17  H   UNL     1      35.821 -15.068 -22.997  0.00  0.00    +0.144 HD
ATOM     18  H   UNL     1      34.367 -16.209 -25.958  0.00  0.00    +0.188 HD
ENDBRANCH  10  15
ENDBRANCH   4   7
BRANCH   1  19
ATOM     19  O   UNL     1      35.003 -23.331 -16.898  0.00  0.00    -0.474 OA
BRANCH  19  20
ATOM     20  C   UNL     1      35.591 -22.951 -15.666  0.00  0.00    +0.225 C 
BRANCH  20  24
ATOM     21  O   UNL     1      39.021 -24.484 -13.395  0.00  0.00    -0.275 OA
ATOM     22  N   UNL     1      37.165 -24.622 -14.815  0.00  0.00    -0.302 N 
ATOM     23  C   UNL     1      36.868 -23.503 -12.781  0.00  0.00    +0.089 C 
ATOM     24  C   UNL     1      35.786 -24.198 -14.814  0.00  0.00    +0.116 C 
ATOM     25  C   UNL     1      35.512 -23.956 -13.334  0.00  0.00    +0.033 C 
ATOM     26  C   UNL     1      37.847 -24.264 -13.654  0.00  0.00    +0.223 C 
ATOM     27  H   UNL     1      37.582 -25.113 -15.559  0.00  0.00    +0.149 HD
BRANCH  23  28
ATOM     28  C   UNL     1      37.040 -23.801 -11.303  0.00  0.00    +0.118 C 
BRANCH  28  30
ATOM     29  O   UNL     1      36.979 -26.237 -11.308  0.00  0.00    -0.250 OA
ATOM     30  C   UNL     1      36.521 -25.168 -10.936  0.00  0.00    +0.314 C 
BRANCH  30  31
ATOM     31  O   UNL     1      35.447 -25.052 -10.113  0.00  0.00    -0.480 OA
ATOM     32  H   UNL     1      34.965 -25.816  -9.861  0.00  0.00    +0.295 HD
ENDBRANCH  30  31
ENDBRANCH  28  30
ENDBRANCH  23  28
ENDBRANCH  20  24
ENDBRANCH  19  20
ENDBRANCH   1  19
TORSDOF 8
ENDMDL
MODEL 6
REMARK VINA RESULT:     -10.9      3.226      5.264
REMARK  Name = 66000
REMARK  8 active torsions:
REMARK  status: ('A' for Active; 'I' for Inactive)
REMARK    1  A    between atoms: C_1  and  O_19
REMARK    2  A    between atoms: C_4  and  C_7
REMARK    3  A    between atoms: C_10  and  C_15
REMARK    4  A    between atoms: O_19  and  C_20
REMARK    5  A    between atoms: C_20  and  C_24
REMARK    6  A    between atoms: C_23  and  C_28
REMARK    7  A    between atoms: C_28  and  C_30
REMARK    8  A    between atoms: C_30  and  O_31
REMARK                            x       y       z     vdW  Elec       q    Type
REMARK                         _______ _______ _______ _____ _____    ______ ____
ROOT
ATOM      1  C   UNL     1      34.797 -22.446 -17.917  0.00  0.00    +0.139 C 
ATOM      2  C   UNL     1      36.006 -21.874 -18.294  0.00  0.00    +0.037 C 
ATOM      3  C   UNL     1      33.609 -22.068 -18.531  0.00  0.00    +0.037 C 
ATOM      4  C   UNL     1      34.839 -20.520 -19.919  0.00  0.00    +0.000 C 
ATOM      5  C   UNL     1      36.027 -20.907 -19.298  0.00  0.00    +0.003 C 
ATOM      6  C   UNL     1      33.630 -21.100 -19.535  0.00  0.00    +0.003 C 
ENDROOT
BRANCH   4   7
ATOM      7  C   UNL     1      34.861 -19.516 -20.961  0.00  0.00    +0.000 C 
ATOM      8  C   UNL     1      35.293 -18.222 -20.673  0.00  0.00    +0.000 C 
ATOM      9  C   UNL     1      34.450 -19.843 -22.253  0.00  0.00    +0.000 C 
ATOM     10  C   UNL     1      34.904 -17.581 -22.970  0.00  0.00    +0.031 C 
ATOM     11  C   UNL     1      35.314 -17.254 -21.678  0.00  0.00    +0.003 C 
ATOM     12  C   UNL     1      34.472 -18.876 -23.258  0.00  0.00    +0.003 C 
BRANCH  10  15
ATOM     13  N   UNL     1      35.487 -15.315 -23.802  0.00  0.00    -0.343 N 
ATOM     14  N   UNL     1      34.403 -16.840 -25.201  0.00  0.00    -0.285 NA
ATOM     15  C   UNL     1      34.927 -16.572 -24.017  0.00  0.00    +0.117 C 
ATOM     16  H   UNL     1      35.491 -14.647 -24.525  0.00  0.00    +0.144 HD
ATOM     17  H   UNL     1      35.880 -15.095 -22.926  0.00  0.00    +0.144 HD
ATOM     18  H   UNL     1      34.416 -16.159 -25.911  0.00  0.00    +0.188 HD
ENDBRANCH  10  15
ENDBRANCH   4   7
BRANCH   1  19
ATOM     19  O   UNL     1      34.776 -23.398 -16.928  0.00  0.00    -0.474 OA
BRANCH  19  20
ATOM     20  C   UNL     1      34.298 -22.994 -15.657  0.00  0.00    +0.225 C 
BRANCH  20  24
ATOM     21  O   UNL     1      31.659 -23.120 -12.151  0.00  0.00    -0.275 OA
ATOM     22  N   UNL     1      33.158 -23.982 -13.729  0.00  0.00    -0.302 N 
ATOM     23  C   UNL     1      31.298 -22.823 -14.550  0.00  0.00    +0.089 C 
ATOM     24  C   UNL     1      33.289 -24.023 -15.166  0.00  0.00    +0.116 C 
ATOM     25  C   UNL     1      31.869 -23.737 -15.639  0.00  0.00    +0.033 C 
ATOM     26  C   UNL     1      32.012 -23.314 -13.305  0.00  0.00    +0.223 C 
ATOM     27  H   UNL     1      33.810 -24.386 -13.113  0.00  0.00    +0.149 HD
BRANCH  23  28
ATOM     28  C   UNL     1      29.787 -22.904 -14.433  0.00  0.00    +0.118 C 
BRANCH  28  30
ATOM     29  O   UNL     1      29.005 -22.100 -16.596  0.00  0.00    -0.250 OA
ATOM     30  C   UNL     1      29.119 -23.002 -15.781  0.00  0.00    +0.314 C 
BRANCH  30  31
ATOM     31  O   UNL     1      28.650 -24.261 -15.979  0.00  0.00    -0.480 OA
ATOM     32  H   UNL     1      28.839 -24.935 -15.356  0.00  0.00    +0.295 HD
ENDBRANCH  30  31
ENDBRANCH  28  30
ENDBRANCH  23  28
ENDBRANCH  20  24
ENDBRANCH  19  20
ENDBRANCH   1  19
TORSDOF 8
ENDMDL
MODEL 7
REMARK VINA RESULT:     -10.7      4.126     10.852
REMARK  Name = 66000
REMARK  8 active torsions:
REMARK  status: ('A' for Active; 'I' for Inactive)
REMARK    1  A    between atoms: C_1  and  O_19
REMARK    2  A    between atoms: C_4  and  C_7
REMARK    3  A    between atoms: C_10  and  C_15
REMARK    4  A    between atoms: O_19  and  C_20
REMARK    5  A    between atoms: C_20  and  C_24
REMARK    6  A    between atoms: C_23  and  C_28
REMARK    7  A    between atoms: C_28  and  C_30
REMARK    8  A    between atoms: C_30  and  O_31
REMARK                            x       y       z     vdW  Elec       q    Type
REMARK                         _______ _______ _______ _____ _____    ______ ____
ROOT
ATOM      1  C   UNL     1      34.830 -21.273 -19.370  0.00  0.00    +0.139 C 
ATOM      2  C   UNL     1      33.899 -22.003 -18.641  0.00  0.00    +0.037 C 
ATOM      3  C   UNL     1      36.126 -21.101 -18.900  0.00  0.00    +0.037 C 
ATOM      4  C   UNL     1      35.568 -22.400 -16.941  0.00  0.00    +0.000 C 
ATOM      5  C   UNL     1      34.270 -22.568 -17.422  0.00  0.00    +0.003 C 
ATOM      6  C   UNL     1      36.496 -21.665 -17.679  0.00  0.00    +0.003 C 
ENDROOT
BRANCH   4   7
ATOM      7  C   UNL     1      35.953 -22.985 -15.675  0.00  0.00    +0.000 C 
ATOM      8  C   UNL     1      37.303 -23.093 -15.338  0.00  0.00    +0.000 C 
ATOM      9  C   UNL     1      34.976 -23.441 -14.791  0.00  0.00    +0.000 C 
ATOM     10  C   UNL     1      36.696 -24.112 -13.233  0.00  0.00    +0.031 C 
ATOM     11  C   UNL     1      37.675 -23.657 -14.117  0.00  0.00    +0.003 C 
ATOM     12  C   UNL     1      35.347 -24.005 -13.570  0.00  0.00    +0.003 C 
BRANCH  10  15
ATOM     13  N   UNL     1      38.028 -24.090 -11.136  0.00  0.00    -0.343 N 
ATOM     14  N   UNL     1      36.540 -25.840 -11.569  0.00  0.00    -0.285 NA
ATOM     15  C   UNL     1      37.084 -24.700 -11.961  0.00  0.00    +0.117 C 
ATOM     16  H   UNL     1      38.275 -24.507 -10.280  0.00  0.00    +0.144 HD
ATOM     17  H   UNL     1      38.446 -23.244 -11.412  0.00  0.00    +0.144 HD
ATOM     18  H   UNL     1      36.801 -26.240 -10.709  0.00  0.00    +0.188 HD
ENDBRANCH  10  15
ENDBRANCH   4   7
BRANCH   1  19
ATOM     19  O   UNL     1      34.464 -20.716 -20.571  0.00  0.00    -0.474 OA
BRANCH  19  20
ATOM     20  C   UNL     1      34.773 -19.347 -20.765  0.00  0.00    +0.225 C 
BRANCH  20  24
ATOM     21  O   UNL     1      33.573 -18.742 -24.944  0.00  0.00    -0.275 OA
ATOM     22  N   UNL     1      34.815 -19.671 -23.192  0.00  0.00    -0.302 N 
ATOM     23  C   UNL     1      34.647 -17.338 -23.256  0.00  0.00    +0.089 C 
ATOM     24  C   UNL     1      35.571 -19.206 -22.054  0.00  0.00    +0.116 C 
ATOM     25  C   UNL     1      35.861 -17.754 -22.418  0.00  0.00    +0.033 C 
ATOM     26  C   UNL     1      34.265 -18.635 -23.943  0.00  0.00    +0.223 C 
ATOM     27  H   UNL     1      34.700 -20.623 -23.414  0.00  0.00    +0.149 HD
BRANCH  23  28
ATOM     28  C   UNL     1      34.952 -16.220 -24.235  0.00  0.00    +0.118 C 
BRANCH  28  30
ATOM     29  O   UNL     1      33.309 -14.456 -23.881  0.00  0.00    -0.250 OA
ATOM     30  C   UNL     1      33.732 -15.389 -24.544  0.00  0.00    +0.314 C 
BRANCH  30  31
ATOM     31  O   UNL     1      33.148 -15.826 -25.690  0.00  0.00    -0.480 OA
ATOM     32  H   UNL     1      32.833 -16.706 -25.750  0.00  0.00    +0.295 HD
ENDBRANCH  30  31
ENDBRANCH  28  30
ENDBRANCH  23  28
ENDBRANCH  20  24
ENDBRANCH  19  20
ENDBRANCH   1  19
TORSDOF 8
ENDMDL
MODEL 8
REMARK VINA RESULT:     -10.4      4.548     10.622
REMARK  Name = 66000
REMARK  8 active torsions:
REMARK  status: ('A' for Active; 'I' for Inactive)
REMARK    1  A    between atoms: C_1  and  O_19
REMARK    2  A    between atoms: C_4  and  C_7
REMARK    3  A    between atoms: C_10  and  C_15
REMARK    4  A    between atoms: O_19  and  C_20
REMARK    5  A    between atoms: C_20  and  C_24
REMARK    6  A    between atoms: C_23  and  C_28
REMARK    7  A    between atoms: C_28  and  C_30
REMARK    8  A    between atoms: C_30  and  O_31
REMARK                            x       y       z     vdW  Elec       q    Type
REMARK                         _______ _______ _______ _____ _____    ______ ____
ROOT
ATOM      1  C   UNL     1      35.060 -20.571 -20.453  0.00  0.00    +0.139 C 
ATOM      2  C   UNL     1      35.938 -21.267 -19.630  0.00  0.00    +0.037 C 
ATOM      3  C   UNL     1      33.698 -20.548 -20.183  0.00  0.00    +0.037 C 
ATOM      4  C   UNL     1      34.078 -21.936 -18.242  0.00  0.00    +0.000 C 
ATOM      5  C   UNL     1      35.445 -21.952 -18.521  0.00  0.00    +0.003 C 
ATOM      6  C   UNL     1      33.204 -21.235 -19.073  0.00  0.00    +0.003 C 
ENDROOT
BRANCH   4   7
ATOM      7  C   UNL     1      33.566 -22.647 -17.091  0.00  0.00    +0.000 C 
ATOM      8  C   UNL     1      34.449 -23.230 -16.181  0.00  0.00    +0.000 C 
ATOM      9  C   UNL     1      32.189 -22.749 -16.889  0.00  0.00    +0.000 C 
ATOM     10  C   UNL     1      32.579 -24.016 -14.869  0.00  0.00    +0.031 C 
ATOM     11  C   UNL     1      33.955 -23.915 -15.070  0.00  0.00    +0.003 C 
ATOM     12  C   UNL     1      31.695 -23.434 -15.778  0.00  0.00    +0.003 C 
BRANCH  10  15
ATOM     13  N   UNL     1      30.727 -25.115 -13.631  0.00  0.00    -0.343 N 
ATOM     14  N   UNL     1      32.871 -25.024 -12.707  0.00  0.00    -0.285 NA
ATOM     15  C   UNL     1      32.064 -24.731 -13.712  0.00  0.00    +0.117 C 
ATOM     16  H   UNL     1      30.401 -25.597 -12.838  0.00  0.00    +0.144 HD
ATOM     17  H   UNL     1      30.110 -24.903 -14.367  0.00  0.00    +0.144 HD
ATOM     18  H   UNL     1      32.526 -25.507 -11.922  0.00  0.00    +0.188 HD
ENDBRANCH  10  15
ENDBRANCH   4   7
BRANCH   1  19
ATOM     19  O   UNL     1      35.546 -19.897 -21.546  0.00  0.00    -0.474 OA
BRANCH  19  20
ATOM     20  C   UNL     1      34.812 -18.766 -21.983  0.00  0.00    +0.225 C 
BRANCH  20  24
ATOM     21  O   UNL     1      34.466 -14.727 -23.667  0.00  0.00    -0.275 OA
ATOM     22  N   UNL     1      35.561 -16.712 -23.085  0.00  0.00    -0.302 N 
ATOM     23  C   UNL     1      34.314 -15.655 -21.411  0.00  0.00    +0.089 C 
ATOM     24  C   UNL     1      35.717 -17.543 -21.915  0.00  0.00    +0.116 C 
ATOM     25  C   UNL     1      35.348 -16.593 -20.780  0.00  0.00    +0.033 C 
ATOM     26  C   UNL     1      34.771 -15.589 -22.856  0.00  0.00    +0.223 C 
ATOM     27  H   UNL     1      35.971 -16.918 -23.955  0.00  0.00    +0.149 HD
BRANCH  23  28
ATOM     28  C   UNL     1      34.260 -14.292 -20.746  0.00  0.00    +0.118 C 
BRANCH  28  30
ATOM     29  O   UNL     1      32.171 -13.806 -19.589  0.00  0.00    -0.250 OA
ATOM     30  C   UNL     1      32.847 -13.786 -20.606  0.00  0.00    +0.314 C 
BRANCH  30  31
ATOM     31  O   UNL     1      32.410 -13.287 -21.792  0.00  0.00    -0.480 OA
ATOM     32  H   UNL     1      33.027 -12.983 -22.428  0.00  0.00    +0.295 HD
ENDBRANCH  30  31
ENDBRANCH  28  30
ENDBRANCH  23  28
ENDBRANCH  20  24
ENDBRANCH  19  20
ENDBRANCH   1  19
TORSDOF 8
ENDMDL
MODEL 9
REMARK VINA RESULT:     -10.4      6.012     10.966
REMARK  Name = 66000
REMARK  8 active torsions:
REMARK  status: ('A' for Active; 'I' for Inactive)
REMARK    1  A    between atoms: C_1  and  O_19
REMARK    2  A    between atoms: C_4  and  C_7
REMARK    3  A    between atoms: C_10  and  C_15
REMARK    4  A    between atoms: O_19  and  C_20
REMARK    5  A    between atoms: C_20  and  C_24
REMARK    6  A    between atoms: C_23  and  C_28
REMARK    7  A    between atoms: C_28  and  C_30
REMARK    8  A    between atoms: C_30  and  O_31
REMARK                            x       y       z     vdW  Elec       q    Type
REMARK                         _______ _______ _______ _____ _____    ______ ____
ROOT
ATOM      1  C   UNL     1      34.852 -17.467 -23.696  0.00  0.00    +0.139 C 
ATOM      2  C   UNL     1      35.447 -17.135 -22.485  0.00  0.00    +0.037 C 
ATOM      3  C   UNL     1      34.199 -18.682 -23.859  0.00  0.00    +0.037 C 
ATOM      4  C   UNL     1      34.735 -19.256 -21.574  0.00  0.00    +0.000 C 
ATOM      5  C   UNL     1      35.388 -18.033 -21.420  0.00  0.00    +0.003 C 
ATOM      6  C   UNL     1      34.141 -19.581 -22.794  0.00  0.00    +0.003 C 
ENDROOT
BRANCH   4   7
ATOM      7  C   UNL     1      34.674 -20.189 -20.470  0.00  0.00    +0.000 C 
ATOM      8  C   UNL     1      33.439 -20.638 -20.003  0.00  0.00    +0.000 C 
ATOM      9  C   UNL     1      35.851 -20.640 -19.872  0.00  0.00    +0.000 C 
ATOM     10  C   UNL     1      34.557 -21.989 -18.342  0.00  0.00    +0.031 C 
ATOM     11  C   UNL     1      33.380 -21.538 -18.939  0.00  0.00    +0.003 C 
ATOM     12  C   UNL     1      35.793 -21.541 -18.808  0.00  0.00    +0.003 C 
BRANCH  10  15
ATOM     13  N   UNL     1      33.340 -23.658 -16.962  0.00  0.00    -0.343 N 
ATOM     14  N   UNL     1      35.550 -23.096 -16.454  0.00  0.00    -0.285 NA
ATOM     15  C   UNL     1      34.496 -22.927 -17.232  0.00  0.00    +0.117 C 
ATOM     16  H   UNL     1      33.321 -24.287 -16.205  0.00  0.00    +0.144 HD
ATOM     17  H   UNL     1      32.543 -23.544 -17.528  0.00  0.00    +0.144 HD
ATOM     18  H   UNL     1      35.511 -23.730 -15.702  0.00  0.00    +0.188 HD
ENDBRANCH  10  15
ENDBRANCH   4   7
BRANCH   1  19
ATOM     19  O   UNL     1      34.911 -16.582 -24.745  0.00  0.00    -0.474 OA
BRANCH  19  20
ATOM     20  C   UNL     1      33.807 -15.710 -24.913  0.00  0.00    +0.225 C 
BRANCH  20  24
ATOM     21  O   UNL     1      31.623 -12.634 -22.668  0.00  0.00    -0.275 OA
ATOM     22  N   UNL     1      33.052 -13.455 -24.330  0.00  0.00    -0.302 N 
ATOM     23  C   UNL     1      33.461 -14.155 -22.134  0.00  0.00    +0.089 C 
ATOM     24  C   UNL     1      34.200 -14.325 -24.417  0.00  0.00    +0.116 C 
ATOM     25  C   UNL     1      34.723 -14.332 -22.985  0.00  0.00    +0.033 C 
ATOM     26  C   UNL     1      32.582 -13.300 -23.028  0.00  0.00    +0.223 C 
ATOM     27  H   UNL     1      32.643 -13.017 -25.110  0.00  0.00    +0.149 HD
BRANCH  23  28
ATOM     28  C   UNL     1      33.733 -13.513 -20.787  0.00  0.00    +0.118 C 
BRANCH  28  30
ATOM     29  O   UNL     1      32.115 -14.648 -19.360  0.00  0.00    -0.250 OA
ATOM     30  C   UNL     1      32.550 -13.621 -19.859  0.00  0.00    +0.314 C 
BRANCH  30  31
ATOM     31  O   UNL     1      32.015 -12.392 -19.640  0.00  0.00    -0.480 OA
ATOM     32  H   UNL     1      31.216 -12.146 -20.063  0.00  0.00    +0.295 HD
ENDBRANCH  30  31
ENDBRANCH  28  30
ENDBRANCH  23  28
ENDBRANCH  20  24
ENDBRANCH  19  20
ENDBRANCH   1  19
TORSDOF 8
ENDMDL
