MODEL 1
REMARK VINA RESULT:     -11.1      0.000      0.000
REMARK  Name = 447476
REMARK  4 active torsions:
REMARK  status: ('A' for Active; 'I' for Inactive)
REMARK    1  A    between atoms: C_2  and  C_17
REMARK    2  A    between atoms: C_8  and  C_13
REMARK    3  A    between atoms: C_18  and  O_29
REMARK    4  A    between atoms: C_19  and  C_23
REMARK                            x       y       z     vdW  Elec       q    Type
REMARK                         _______ _______ _______ _____ _____    ______ ____
ROOT
ATOM      1  N   UNL     1      33.356 -13.659 -23.912  0.00  0.00    -0.312 N 
ATOM      2  C   UNL     1      33.326 -12.946 -22.743  0.00  0.00    +0.051 C 
ATOM      3  C   UNL     1      34.307 -14.947 -22.357  0.00  0.00    +0.015 C 
ATOM      4  C   UNL     1      33.949 -14.885 -23.706  0.00  0.00    +0.048 C 
ATOM      5  C   UNL     1      33.908 -13.716 -21.762  0.00  0.00    +0.016 C 
ATOM      6  C   UNL     1      34.942 -16.109 -21.876  0.00  0.00    +0.004 C 
ATOM      7  C   UNL     1      34.193 -15.932 -24.600  0.00  0.00    +0.015 C 
ATOM      8  C   UNL     1      35.192 -17.165 -22.760  0.00  0.00    +0.031 C 
ATOM      9  C   UNL     1      34.823 -17.076 -24.100  0.00  0.00    +0.004 C 
ATOM     10  H   UNL     1      33.003 -13.342 -24.774  0.00  0.00    +0.152 HD
ENDROOT
BRANCH   8  13
ATOM     11  N   UNL     1      35.122 -19.529 -22.001  0.00  0.00    -0.343 N 
ATOM     12  N   UNL     1      37.152 -18.373 -22.069  0.00  0.00    -0.285 NA
ATOM     13  C   UNL     1      35.847 -18.369 -22.271  0.00  0.00    +0.117 C 
ATOM     14  H   UNL     1      35.584 -20.332 -21.670  0.00  0.00    +0.144 HD
ATOM     15  H   UNL     1      34.147 -19.544 -22.142  0.00  0.00    +0.144 HD
ATOM     16  H   UNL     1      37.596 -19.186 -21.738  0.00  0.00    +0.188 HD
ENDBRANCH   8  13
BRANCH   2  17
ATOM     17  C   UNL     1      32.758 -11.623 -22.669  0.00  0.00    +0.047 C 
ATOM     18  C   UNL     1      33.435 -10.517 -23.189  0.00  0.00    +0.135 C 
ATOM     19  C   UNL     1      32.866  -9.247 -23.106  0.00  0.00    +0.034 C 
ATOM     20  C   UNL     1      31.510 -11.452 -22.066  0.00  0.00    +0.004 C 
ATOM     21  C   UNL     1      31.619  -9.079 -22.504  0.00  0.00    +0.003 C 
ATOM     22  C   UNL     1      30.942 -10.181 -21.984  0.00  0.00    +0.000 C 
BRANCH  19  23
ATOM     23  C   UNL     1      33.551  -8.086 -23.640  0.00  0.00    +0.003 C 
ATOM     24  C   UNL     1      32.966  -7.347 -24.667  0.00  0.00    +0.000 C 
ATOM     25  C   UNL     1      34.792  -7.713 -23.126  0.00  0.00    +0.000 C 
ATOM     26  C   UNL     1      33.625  -6.229 -25.181  0.00  0.00    +0.000 C 
ATOM     27  C   UNL     1      35.450  -6.596 -23.641  0.00  0.00    +0.000 C 
ATOM     28  C   UNL     1      34.866  -5.854 -24.667  0.00  0.00    +0.000 C 
ENDBRANCH  19  23
BRANCH  18  29
ATOM     29  O   UNL     1      34.656 -10.683 -23.780  0.00  0.00    -0.505 OA
ATOM     30  H   UNL     1      35.095 -11.509 -23.728  0.00  0.00    +0.292 HD
ENDBRANCH  18  29
ENDBRANCH   2  17
TORSDOF 4
ENDMDL
MODEL 2
REMARK VINA RESULT:     -10.7      7.986     13.744
REMARK  Name = 447476
REMARK  4 active torsions:
REMARK  status: ('A' for Active; 'I' for Inactive)
REMARK    1  A    between atoms: C_2  and  C_17
REMARK    2  A    between atoms: C_8  and  C_13
REMARK    3  A    between atoms: C_18  and  O_29
REMARK    4  A    between atoms: C_19  and  C_23
REMARK                            x       y       z     vdW  Elec       q    Type
REMARK                         _______ _______ _______ _____ _____    ______ ____
ROOT
ATOM      1  N   UNL     1      36.013 -21.278 -18.360  0.00  0.00    -0.312 N 
ATOM      2  C   UNL     1      34.783 -21.824 -18.105  0.00  0.00    +0.051 C 
ATOM      3  C   UNL     1      34.657 -20.578 -19.987  0.00  0.00    +0.015 C 
ATOM      4  C   UNL     1      35.965 -20.512 -19.503  0.00  0.00    +0.048 C 
ATOM      5  C   UNL     1      33.922 -21.410 -19.095  0.00  0.00    +0.016 C 
ATOM      6  C   UNL     1      34.333 -19.875 -21.165  0.00  0.00    +0.004 C 
ATOM      7  C   UNL     1      36.969 -19.774 -20.138  0.00  0.00    +0.015 C 
ATOM      8  C   UNL     1      35.327 -19.132 -21.811  0.00  0.00    +0.031 C 
ATOM      9  C   UNL     1      36.624 -19.084 -21.304  0.00  0.00    +0.004 C 
ATOM     10  H   UNL     1      36.815 -21.413 -17.805  0.00  0.00    +0.152 HD
ENDROOT
BRANCH   8  13
ATOM     11  N   UNL     1      35.479 -17.112 -23.248  0.00  0.00    -0.343 N 
ATOM     12  N   UNL     1      34.232 -18.962 -23.943  0.00  0.00    -0.285 NA
ATOM     13  C   UNL     1      35.001 -18.402 -23.027  0.00  0.00    +0.117 C 
ATOM     14  H   UNL     1      35.245 -16.636 -24.077  0.00  0.00    +0.144 HD
ATOM     15  H   UNL     1      36.051 -16.677 -22.574  0.00  0.00    +0.144 HD
ATOM     16  H   UNL     1      34.009 -18.470 -24.766  0.00  0.00    +0.188 HD
ENDBRANCH   8  13
BRANCH   2  17
ATOM     17  C   UNL     1      34.546 -22.675 -16.965  0.00  0.00    +0.047 C 
ATOM     18  C   UNL     1      35.603 -23.140 -16.179  0.00  0.00    +0.135 C 
ATOM     19  C   UNL     1      35.348 -23.962 -15.081  0.00  0.00    +0.034 C 
ATOM     20  C   UNL     1      33.234 -23.034 -16.647  0.00  0.00    +0.004 C 
ATOM     21  C   UNL     1      34.037 -24.319 -14.766  0.00  0.00    +0.003 C 
ATOM     22  C   UNL     1      32.981 -23.855 -15.549  0.00  0.00    +0.000 C 
BRANCH  19  23
ATOM     23  C   UNL     1      36.430 -24.456 -14.252  0.00  0.00    +0.003 C 
ATOM     24  C   UNL     1      37.062 -25.655 -14.577  0.00  0.00    +0.000 C 
ATOM     25  C   UNL     1      36.836 -23.730 -13.134  0.00  0.00    +0.000 C 
ATOM     26  C   UNL     1      38.104 -26.131 -13.780  0.00  0.00    +0.000 C 
ATOM     27  C   UNL     1      37.877 -24.207 -12.337  0.00  0.00    +0.000 C 
ATOM     28  C   UNL     1      38.511 -25.406 -12.661  0.00  0.00    +0.000 C 
ENDBRANCH  19  23
BRANCH  18  29
ATOM     29  O   UNL     1      36.887 -22.789 -16.488  0.00  0.00    -0.505 OA
ATOM     30  H   UNL     1      37.497 -23.442 -16.770  0.00  0.00    +0.292 HD
ENDBRANCH  18  29
ENDBRANCH   2  17
TORSDOF 4
ENDMDL
MODEL 3
REMARK VINA RESULT:     -10.5      3.862      8.908
REMARK  Name = 447476
REMARK  4 active torsions:
REMARK  status: ('A' for Active; 'I' for Inactive)
REMARK    1  A    between atoms: C_2  and  C_17
REMARK    2  A    between atoms: C_8  and  C_13
REMARK    3  A    between atoms: C_18  and  O_29
REMARK    4  A    between atoms: C_19  and  C_23
REMARK                            x       y       z     vdW  Elec       q    Type
REMARK                         _______ _______ _______ _____ _____    ______ ____
ROOT
ATOM      1  N   UNL     1      31.512  -9.273 -22.743  0.00  0.00    -0.312 N 
ATOM      2  C   UNL     1      31.856  -9.698 -21.488  0.00  0.00    +0.051 C 
ATOM      3  C   UNL     1      31.544  -7.459 -21.444  0.00  0.00    +0.015 C 
ATOM      4  C   UNL     1      31.316  -7.910 -22.746  0.00  0.00    +0.048 C 
ATOM      5  C   UNL     1      31.884  -8.598 -20.661  0.00  0.00    +0.016 C 
ATOM      6  C   UNL     1      31.408  -6.084 -21.168  0.00  0.00    +0.004 C 
ATOM      7  C   UNL     1      30.958  -7.051 -23.790  0.00  0.00    +0.015 C 
ATOM      8  C   UNL     1      31.050  -5.213 -22.203  0.00  0.00    +0.031 C 
ATOM      9  C   UNL     1      30.829  -5.690 -23.493  0.00  0.00    +0.004 C 
ATOM     10  H   UNL     1      31.419  -9.857 -23.530  0.00  0.00    +0.152 HD
ENDROOT
BRANCH   8  13
ATOM     11  N   UNL     1      31.978  -2.913 -22.081  0.00  0.00    -0.343 N 
ATOM     12  N   UNL     1      29.747  -3.314 -21.516  0.00  0.00    -0.285 NA
ATOM     13  C   UNL     1      30.908  -3.791 -21.927  0.00  0.00    +0.117 C 
ATOM     14  H   UNL     1      31.861  -1.955 -21.888  0.00  0.00    +0.144 HD
ATOM     15  H   UNL     1      32.853  -3.251 -22.384  0.00  0.00    +0.144 HD
ATOM     16  H   UNL     1      29.648  -2.353 -21.327  0.00  0.00    +0.188 HD
ENDBRANCH   8  13
BRANCH   2  17
ATOM     17  C   UNL     1      32.120 -11.085 -21.196  0.00  0.00    +0.047 C 
ATOM     18  C   UNL     1      32.657 -11.936 -22.164  0.00  0.00    +0.135 C 
ATOM     19  C   UNL     1      32.904 -13.275 -21.859  0.00  0.00    +0.034 C 
ATOM     20  C   UNL     1      31.832 -11.579 -19.922  0.00  0.00    +0.004 C 
ATOM     21  C   UNL     1      32.616 -13.765 -20.585  0.00  0.00    +0.003 C 
ATOM     22  C   UNL     1      32.080 -12.916 -19.617  0.00  0.00    +0.000 C 
BRANCH  19  23
ATOM     23  C   UNL     1      33.462 -14.175 -22.849  0.00  0.00    +0.003 C 
ATOM     24  C   UNL     1      32.948 -14.187 -24.145  0.00  0.00    +0.000 C 
ATOM     25  C   UNL     1      34.510 -15.026 -22.503  0.00  0.00    +0.000 C 
ATOM     26  C   UNL     1      33.484 -15.053 -25.098  0.00  0.00    +0.000 C 
ATOM     27  C   UNL     1      35.046 -15.892 -23.457  0.00  0.00    +0.000 C 
ATOM     28  C   UNL     1      34.533 -15.904 -24.754  0.00  0.00    +0.000 C 
ENDBRANCH  19  23
BRANCH  18  29
ATOM     29  O   UNL     1      32.941 -11.456 -23.412  0.00  0.00    -0.505 OA
ATOM     30  H   UNL     1      32.963 -12.038 -24.145  0.00  0.00    +0.292 HD
ENDBRANCH  18  29
ENDBRANCH   2  17
TORSDOF 4
ENDMDL
MODEL 4
REMARK VINA RESULT:     -10.4      2.838      9.033
REMARK  Name = 447476
REMARK  4 active torsions:
REMARK  status: ('A' for Active; 'I' for Inactive)
REMARK    1  A    between atoms: C_2  and  C_17
REMARK    2  A    between atoms: C_8  and  C_13
REMARK    3  A    between atoms: C_18  and  O_29
REMARK    4  A    between atoms: C_19  and  C_23
REMARK                            x       y       z     vdW  Elec       q    Type
REMARK                         _______ _______ _______ _____ _____    ______ ____
ROOT
ATOM      1  N   UNL     1      32.831 -13.766 -21.815  0.00  0.00    -0.312 N 
ATOM      2  C   UNL     1      33.610 -13.998 -22.916  0.00  0.00    +0.051 C 
ATOM      3  C   UNL     1      33.187 -11.782 -22.771  0.00  0.00    +0.015 C 
ATOM      4  C   UNL     1      32.557 -12.421 -21.701  0.00  0.00    +0.048 C 
ATOM      5  C   UNL     1      33.848 -12.789 -23.530  0.00  0.00    +0.016 C 
ATOM      6  C   UNL     1      33.066 -10.383 -22.893  0.00  0.00    +0.004 C 
ATOM      7  C   UNL     1      31.807 -11.729 -20.744  0.00  0.00    +0.015 C 
ATOM      8  C   UNL     1      32.318  -9.678 -21.942  0.00  0.00    +0.031 C 
ATOM      9  C   UNL     1      31.700 -10.342 -20.886  0.00  0.00    +0.004 C 
ATOM     10  H   UNL     1      32.512 -14.460 -21.194  0.00  0.00    +0.152 HD
ENDROOT
BRANCH   8  13
ATOM     11  N   UNL     1      33.153  -7.374 -21.540  0.00  0.00    -0.343 N 
ATOM     12  N   UNL     1      31.136  -7.716 -22.669  0.00  0.00    -0.285 NA
ATOM     13  C   UNL     1      32.188  -8.234 -22.061  0.00  0.00    +0.117 C 
ATOM     14  H   UNL     1      33.045  -6.400 -21.630  0.00  0.00    +0.144 HD
ATOM     15  H   UNL     1      33.943  -7.741 -21.080  0.00  0.00    +0.144 HD
ATOM     16  H   UNL     1      31.045  -6.740 -22.750  0.00  0.00    +0.188 HD
ENDBRANCH   8  13
BRANCH   2  17
ATOM     17  C   UNL     1      34.049 -15.324 -23.277  0.00  0.00    +0.047 C 
ATOM     18  C   UNL     1      34.550 -16.204 -22.315  0.00  0.00    +0.135 C 
ATOM     19  C   UNL     1      34.968 -17.481 -22.687  0.00  0.00    +0.034 C 
ATOM     20  C   UNL     1      33.968 -15.726 -24.611  0.00  0.00    +0.004 C 
ATOM     21  C   UNL     1      34.886 -17.881 -24.021  0.00  0.00    +0.003 C 
ATOM     22  C   UNL     1      34.386 -17.004 -24.983  0.00  0.00    +0.000 C 
BRANCH  19  23
ATOM     23  C   UNL     1      35.491 -18.411 -21.705  0.00  0.00    +0.003 C 
ATOM     24  C   UNL     1      36.841 -18.372 -21.362  0.00  0.00    +0.000 C 
ATOM     25  C   UNL     1      34.642 -19.341 -21.107  0.00  0.00    +0.000 C 
ATOM     26  C   UNL     1      37.345 -19.266 -20.416  0.00  0.00    +0.000 C 
ATOM     27  C   UNL     1      35.146 -20.235 -20.163  0.00  0.00    +0.000 C 
ATOM     28  C   UNL     1      36.497 -20.197 -19.817  0.00  0.00    +0.000 C 
ENDBRANCH  19  23
BRANCH  18  29
ATOM     29  O   UNL     1      34.629 -15.812 -21.008  0.00  0.00    -0.505 OA
ATOM     30  H   UNL     1      34.045 -16.177 -20.373  0.00  0.00    +0.292 HD
ENDBRANCH  18  29
ENDBRANCH   2  17
TORSDOF 4
ENDMDL
MODEL 5
REMARK VINA RESULT:     -10.3      3.474      8.950
REMARK  Name = 447476
REMARK  4 active torsions:
REMARK  status: ('A' for Active; 'I' for Inactive)
REMARK    1  A    between atoms: C_2  and  C_17
REMARK    2  A    between atoms: C_8  and  C_13
REMARK    3  A    between atoms: C_18  and  O_29
REMARK    4  A    between atoms: C_19  and  C_23
REMARK                            x       y       z     vdW  Elec       q    Type
REMARK                         _______ _______ _______ _____ _____    ______ ____
ROOT
ATOM      1  N   UNL     1      33.336  -8.695 -22.980  0.00  0.00    -0.312 N 
ATOM      2  C   UNL     1      32.193  -9.408 -22.736  0.00  0.00    +0.051 C 
ATOM      3  C   UNL     1      31.631  -7.388 -23.582  0.00  0.00    +0.015 C 
ATOM      4  C   UNL     1      33.024  -7.457 -23.497  0.00  0.00    +0.048 C 
ATOM      5  C   UNL     1      31.121  -8.625 -23.099  0.00  0.00    +0.016 C 
ATOM      6  C   UNL     1      31.040  -6.212 -24.087  0.00  0.00    +0.004 C 
ATOM      7  C   UNL     1      33.858  -6.405 -23.891  0.00  0.00    +0.015 C 
ATOM      8  C   UNL     1      31.863  -5.152 -24.485  0.00  0.00    +0.031 C 
ATOM      9  C   UNL     1      33.249  -5.249 -24.387  0.00  0.00    +0.004 C 
ATOM     10  H   UNL     1      34.250  -9.019 -22.809  0.00  0.00    +0.152 HD
ENDROOT
BRANCH   8  13
ATOM     11  N   UNL     1      30.116  -3.387 -24.428  0.00  0.00    -0.343 N 
ATOM     12  N   UNL     1      31.796  -3.331 -26.051  0.00  0.00    -0.285 NA
ATOM     13  C   UNL     1      31.260  -3.934 -25.007  0.00  0.00    +0.117 C 
ATOM     14  H   UNL     1      29.724  -2.564 -24.797  0.00  0.00    +0.144 HD
ATOM     15  H   UNL     1      29.700  -3.826 -23.650  0.00  0.00    +0.144 HD
ATOM     16  H   UNL     1      31.390  -2.507 -26.406  0.00  0.00    +0.188 HD
ENDBRANCH   8  13
BRANCH   2  17
ATOM     17  C   UNL     1      32.226 -10.742 -22.191  0.00  0.00    +0.047 C 
ATOM     18  C   UNL     1      32.860 -11.784 -22.873  0.00  0.00    +0.135 C 
ATOM     19  C   UNL     1      32.879 -13.067 -22.326  0.00  0.00    +0.034 C 
ATOM     20  C   UNL     1      31.613 -10.989 -20.961  0.00  0.00    +0.004 C 
ATOM     21  C   UNL     1      32.266 -13.311 -21.097  0.00  0.00    +0.003 C 
ATOM     22  C   UNL     1      31.633 -12.272 -20.415  0.00  0.00    +0.000 C 
BRANCH  19  23
ATOM     23  C   UNL     1      33.531 -14.163 -23.016  0.00  0.00    +0.003 C 
ATOM     24  C   UNL     1      34.541 -14.882 -22.377  0.00  0.00    +0.000 C 
ATOM     25  C   UNL     1      33.148 -14.494 -24.314  0.00  0.00    +0.000 C 
ATOM     26  C   UNL     1      35.169 -15.937 -23.040  0.00  0.00    +0.000 C 
ATOM     27  C   UNL     1      33.777 -15.548 -24.976  0.00  0.00    +0.000 C 
ATOM     28  C   UNL     1      34.787 -16.269 -24.339  0.00  0.00    +0.000 C 
ENDBRANCH  19  23
BRANCH  18  29
ATOM     29  O   UNL     1      33.462 -11.544 -24.076  0.00  0.00    -0.505 OA
ATOM     30  H   UNL     1      34.367 -11.306 -24.108  0.00  0.00    +0.292 HD
ENDBRANCH  18  29
ENDBRANCH   2  17
TORSDOF 4
ENDMDL
MODEL 6
REMARK VINA RESULT:     -10.3      7.378     11.607
REMARK  Name = 447476
REMARK  4 active torsions:
REMARK  status: ('A' for Active; 'I' for Inactive)
REMARK    1  A    between atoms: C_2  and  C_17
REMARK    2  A    between atoms: C_8  and  C_13
REMARK    3  A    between atoms: C_18  and  O_29
REMARK    4  A    between atoms: C_19  and  C_23
REMARK                            x       y       z     vdW  Elec       q    Type
REMARK                         _______ _______ _______ _____ _____    ______ ____
ROOT
ATOM      1  N   UNL     1      32.419 -22.015 -17.836  0.00  0.00    -0.312 N 
ATOM      2  C   UNL     1      33.748 -22.255 -17.614  0.00  0.00    +0.051 C 
ATOM      3  C   UNL     1      32.534 -23.349 -16.051  0.00  0.00    +0.015 C 
ATOM      4  C   UNL     1      31.654 -22.670 -16.896  0.00  0.00    +0.048 C 
ATOM      5  C   UNL     1      33.852 -23.078 -16.516  0.00  0.00    +0.016 C 
ATOM      6  C   UNL     1      32.005 -24.110 -14.990  0.00  0.00    +0.004 C 
ATOM      7  C   UNL     1      30.265 -22.712 -16.733  0.00  0.00    +0.015 C 
ATOM      8  C   UNL     1      30.617 -24.161 -14.814  0.00  0.00    +0.031 C 
ATOM      9  C   UNL     1      29.763 -23.473 -15.672  0.00  0.00    +0.004 C 
ATOM     10  H   UNL     1      32.061 -21.454 -18.562  0.00  0.00    +0.152 HD
ENDROOT
BRANCH   8  13
ATOM     11  N   UNL     1      28.903 -25.699 -13.885  0.00  0.00    -0.343 N 
ATOM     12  N   UNL     1      30.659 -24.943 -12.542  0.00  0.00    -0.285 NA
ATOM     13  C   UNL     1      30.062 -24.944 -13.720  0.00  0.00    +0.117 C 
ATOM     14  H   UNL     1      28.543 -26.221 -13.132  0.00  0.00    +0.144 HD
ATOM     15  H   UNL     1      28.442 -25.710 -14.756  0.00  0.00    +0.144 HD
ATOM     16  H   UNL     1      30.285 -25.472 -11.800  0.00  0.00    +0.188 HD
ENDBRANCH   8  13
BRANCH   2  17
ATOM     17  C   UNL     1      34.778 -21.691 -18.452  0.00  0.00    +0.047 C 
ATOM     18  C   UNL     1      34.461 -20.818 -19.495  0.00  0.00    +0.135 C 
ATOM     19  C   UNL     1      35.474 -20.285 -20.292  0.00  0.00    +0.034 C 
ATOM     20  C   UNL     1      36.111 -22.028 -18.210  0.00  0.00    +0.004 C 
ATOM     21  C   UNL     1      36.805 -20.623 -20.047  0.00  0.00    +0.003 C 
ATOM     22  C   UNL     1      37.123 -21.494 -19.006  0.00  0.00    +0.000 C 
BRANCH  19  23
ATOM     23  C   UNL     1      35.167 -19.376 -21.379  0.00  0.00    +0.003 C 
ATOM     24  C   UNL     1      35.421 -18.013 -21.236  0.00  0.00    +0.000 C 
ATOM     25  C   UNL     1      34.621 -19.867 -22.563  0.00  0.00    +0.000 C 
ATOM     26  C   UNL     1      35.127 -17.137 -22.282  0.00  0.00    +0.000 C 
ATOM     27  C   UNL     1      34.326 -18.992 -23.608  0.00  0.00    +0.000 C 
ATOM     28  C   UNL     1      34.580 -17.628 -23.468  0.00  0.00    +0.000 C 
ENDBRANCH  19  23
BRANCH  18  29
ATOM     29  O   UNL     1      33.157 -20.486 -19.733  0.00  0.00    -0.505 OA
ATOM     30  H   UNL     1      32.610 -21.062 -20.230  0.00  0.00    +0.292 HD
ENDBRANCH  18  29
ENDBRANCH   2  17
TORSDOF 4
ENDMDL
MODEL 7
REMARK VINA RESULT:     -10.0      2.361      2.954
REMARK  Name = 447476
REMARK  4 active torsions:
REMARK  status: ('A' for Active; 'I' for Inactive)
REMARK    1  A    between atoms: C_2  and  C_17
REMARK    2  A    between atoms: C_8  and  C_13
REMARK    3  A    between atoms: C_18  and  O_29
REMARK    4  A    between atoms: C_19  and  C_23
REMARK                            x       y       z     vdW  Elec       q    Type
REMARK                         _______ _______ _______ _____ _____    ______ ____
ROOT
ATOM      1  N   UNL     1      32.466 -12.193 -22.756  0.00  0.00    -0.312 N 
ATOM      2  C   UNL     1      32.666 -12.078 -21.407  0.00  0.00    +0.051 C 
ATOM      3  C   UNL     1      33.550 -14.035 -22.115  0.00  0.00    +0.015 C 
ATOM      4  C   UNL     1      32.995 -13.379 -23.216  0.00  0.00    +0.048 C 
ATOM      5  C   UNL     1      33.335 -13.203 -20.980  0.00  0.00    +0.016 C 
ATOM      6  C   UNL     1      34.166 -15.287 -22.311  0.00  0.00    +0.004 C 
ATOM      7  C   UNL     1      33.024 -13.914 -24.508  0.00  0.00    +0.015 C 
ATOM      8  C   UNL     1      34.202 -15.835 -23.598  0.00  0.00    +0.031 C 
ATOM      9  C   UNL     1      33.640 -15.158 -24.678  0.00  0.00    +0.004 C 
ATOM     10  H   UNL     1      32.009 -11.526 -23.317  0.00  0.00    +0.152 HD
ENDROOT
BRANCH   8  13
ATOM     11  N   UNL     1      35.843 -17.588 -22.961  0.00  0.00    -0.343 N 
ATOM     12  N   UNL     1      34.462 -17.887 -24.822  0.00  0.00    -0.285 NA
ATOM     13  C   UNL     1      34.836 -17.128 -23.809  0.00  0.00    +0.117 C 
ATOM     14  H   UNL     1      36.259 -18.465 -23.122  0.00  0.00    +0.144 HD
ATOM     15  H   UNL     1      36.137 -17.034 -22.202  0.00  0.00    +0.144 HD
ATOM     16  H   UNL     1      34.890 -18.761 -24.967  0.00  0.00    +0.188 HD
ENDBRANCH   8  13
BRANCH   2  17
ATOM     17  C   UNL     1      32.212 -10.930 -20.662  0.00  0.00    +0.047 C 
ATOM     18  C   UNL     1      32.179  -9.660 -21.242  0.00  0.00    +0.135 C 
ATOM     19  C   UNL     1      31.736  -8.565 -20.502  0.00  0.00    +0.034 C 
ATOM     20  C   UNL     1      31.801 -11.099 -19.338  0.00  0.00    +0.004 C 
ATOM     21  C   UNL     1      31.324  -8.736 -19.180  0.00  0.00    +0.003 C 
ATOM     22  C   UNL     1      31.357 -10.003 -18.599  0.00  0.00    +0.000 C 
BRANCH  19  23
ATOM     23  C   UNL     1      31.692  -7.238 -21.086  0.00  0.00    +0.003 C 
ATOM     24  C   UNL     1      32.474  -6.217 -20.547  0.00  0.00    +0.000 C 
ATOM     25  C   UNL     1      30.870  -6.987 -22.183  0.00  0.00    +0.000 C 
ATOM     26  C   UNL     1      32.433  -4.940 -21.109  0.00  0.00    +0.000 C 
ATOM     27  C   UNL     1      30.829  -5.711 -22.743  0.00  0.00    +0.000 C 
ATOM     28  C   UNL     1      31.611  -4.688 -22.206  0.00  0.00    +0.000 C 
ENDBRANCH  19  23
BRANCH  18  29
ATOM     29  O   UNL     1      32.581  -9.493 -22.538  0.00  0.00    -0.505 OA
ATOM     30  H   UNL     1      32.082  -8.952 -23.118  0.00  0.00    +0.292 HD
ENDBRANCH  18  29
ENDBRANCH   2  17
TORSDOF 4
ENDMDL
MODEL 8
REMARK VINA RESULT:     -10.0      7.762     13.151
REMARK  Name = 447476
REMARK  4 active torsions:
REMARK  status: ('A' for Active; 'I' for Inactive)
REMARK    1  A    between atoms: C_2  and  C_17
REMARK    2  A    between atoms: C_8  and  C_13
REMARK    3  A    between atoms: C_18  and  O_29
REMARK    4  A    between atoms: C_19  and  C_23
REMARK                            x       y       z     vdW  Elec       q    Type
REMARK                         _______ _______ _______ _____ _____    ______ ____
ROOT
ATOM      1  N   UNL     1      35.846 -21.018 -18.680  0.00  0.00    -0.312 N 
ATOM      2  C   UNL     1      34.607 -21.543 -18.424  0.00  0.00    +0.051 C 
ATOM      3  C   UNL     1      34.507 -20.321 -20.323  0.00  0.00    +0.015 C 
ATOM      4  C   UNL     1      35.814 -20.267 -19.834  0.00  0.00    +0.048 C 
ATOM      5  C   UNL     1      33.757 -21.129 -19.423  0.00  0.00    +0.016 C 
ATOM      6  C   UNL     1      34.198 -19.629 -21.512  0.00  0.00    +0.004 C 
ATOM      7  C   UNL     1      36.832 -19.552 -20.475  0.00  0.00    +0.015 C 
ATOM      8  C   UNL     1      35.207 -18.909 -22.164  0.00  0.00    +0.031 C 
ATOM      9  C   UNL     1      36.501 -18.873 -21.652  0.00  0.00    +0.004 C 
ATOM     10  H   UNL     1      36.644 -21.157 -18.120  0.00  0.00    +0.152 HD
ENDROOT
BRANCH   8  13
ATOM     11  N   UNL     1      35.368 -16.899 -23.613  0.00  0.00    -0.343 N 
ATOM     12  N   UNL     1      34.148 -18.764 -24.316  0.00  0.00    -0.285 NA
ATOM     13  C   UNL     1      34.896 -18.191 -23.390  0.00  0.00    +0.117 C 
ATOM     14  H   UNL     1      35.145 -16.431 -24.450  0.00  0.00    +0.144 HD
ATOM     15  H   UNL     1      35.925 -16.455 -22.933  0.00  0.00    +0.144 HD
ATOM     16  H   UNL     1      33.935 -18.280 -25.146  0.00  0.00    +0.188 HD
ENDBRANCH   8  13
BRANCH   2  17
ATOM     17  C   UNL     1      34.352 -22.374 -17.273  0.00  0.00    +0.047 C 
ATOM     18  C   UNL     1      33.050 -22.731 -16.916  0.00  0.00    +0.135 C 
ATOM     19  C   UNL     1      32.828 -23.536 -15.799  0.00  0.00    +0.034 C 
ATOM     20  C   UNL     1      35.431 -22.826 -16.509  0.00  0.00    +0.004 C 
ATOM     21  C   UNL     1      33.907 -23.987 -15.038  0.00  0.00    +0.003 C 
ATOM     22  C   UNL     1      35.208 -23.631 -15.393  0.00  0.00    +0.000 C 
BRANCH  19  23
ATOM     23  C   UNL     1      31.485 -23.920 -15.410  0.00  0.00    +0.003 C 
ATOM     24  C   UNL     1      31.285 -25.067 -14.644  0.00  0.00    +0.000 C 
ATOM     25  C   UNL     1      30.398 -23.141 -15.804  0.00  0.00    +0.000 C 
ATOM     26  C   UNL     1      29.993 -25.436 -14.269  0.00  0.00    +0.000 C 
ATOM     27  C   UNL     1      29.107 -23.511 -15.429  0.00  0.00    +0.000 C 
ATOM     28  C   UNL     1      28.905 -24.658 -14.662  0.00  0.00    +0.000 C 
ENDBRANCH  19  23
BRANCH  18  29
ATOM     29  O   UNL     1      31.994 -22.291 -17.662  0.00  0.00    -0.505 OA
ATOM     30  H   UNL     1      31.542 -21.507 -17.419  0.00  0.00    +0.292 HD
ENDBRANCH  18  29
ENDBRANCH   2  17
TORSDOF 4
ENDMDL
MODEL 9
REMARK VINA RESULT:      -9.6      4.388      8.015
REMARK  Name = 447476
REMARK  4 active torsions:
REMARK  status: ('A' for Active; 'I' for Inactive)
REMARK    1  A    between atoms: C_2  and  C_17
REMARK    2  A    between atoms: C_8  and  C_13
REMARK    3  A    between atoms: C_18  and  O_29
REMARK    4  A    between atoms: C_19  and  C_23
REMARK                            x       y       z     vdW  Elec       q    Type
REMARK                         _______ _______ _______ _____ _____    ______ ____
ROOT
ATOM      1  N   UNL     1      36.111 -20.066 -20.061  0.00  0.00    -0.312 N 
ATOM      2  C   UNL     1      34.947 -19.995 -20.777  0.00  0.00    +0.051 C 
ATOM      3  C   UNL     1      34.637 -21.369 -19.009  0.00  0.00    +0.015 C 
ATOM      4  C   UNL     1      35.951 -20.898 -18.975  0.00  0.00    +0.048 C 
ATOM      5  C   UNL     1      34.015 -20.791 -20.151  0.00  0.00    +0.016 C 
ATOM      6  C   UNL     1      34.205 -22.249 -17.997  0.00  0.00    +0.004 C 
ATOM      7  C   UNL     1      36.860 -21.266 -17.977  0.00  0.00    +0.015 C 
ATOM      8  C   UNL     1      35.104 -22.626 -16.992  0.00  0.00    +0.031 C 
ATOM      9  C   UNL     1      36.409 -22.141 -16.984  0.00  0.00    +0.004 C 
ATOM     10  H   UNL     1      36.943 -19.591 -20.289  0.00  0.00    +0.152 HD
ENDROOT
BRANCH   8  13
ATOM     11  N   UNL     1      33.338 -23.571 -15.524  0.00  0.00    -0.343 N 
ATOM     12  N   UNL     1      35.537 -24.344 -15.368  0.00  0.00    -0.285 NA
ATOM     13  C   UNL     1      34.666 -23.536 -15.944  0.00  0.00    +0.117 C 
ATOM     14  H   UNL     1      33.062 -24.193 -14.813  0.00  0.00    +0.144 HD
ATOM     15  H   UNL     1      32.674 -22.973 -15.940  0.00  0.00    +0.144 HD
ATOM     16  H   UNL     1      35.244 -24.959 -14.658  0.00  0.00    +0.188 HD
ENDBRANCH   8  13
BRANCH   2  17
ATOM     17  C   UNL     1      34.830 -19.191 -21.969  0.00  0.00    +0.047 C 
ATOM     18  C   UNL     1      34.682 -17.804 -21.892  0.00  0.00    +0.135 C 
ATOM     19  C   UNL     1      34.571 -17.047 -23.058  0.00  0.00    +0.034 C 
ATOM     20  C   UNL     1      34.867 -19.817 -23.217  0.00  0.00    +0.004 C 
ATOM     21  C   UNL     1      34.609 -17.675 -24.303  0.00  0.00    +0.003 C 
ATOM     22  C   UNL     1      34.757 -19.059 -24.382  0.00  0.00    +0.000 C 
BRANCH  19  23
ATOM     23  C   UNL     1      34.417 -15.607 -23.001  0.00  0.00    +0.003 C 
ATOM     24  C   UNL     1      33.929 -14.917 -24.109  0.00  0.00    +0.000 C 
ATOM     25  C   UNL     1      34.758 -14.916 -21.839  0.00  0.00    +0.000 C 
ATOM     26  C   UNL     1      33.780 -13.530 -24.055  0.00  0.00    +0.000 C 
ATOM     27  C   UNL     1      34.610 -13.531 -21.786  0.00  0.00    +0.000 C 
ATOM     28  C   UNL     1      34.121 -12.838 -22.893  0.00  0.00    +0.000 C 
ENDBRANCH  19  23
BRANCH  18  29
ATOM     29  O   UNL     1      34.646 -17.190 -20.672  0.00  0.00    -0.505 OA
ATOM     30  H   UNL     1      34.677 -16.255 -20.616  0.00  0.00    +0.292 HD
ENDBRANCH  18  29
ENDBRANCH   2  17
TORSDOF 4
ENDMDL
