MODEL 1
REMARK VINA RESULT:     -11.8      0.000      0.000
REMARK  Name = 71360
REMARK  8 active torsions:
REMARK  status: ('A' for Active; 'I' for Inactive)
REMARK    1  A    between atoms: N_1  and  C_18
REMARK    2  A    between atoms: C_2  and  C_11
REMARK    3  A    between atoms: C_18  and  C_19
REMARK    4  A    between atoms: C_19  and  C_20
REMARK    5  A    between atoms: C_20  and  O_21
REMARK    6  A    between atoms: O_21  and  C_22
REMARK    7  A    between atoms: C_23  and  O_31
REMARK    8  A    between atoms: C_27  and  C_29
REMARK                            x       y       z     vdW  Elec       q    Type
REMARK                         _______ _______ _______ _____ _____    ______ ____
ROOT
ATOM      1  N   UNL     1      34.071 -15.726 -23.480  0.00  0.00    +0.387 N 
ATOM      2  C   UNL     1      35.824 -17.586 -22.039  0.00  0.00    +0.039 C 
ATOM      3  C   UNL     1      35.016 -18.005 -23.278  0.00  0.00    -0.017 C 
ATOM      4  C   UNL     1      35.140 -16.393 -21.350  0.00  0.00    -0.017 C 
ATOM      5  C   UNL     1      34.752 -16.811 -24.200  0.00  0.00    -0.077 C 
ATOM      6  C   UNL     1      34.873 -15.258 -22.341  0.00  0.00    -0.077 C 
ATOM      7  H   UNL     1      33.192 -16.094 -23.115  0.00  0.00    -0.080 HD
ENDROOT
BRANCH   2  11
ATOM      8  F   UNL     1      33.477 -22.749 -18.425  0.00  0.00    -0.204 F 
ATOM      9  O   UNL     1      37.219 -20.080 -19.844  0.00  0.00    -0.354 OA
ATOM     10  N   UNL     1      37.325 -18.979 -20.685  0.00  0.00    -0.081 NA
ATOM     11  C   UNL     1      36.082 -18.737 -21.093  0.00  0.00    +0.100 A 
ATOM     12  C   UNL     1      35.144 -19.634 -20.560  0.00  0.00    +0.054 A 
ATOM     13  C   UNL     1      35.916 -20.469 -19.771  0.00  0.00    +0.179 A 
ATOM     14  C   UNL     1      33.760 -19.853 -20.634  0.00  0.00    +0.007 C 
ATOM     15  C   UNL     1      35.413 -21.534 -19.031  0.00  0.00    +0.070 C 
ATOM     16  C   UNL     1      33.219 -20.918 -19.899  0.00  0.00    +0.030 C 
ATOM     17  C   UNL     1      34.031 -21.742 -19.113  0.00  0.00    +0.143 C 
ENDBRANCH   2  11
BRANCH   1  18
ATOM     18  C   UNL     1      33.775 -14.617 -24.388  0.00  0.00    -0.074 C 
BRANCH  18  19
ATOM     19  C   UNL     1      33.162 -13.453 -23.618  0.00  0.00    +0.025 C 
BRANCH  19  20
ATOM     20  C   UNL     1      33.905 -12.152 -23.885  0.00  0.00    +0.203 C 
BRANCH  20  21
ATOM     21  O   UNL     1      32.957 -11.120 -24.118  0.00  0.00    -0.472 OA
BRANCH  21  22
ATOM     22  C   UNL     1      32.937 -10.085 -23.220  0.00  0.00    +0.172 C 
ATOM     23  C   UNL     1      32.025 -10.088 -22.169  0.00  0.00    +0.172 C 
ATOM     24  C   UNL     1      33.836  -9.035 -23.374  0.00  0.00    +0.040 C 
ATOM     25  C   UNL     1      32.014  -9.028 -21.261  0.00  0.00    +0.043 C 
ATOM     26  C   UNL     1      33.825  -7.976 -22.466  0.00  0.00    +0.006 C 
ATOM     27  C   UNL     1      32.914  -7.972 -21.411  0.00  0.00    +0.038 C 
BRANCH  27  29
ATOM     28  O   UNL     1      33.326  -7.005 -19.298  0.00  0.00    -0.291 OA
ATOM     29  C   UNL     1      32.902  -6.868 -20.464  0.00  0.00    +0.174 C 
ATOM     30  C   UNL     1      32.367  -5.503 -20.882  0.00  0.00    +0.077 C 
ENDBRANCH  27  29
BRANCH  23  31
ATOM     31  O   UNL     1      31.143 -11.113 -22.012  0.00  0.00    -0.468 OA
ATOM     32  C   UNL     1      31.271 -11.904 -20.833  0.00  0.00    +0.253 C 
ENDBRANCH  23  31
ENDBRANCH  21  22
ENDBRANCH  20  21
ENDBRANCH  19  20
ENDBRANCH  18  19
ENDBRANCH   1  18
TORSDOF 8
ENDMDL
MODEL 2
REMARK VINA RESULT:     -11.7      4.573     11.807
REMARK  Name = 71360
REMARK  8 active torsions:
REMARK  status: ('A' for Active; 'I' for Inactive)
REMARK    1  A    between atoms: N_1  and  C_18
REMARK    2  A    between atoms: C_2  and  C_11
REMARK    3  A    between atoms: C_18  and  C_19
REMARK    4  A    between atoms: C_19  and  C_20
REMARK    5  A    between atoms: C_20  and  O_21
REMARK    6  A    between atoms: O_21  and  C_22
REMARK    7  A    between atoms: C_23  and  O_31
REMARK    8  A    between atoms: C_27  and  C_29
REMARK                            x       y       z     vdW  Elec       q    Type
REMARK                         _______ _______ _______ _____ _____    ______ ____
ROOT
ATOM      1  N   UNL     1      35.705 -19.562 -20.395  0.00  0.00    +0.387 N 
ATOM      2  C   UNL     1      35.243 -18.172 -22.937  0.00  0.00    +0.039 C 
ATOM      3  C   UNL     1      36.086 -17.564 -21.805  0.00  0.00    -0.017 C 
ATOM      4  C   UNL     1      34.242 -19.184 -22.356  0.00  0.00    -0.017 C 
ATOM      5  C   UNL     1      36.724 -18.654 -20.939  0.00  0.00    -0.077 C 
ATOM      6  C   UNL     1      34.946 -20.216 -21.471  0.00  0.00    -0.077 C 
ATOM      7  H   UNL     1      35.051 -19.007 -19.842  0.00  0.00    -0.080 HD
ENDROOT
BRANCH   2  11
ATOM      8  F   UNL     1      33.296 -11.798 -23.832  0.00  0.00    -0.204 F 
ATOM      9  O   UNL     1      33.559 -16.297 -25.512  0.00  0.00    -0.354 OA
ATOM     10  N   UNL     1      34.090 -17.469 -24.987  0.00  0.00    -0.081 NA
ATOM     11  C   UNL     1      34.578 -17.122 -23.799  0.00  0.00    +0.100 A 
ATOM     12  C   UNL     1      34.396 -15.763 -23.505  0.00  0.00    +0.054 A 
ATOM     13  C   UNL     1      33.742 -15.281 -24.625  0.00  0.00    +0.179 A 
ATOM     14  C   UNL     1      34.690 -14.881 -22.454  0.00  0.00    +0.007 C 
ATOM     15  C   UNL     1      33.348 -13.957 -24.794  0.00  0.00    +0.070 C 
ATOM     16  C   UNL     1      34.306 -13.539 -22.590  0.00  0.00    +0.030 C 
ATOM     17  C   UNL     1      33.647 -13.087 -23.739  0.00  0.00    +0.143 C 
ENDBRANCH   2  11
BRANCH   1  18
ATOM     18  C   UNL     1      36.323 -20.562 -19.525  0.00  0.00    -0.074 C 
BRANCH  18  19
ATOM     19  C   UNL     1      35.556 -21.877 -19.602  0.00  0.00    +0.025 C 
BRANCH  19  20
ATOM     20  C   UNL     1      34.484 -21.963 -18.524  0.00  0.00    +0.203 C 
BRANCH  20  21
ATOM     21  O   UNL     1      34.885 -22.920 -17.552  0.00  0.00    -0.472 OA
BRANCH  21  22
ATOM     22  C   UNL     1      33.976 -23.226 -16.573  0.00  0.00    +0.172 C 
ATOM     23  C   UNL     1      34.392 -23.853 -15.404  0.00  0.00    +0.172 C 
ATOM     24  C   UNL     1      32.637 -22.902 -16.766  0.00  0.00    +0.040 C 
ATOM     25  C   UNL     1      33.457 -24.160 -14.414  0.00  0.00    +0.043 C 
ATOM     26  C   UNL     1      31.703 -23.208 -15.776  0.00  0.00    +0.006 C 
ATOM     27  C   UNL     1      32.112 -23.838 -14.601  0.00  0.00    +0.038 C 
BRANCH  27  29
ATOM     28  O   UNL     1      31.258 -23.725 -12.405  0.00  0.00    -0.291 OA
ATOM     29  C   UNL     1      31.138 -24.157 -13.569  0.00  0.00    +0.174 C 
ATOM     30  C   UNL     1      29.935 -25.036 -13.894  0.00  0.00    +0.077 C 
ENDBRANCH  27  29
BRANCH  23  31
ATOM     31  O   UNL     1      35.702 -24.172 -15.209  0.00  0.00    -0.468 OA
ATOM     32  C   UNL     1      35.979 -25.273 -14.346  0.00  0.00    +0.253 C 
ENDBRANCH  23  31
ENDBRANCH  21  22
ENDBRANCH  20  21
ENDBRANCH  19  20
ENDBRANCH  18  19
ENDBRANCH   1  18
TORSDOF 8
ENDMDL
MODEL 3
REMARK VINA RESULT:     -11.3      3.307      5.797
REMARK  Name = 71360
REMARK  8 active torsions:
REMARK  status: ('A' for Active; 'I' for Inactive)
REMARK    1  A    between atoms: N_1  and  C_18
REMARK    2  A    between atoms: C_2  and  C_11
REMARK    3  A    between atoms: C_18  and  C_19
REMARK    4  A    between atoms: C_19  and  C_20
REMARK    5  A    between atoms: C_20  and  O_21
REMARK    6  A    between atoms: O_21  and  C_22
REMARK    7  A    between atoms: C_23  and  O_31
REMARK    8  A    between atoms: C_27  and  C_29
REMARK                            x       y       z     vdW  Elec       q    Type
REMARK                         _______ _______ _______ _____ _____    ______ ____
ROOT
ATOM      1  N   UNL     1      34.495 -20.063 -20.417  0.00  0.00    +0.387 N 
ATOM      2  C   UNL     1      34.193 -22.256 -18.491  0.00  0.00    +0.039 C 
ATOM      3  C   UNL     1      33.056 -21.271 -18.805  0.00  0.00    -0.017 C 
ATOM      4  C   UNL     1      35.551 -21.596 -18.785  0.00  0.00    -0.017 C 
ATOM      5  C   UNL     1      33.187 -20.704 -20.221  0.00  0.00    -0.077 C 
ATOM      6  C   UNL     1      35.592 -21.018 -20.202  0.00  0.00    -0.077 C 
ATOM      7  H   UNL     1      34.587 -19.318 -19.726  0.00  0.00    -0.080 HD
ENDROOT
BRANCH   2  11
ATOM      8  F   UNL     1      30.472 -24.048 -13.184  0.00  0.00    -0.204 F 
ATOM      9  O   UNL     1      34.809 -23.649 -15.226  0.00  0.00    -0.354 OA
ATOM     10  N   UNL     1      35.226 -23.185 -16.467  0.00  0.00    -0.081 NA
ATOM     11  C   UNL     1      34.109 -22.818 -17.090  0.00  0.00    +0.100 A 
ATOM     12  C   UNL     1      32.957 -23.019 -16.316  0.00  0.00    +0.054 A 
ATOM     13  C   UNL     1      33.454 -23.548 -15.138  0.00  0.00    +0.179 A 
ATOM     14  C   UNL     1      31.573 -22.826 -16.446  0.00  0.00    +0.007 C 
ATOM     15  C   UNL     1      32.668 -23.915 -14.050  0.00  0.00    +0.070 C 
ATOM     16  C   UNL     1      30.750 -23.184 -15.368  0.00  0.00    +0.030 C 
ATOM     17  C   UNL     1      31.290 -23.718 -14.193  0.00  0.00    +0.143 C 
ENDBRANCH   2  11
BRANCH   1  18
ATOM     18  C   UNL     1      34.583 -19.477 -21.755  0.00  0.00    -0.074 C 
BRANCH  18  19
ATOM     19  C   UNL     1      35.784 -18.543 -21.845  0.00  0.00    +0.025 C 
BRANCH  19  20
ATOM     20  C   UNL     1      35.509 -17.210 -21.163  0.00  0.00    +0.203 C 
BRANCH  20  21
ATOM     21  O   UNL     1      35.365 -16.206 -22.157  0.00  0.00    -0.472 OA
BRANCH  21  22
ATOM     22  C   UNL     1      34.507 -15.175 -21.876  0.00  0.00    +0.172 C 
ATOM     23  C   UNL     1      33.944 -14.432 -22.909  0.00  0.00    +0.172 C 
ATOM     24  C   UNL     1      34.208 -14.883 -20.550  0.00  0.00    +0.040 C 
ATOM     25  C   UNL     1      33.071 -13.385 -22.610  0.00  0.00    +0.043 C 
ATOM     26  C   UNL     1      33.336 -13.836 -20.251  0.00  0.00    +0.006 C 
ATOM     27  C   UNL     1      32.768 -13.087 -21.281  0.00  0.00    +0.038 C 
BRANCH  27  29
ATOM     28  O   UNL     1      31.031 -11.579 -21.806  0.00  0.00    -0.291 OA
ATOM     29  C   UNL     1      31.858 -11.996 -20.970  0.00  0.00    +0.174 C 
ATOM     30  C   UNL     1      31.895 -11.332 -19.598  0.00  0.00    +0.077 C 
ENDBRANCH  27  29
BRANCH  23  31
ATOM     31  O   UNL     1      34.232 -14.713 -24.210  0.00  0.00    -0.468 OA
ATOM     32  C   UNL     1      33.179 -14.545 -25.157  0.00  0.00    +0.253 C 
ENDBRANCH  23  31
ENDBRANCH  21  22
ENDBRANCH  20  21
ENDBRANCH  19  20
ENDBRANCH  18  19
ENDBRANCH   1  18
TORSDOF 8
ENDMDL
MODEL 4
REMARK VINA RESULT:     -11.2      1.492      2.099
REMARK  Name = 71360
REMARK  8 active torsions:
REMARK  status: ('A' for Active; 'I' for Inactive)
REMARK    1  A    between atoms: N_1  and  C_18
REMARK    2  A    between atoms: C_2  and  C_11
REMARK    3  A    between atoms: C_18  and  C_19
REMARK    4  A    between atoms: C_19  and  C_20
REMARK    5  A    between atoms: C_20  and  O_21
REMARK    6  A    between atoms: O_21  and  C_22
REMARK    7  A    between atoms: C_23  and  O_31
REMARK    8  A    between atoms: C_27  and  C_29
REMARK                            x       y       z     vdW  Elec       q    Type
REMARK                         _______ _______ _______ _____ _____    ______ ____
ROOT
ATOM      1  N   UNL     1      35.323 -16.742 -23.734  0.00  0.00    +0.387 N 
ATOM      2  C   UNL     1      34.903 -18.595 -21.499  0.00  0.00    +0.039 C 
ATOM      3  C   UNL     1      35.623 -17.248 -21.330  0.00  0.00    -0.017 C 
ATOM      4  C   UNL     1      35.024 -19.072 -22.956  0.00  0.00    -0.017 C 
ATOM      5  C   UNL     1      35.147 -16.229 -22.368  0.00  0.00    -0.077 C 
ATOM      6  C   UNL     1      34.569 -17.988 -23.935  0.00  0.00    -0.077 C 
ATOM      7  H   UNL     1      36.313 -16.948 -23.868  0.00  0.00    -0.080 HD
ENDROOT
BRANCH   2  11
ATOM      8  F   UNL     1      33.447 -23.568 -17.212  0.00  0.00    -0.204 F 
ATOM      9  O   UNL     1      36.755 -20.773 -19.306  0.00  0.00    -0.354 OA
ATOM     10  N   UNL     1      36.667 -19.748 -20.239  0.00  0.00    -0.081 NA
ATOM     11  C   UNL     1      35.368 -19.635 -20.504  0.00  0.00    +0.100 A 
ATOM     12  C   UNL     1      34.579 -20.546 -19.786  0.00  0.00    +0.054 A 
ATOM     13  C   UNL     1      35.507 -21.247 -19.036  0.00  0.00    +0.179 A 
ATOM     14  C   UNL     1      33.219 -20.870 -19.664  0.00  0.00    +0.007 C 
ATOM     15  C   UNL     1      35.187 -22.275 -18.154  0.00  0.00    +0.070 C 
ATOM     16  C   UNL     1      32.861 -21.901 -18.783  0.00  0.00    +0.030 C 
ATOM     17  C   UNL     1      33.828 -22.589 -18.043  0.00  0.00    +0.143 C 
ENDBRANCH   2  11
BRANCH   1  18
ATOM     18  C   UNL     1      34.916 -15.735 -24.715  0.00  0.00    -0.074 C 
BRANCH  18  19
ATOM     19  C   UNL     1      33.406 -15.532 -24.669  0.00  0.00    +0.025 C 
BRANCH  19  20
ATOM     20  C   UNL     1      33.040 -14.054 -24.676  0.00  0.00    +0.203 C 
BRANCH  20  21
ATOM     21  O   UNL     1      33.816 -13.383 -23.693  0.00  0.00    -0.472 OA
BRANCH  21  22
ATOM     22  C   UNL     1      33.309 -12.210 -23.199  0.00  0.00    +0.172 C 
ATOM     23  C   UNL     1      32.423 -12.227 -22.127  0.00  0.00    +0.172 C 
ATOM     24  C   UNL     1      33.690 -11.007 -23.783  0.00  0.00    +0.040 C 
ATOM     25  C   UNL     1      31.913 -11.026 -21.632  0.00  0.00    +0.043 C 
ATOM     26  C   UNL     1      33.180  -9.806 -23.289  0.00  0.00    +0.006 C 
ATOM     27  C   UNL     1      32.291  -9.816 -22.214  0.00  0.00    +0.038 C 
BRANCH  27  29
ATOM     28  O   UNL     1      31.086  -7.798 -22.416  0.00  0.00    -0.291 OA
ATOM     29  C   UNL     1      31.760  -8.564 -21.698  0.00  0.00    +0.174 C 
ATOM     30  C   UNL     1      32.019  -8.158 -20.251  0.00  0.00    +0.077 C 
ENDBRANCH  27  29
BRANCH  23  31
ATOM     31  O   UNL     1      32.047 -13.403 -21.550  0.00  0.00    -0.468 OA
ATOM     32  C   UNL     1      32.706 -13.771 -20.340  0.00  0.00    +0.253 C 
ENDBRANCH  23  31
ENDBRANCH  21  22
ENDBRANCH  20  21
ENDBRANCH  19  20
ENDBRANCH  18  19
ENDBRANCH   1  18
TORSDOF 8
ENDMDL
MODEL 5
REMARK VINA RESULT:     -11.2      4.905     12.276
REMARK  Name = 71360
REMARK  8 active torsions:
REMARK  status: ('A' for Active; 'I' for Inactive)
REMARK    1  A    between atoms: N_1  and  C_18
REMARK    2  A    between atoms: C_2  and  C_11
REMARK    3  A    between atoms: C_18  and  C_19
REMARK    4  A    between atoms: C_19  and  C_20
REMARK    5  A    between atoms: C_20  and  O_21
REMARK    6  A    between atoms: O_21  and  C_22
REMARK    7  A    between atoms: C_23  and  O_31
REMARK    8  A    between atoms: C_27  and  C_29
REMARK                            x       y       z     vdW  Elec       q    Type
REMARK                         _______ _______ _______ _____ _____    ______ ____
ROOT
ATOM      1  N   UNL     1      36.040 -19.716 -20.148  0.00  0.00    +0.387 N 
ATOM      2  C   UNL     1      35.380 -18.498 -22.734  0.00  0.00    +0.039 C 
ATOM      3  C   UNL     1      36.398 -17.876 -21.764  0.00  0.00    -0.017 C 
ATOM      4  C   UNL     1      34.383 -19.371 -21.954  0.00  0.00    -0.017 C 
ATOM      5  C   UNL     1      37.051 -18.945 -20.884  0.00  0.00    -0.077 C 
ATOM      6  C   UNL     1      35.109 -20.386 -21.068  0.00  0.00    -0.077 C 
ATOM      7  H   UNL     1      35.502 -19.065 -19.576  0.00  0.00    -0.080 HD
ENDROOT
BRANCH   2  11
ATOM      8  F   UNL     1      33.394 -12.148 -23.712  0.00  0.00    -0.204 F 
ATOM      9  O   UNL     1      33.647 -16.676 -25.314  0.00  0.00    -0.354 OA
ATOM     10  N   UNL     1      34.191 -17.835 -24.777  0.00  0.00    -0.081 NA
ATOM     11  C   UNL     1      34.697 -17.466 -23.603  0.00  0.00    +0.100 A 
ATOM     12  C   UNL     1      34.515 -16.102 -23.331  0.00  0.00    +0.054 A 
ATOM     13  C   UNL     1      33.841 -15.642 -24.449  0.00  0.00    +0.179 A 
ATOM     14  C   UNL     1      34.822 -15.200 -22.302  0.00  0.00    +0.007 C 
ATOM     15  C   UNL     1      33.438 -14.324 -24.635  0.00  0.00    +0.070 C 
ATOM     16  C   UNL     1      34.431 -13.862 -22.455  0.00  0.00    +0.030 C 
ATOM     17  C   UNL     1      33.752 -13.434 -23.601  0.00  0.00    +0.143 C 
ENDBRANCH   2  11
BRANCH   1  18
ATOM     18  C   UNL     1      36.682 -20.695 -19.269  0.00  0.00    -0.074 C 
BRANCH  18  19
ATOM     19  C   UNL     1      35.631 -21.567 -18.592  0.00  0.00    +0.025 C 
BRANCH  19  20
ATOM     20  C   UNL     1      36.072 -21.993 -17.199  0.00  0.00    +0.203 C 
BRANCH  20  21
ATOM     21  O   UNL     1      35.102 -22.882 -16.662  0.00  0.00    -0.472 OA
BRANCH  21  22
ATOM     22  C   UNL     1      35.369 -23.418 -15.429  0.00  0.00    +0.172 C 
ATOM     23  C   UNL     1      34.330 -23.869 -14.621  0.00  0.00    +0.172 C 
ATOM     24  C   UNL     1      36.689 -23.503 -14.998  0.00  0.00    +0.040 C 
ATOM     25  C   UNL     1      34.615 -24.412 -13.368  0.00  0.00    +0.043 C 
ATOM     26  C   UNL     1      36.973 -24.046 -13.745  0.00  0.00    +0.006 C 
ATOM     27  C   UNL     1      35.936 -24.500 -12.930  0.00  0.00    +0.038 C 
BRANCH  27  29
ATOM     28  O   UNL     1      36.865 -26.137 -11.507  0.00  0.00    -0.291 OA
ATOM     29  C   UNL     1      36.233 -25.067 -11.623  0.00  0.00    +0.174 C 
ATOM     30  C   UNL     1      35.773 -24.357 -10.355  0.00  0.00    +0.077 C 
ENDBRANCH  27  29
BRANCH  23  31
ATOM     31  O   UNL     1      33.036 -23.789 -15.038  0.00  0.00    -0.468 OA
ATOM     32  C   UNL     1      32.201 -22.839 -14.380  0.00  0.00    +0.253 C 
ENDBRANCH  23  31
ENDBRANCH  21  22
ENDBRANCH  20  21
ENDBRANCH  19  20
ENDBRANCH  18  19
ENDBRANCH   1  18
TORSDOF 8
ENDMDL
MODEL 6
REMARK VINA RESULT:     -11.1      3.013      5.259
REMARK  Name = 71360
REMARK  8 active torsions:
REMARK  status: ('A' for Active; 'I' for Inactive)
REMARK    1  A    between atoms: N_1  and  C_18
REMARK    2  A    between atoms: C_2  and  C_11
REMARK    3  A    between atoms: C_18  and  C_19
REMARK    4  A    between atoms: C_19  and  C_20
REMARK    5  A    between atoms: C_20  and  O_21
REMARK    6  A    between atoms: O_21  and  C_22
REMARK    7  A    between atoms: C_23  and  O_31
REMARK    8  A    between atoms: C_27  and  C_29
REMARK                            x       y       z     vdW  Elec       q    Type
REMARK                         _______ _______ _______ _____ _____    ______ ____
ROOT
ATOM      1  N   UNL     1      35.823 -19.288 -20.484  0.00  0.00    +0.387 N 
ATOM      2  C   UNL     1      34.835 -21.688 -19.116  0.00  0.00    +0.039 C 
ATOM      3  C   UNL     1      33.893 -20.665 -19.771  0.00  0.00    -0.017 C 
ATOM      4  C   UNL     1      36.161 -21.009 -18.737  0.00  0.00    -0.017 C 
ATOM      5  C   UNL     1      34.582 -19.938 -20.929  0.00  0.00    -0.077 C 
ATOM      6  C   UNL     1      36.768 -20.270 -19.932  0.00  0.00    -0.077 C 
ATOM      7  H   UNL     1      35.585 -18.630 -19.742  0.00  0.00    -0.080 HD
ENDROOT
BRANCH   2  11
ATOM      8  F   UNL     1      35.290 -24.170 -12.883  0.00  0.00    -0.204 F 
ATOM      9  O   UNL     1      32.652 -23.424 -16.834  0.00  0.00    -0.354 OA
ATOM     10  N   UNL     1      32.929 -22.811 -18.050  0.00  0.00    -0.081 NA
ATOM     11  C   UNL     1      34.194 -22.409 -17.951  0.00  0.00    +0.100 A 
ATOM     12  C   UNL     1      34.777 -22.727 -16.716  0.00  0.00    +0.054 A 
ATOM     13  C   UNL     1      33.757 -23.373 -16.040  0.00  0.00    +0.179 A 
ATOM     14  C   UNL     1      36.017 -22.561 -16.081  0.00  0.00    +0.007 C 
ATOM     15  C   UNL     1      33.868 -23.879 -14.749  0.00  0.00    +0.070 C 
ATOM     16  C   UNL     1      36.165 -23.060 -14.778  0.00  0.00    +0.030 C 
ATOM     17  C   UNL     1      35.110 -23.707 -14.127  0.00  0.00    +0.143 C 
ENDBRANCH   2  11
BRANCH   1  18
ATOM     18  C   UNL     1      36.439 -18.551 -21.587  0.00  0.00    -0.074 C 
BRANCH  18  19
ATOM     19  C   UNL     1      35.420 -17.622 -22.236  0.00  0.00    +0.025 C 
BRANCH  19  20
ATOM     20  C   UNL     1      35.204 -16.363 -21.408  0.00  0.00    +0.203 C 
BRANCH  20  21
ATOM     21  O   UNL     1      35.138 -15.243 -22.281  0.00  0.00    -0.472 OA
BRANCH  21  22
ATOM     22  C   UNL     1      34.190 -14.295 -22.001  0.00  0.00    +0.172 C 
ATOM     23  C   UNL     1      33.607 -13.563 -23.030  0.00  0.00    +0.172 C 
ATOM     24  C   UNL     1      33.820 -14.075 -20.678  0.00  0.00    +0.040 C 
ATOM     25  C   UNL     1      32.642 -12.599 -22.732  0.00  0.00    +0.043 C 
ATOM     26  C   UNL     1      32.855 -13.112 -20.381  0.00  0.00    +0.006 C 
ATOM     27  C   UNL     1      32.267 -12.374 -21.407  0.00  0.00    +0.038 C 
BRANCH  27  29
ATOM     28  O   UNL     1      30.442 -10.983 -21.955  0.00  0.00    -0.291 OA
ATOM     29  C   UNL     1      31.261 -11.370 -21.097  0.00  0.00    +0.174 C 
ATOM     30  C   UNL     1      31.185 -10.765 -19.700  0.00  0.00    +0.077 C 
ENDBRANCH  27  29
BRANCH  23  31
ATOM     31  O   UNL     1      33.965 -13.774 -24.327  0.00  0.00    -0.468 OA
ATOM     32  C   UNL     1      33.201 -14.727 -25.063  0.00  0.00    +0.253 C 
ENDBRANCH  23  31
ENDBRANCH  21  22
ENDBRANCH  20  21
ENDBRANCH  19  20
ENDBRANCH  18  19
ENDBRANCH   1  18
TORSDOF 8
ENDMDL
MODEL 7
REMARK VINA RESULT:     -11.0      4.419     11.094
REMARK  Name = 71360
REMARK  8 active torsions:
REMARK  status: ('A' for Active; 'I' for Inactive)
REMARK    1  A    between atoms: N_1  and  C_18
REMARK    2  A    between atoms: C_2  and  C_11
REMARK    3  A    between atoms: C_18  and  C_19
REMARK    4  A    between atoms: C_19  and  C_20
REMARK    5  A    between atoms: C_20  and  O_21
REMARK    6  A    between atoms: O_21  and  C_22
REMARK    7  A    between atoms: C_23  and  O_31
REMARK    8  A    between atoms: C_27  and  C_29
REMARK                            x       y       z     vdW  Elec       q    Type
REMARK                         _______ _______ _______ _____ _____    ______ ____
ROOT
ATOM      1  N   UNL     1      35.888 -19.994 -20.308  0.00  0.00    +0.387 N 
ATOM      2  C   UNL     1      35.485 -18.351 -22.705  0.00  0.00    +0.039 C 
ATOM      3  C   UNL     1      36.477 -17.964 -21.597  0.00  0.00    -0.017 C 
ATOM      4  C   UNL     1      34.381 -19.252 -22.126  0.00  0.00    -0.017 C 
ATOM      5  C   UNL     1      36.996 -19.201 -20.859  0.00  0.00    -0.077 C 
ATOM      6  C   UNL     1      34.976 -20.443 -21.371  0.00  0.00    -0.077 C 
ATOM      7  H   UNL     1      35.360 -19.397 -19.672  0.00  0.00    -0.080 HD
ENDROOT
BRANCH   2  11
ATOM      8  F   UNL     1      33.456 -11.940 -22.619  0.00  0.00    -0.204 F 
ATOM      9  O   UNL     1      34.184 -15.995 -25.101  0.00  0.00    -0.354 OA
ATOM     10  N   UNL     1      34.667 -17.246 -24.740  0.00  0.00    -0.081 NA
ATOM     11  C   UNL     1      34.932 -17.150 -23.439  0.00  0.00    +0.100 A 
ATOM     12  C   UNL     1      34.648 -15.881 -22.913  0.00  0.00    +0.054 A 
ATOM     13  C   UNL     1      34.173 -15.182 -24.009  0.00  0.00    +0.179 A 
ATOM     14  C   UNL     1      34.723 -15.233 -21.671  0.00  0.00    +0.007 C 
ATOM     15  C   UNL     1      33.759 -13.854 -23.973  0.00  0.00    +0.070 C 
ATOM     16  C   UNL     1      34.312 -13.893 -21.598  0.00  0.00    +0.030 C 
ATOM     17  C   UNL     1      33.839 -13.219 -22.728  0.00  0.00    +0.143 C 
ENDBRANCH   2  11
BRANCH   1  18
ATOM     18  C   UNL     1      36.403 -21.141 -19.559  0.00  0.00    -0.074 C 
BRANCH  18  19
ATOM     19  C   UNL     1      36.756 -20.726 -18.135  0.00  0.00    +0.025 C 
BRANCH  19  20
ATOM     20  C   UNL     1      36.515 -21.859 -17.147  0.00  0.00    +0.203 C 
BRANCH  20  21
ATOM     21  O   UNL     1      35.478 -22.692 -17.647  0.00  0.00    -0.472 OA
BRANCH  21  22
ATOM     22  C   UNL     1      34.378 -22.859 -16.846  0.00  0.00    +0.172 C 
ATOM     23  C   UNL     1      33.099 -22.749 -17.382  0.00  0.00    +0.172 C 
ATOM     24  C   UNL     1      34.558 -23.136 -15.496  0.00  0.00    +0.040 C 
ATOM     25  C   UNL     1      31.987 -22.920 -16.557  0.00  0.00    +0.043 C 
ATOM     26  C   UNL     1      33.446 -23.308 -14.671  0.00  0.00    +0.006 C 
ATOM     27  C   UNL     1      32.161 -23.199 -15.201  0.00  0.00    +0.038 C 
BRANCH  27  29
ATOM     28  O   UNL     1      30.021 -22.609 -14.402  0.00  0.00    -0.291 OA
ATOM     29  C   UNL     1      31.001 -23.378 -14.341  0.00  0.00    +0.174 C 
ATOM     30  C   UNL     1      30.960 -24.524 -13.337  0.00  0.00    +0.077 C 
ENDBRANCH  27  29
BRANCH  23  31
ATOM     31  O   UNL     1      32.917 -22.477 -18.705  0.00  0.00    -0.468 OA
ATOM     32  C   UNL     1      32.651 -21.122 -19.057  0.00  0.00    +0.253 C 
ENDBRANCH  23  31
ENDBRANCH  21  22
ENDBRANCH  20  21
ENDBRANCH  19  20
ENDBRANCH  18  19
ENDBRANCH   1  18
TORSDOF 8
ENDMDL
MODEL 8
REMARK VINA RESULT:     -10.8      1.519      2.424
REMARK  Name = 71360
REMARK  8 active torsions:
REMARK  status: ('A' for Active; 'I' for Inactive)
REMARK    1  A    between atoms: N_1  and  C_18
REMARK    2  A    between atoms: C_2  and  C_11
REMARK    3  A    between atoms: C_18  and  C_19
REMARK    4  A    between atoms: C_19  and  C_20
REMARK    5  A    between atoms: C_20  and  O_21
REMARK    6  A    between atoms: O_21  and  C_22
REMARK    7  A    between atoms: C_23  and  O_31
REMARK    8  A    between atoms: C_27  and  C_29
REMARK                            x       y       z     vdW  Elec       q    Type
REMARK                         _______ _______ _______ _____ _____    ______ ____
ROOT
ATOM      1  N   UNL     1      35.365 -16.395 -23.404  0.00  0.00    +0.387 N 
ATOM      2  C   UNL     1      34.917 -18.515 -21.427  0.00  0.00    +0.039 C 
ATOM      3  C   UNL     1      35.424 -17.118 -21.038  0.00  0.00    -0.017 C 
ATOM      4  C   UNL     1      35.284 -18.814 -22.890  0.00  0.00    -0.017 C 
ATOM      5  C   UNL     1      34.951 -16.057 -22.036  0.00  0.00    -0.077 C 
ATOM      6  C   UNL     1      34.815 -17.694 -23.820  0.00  0.00    -0.077 C 
ATOM      7  H   UNL     1      36.382 -16.465 -23.417  0.00  0.00    -0.080 HD
ENDROOT
BRANCH   2  11
ATOM      8  F   UNL     1      33.475 -23.589 -17.255  0.00  0.00    -0.204 F 
ATOM      9  O   UNL     1      36.782 -20.791 -19.346  0.00  0.00    -0.354 OA
ATOM     10  N   UNL     1      36.690 -19.736 -20.246  0.00  0.00    -0.081 NA
ATOM     11  C   UNL     1      35.387 -19.593 -20.475  0.00  0.00    +0.100 A 
ATOM     12  C   UNL     1      34.600 -20.510 -19.765  0.00  0.00    +0.054 A 
ATOM     13  C   UNL     1      35.533 -21.251 -19.060  0.00  0.00    +0.179 A 
ATOM     14  C   UNL     1      33.238 -20.815 -19.620  0.00  0.00    +0.007 C 
ATOM     15  C   UNL     1      35.216 -22.299 -18.202  0.00  0.00    +0.070 C 
ATOM     16  C   UNL     1      32.882 -21.865 -18.761  0.00  0.00    +0.030 C 
ATOM     17  C   UNL     1      33.854 -22.592 -18.066  0.00  0.00    +0.143 C 
ENDBRANCH   2  11
BRANCH   1  18
ATOM     18  C   UNL     1      34.955 -15.344 -24.337  0.00  0.00    -0.074 C 
BRANCH  18  19
ATOM     19  C   UNL     1      33.531 -14.893 -24.032  0.00  0.00    +0.025 C 
BRANCH  19  20
ATOM     20  C   UNL     1      33.446 -13.382 -23.868  0.00  0.00    +0.203 C 
BRANCH  20  21
ATOM     21  O   UNL     1      32.152 -13.044 -23.388  0.00  0.00    -0.472 OA
BRANCH  21  22
ATOM     22  C   UNL     1      32.094 -12.200 -22.310  0.00  0.00    +0.172 C 
ATOM     23  C   UNL     1      32.131 -10.822 -22.496  0.00  0.00    +0.172 C 
ATOM     24  C   UNL     1      31.998 -12.739 -21.031  0.00  0.00    +0.040 C 
ATOM     25  C   UNL     1      32.071  -9.973 -21.391  0.00  0.00    +0.043 C 
ATOM     26  C   UNL     1      31.938 -11.890 -19.926  0.00  0.00    +0.006 C 
ATOM     27  C   UNL     1      31.975 -10.508 -20.105  0.00  0.00    +0.038 C 
BRANCH  27  29
ATOM     28  O   UNL     1      31.986 -10.064 -17.788  0.00  0.00    -0.291 OA
ATOM     29  C   UNL     1      31.911  -9.622 -18.953  0.00  0.00    +0.174 C 
ATOM     30  C   UNL     1      31.750  -8.119 -19.147  0.00  0.00    +0.077 C 
ENDBRANCH  27  29
BRANCH  23  31
ATOM     31  O   UNL     1      32.224 -10.288 -23.746  0.00  0.00    -0.468 OA
ATOM     32  C   UNL     1      32.120  -8.870 -23.855  0.00  0.00    +0.253 C 
ENDBRANCH  23  31
ENDBRANCH  21  22
ENDBRANCH  20  21
ENDBRANCH  19  20
ENDBRANCH  18  19
ENDBRANCH   1  18
TORSDOF 8
ENDMDL
MODEL 9
REMARK VINA RESULT:     -10.7      5.039     12.175
REMARK  Name = 71360
REMARK  8 active torsions:
REMARK  status: ('A' for Active; 'I' for Inactive)
REMARK    1  A    between atoms: N_1  and  C_18
REMARK    2  A    between atoms: C_2  and  C_11
REMARK    3  A    between atoms: C_18  and  C_19
REMARK    4  A    between atoms: C_19  and  C_20
REMARK    5  A    between atoms: C_20  and  O_21
REMARK    6  A    between atoms: O_21  and  C_22
REMARK    7  A    between atoms: C_23  and  O_31
REMARK    8  A    between atoms: C_27  and  C_29
REMARK                            x       y       z     vdW  Elec       q    Type
REMARK                         _______ _______ _______ _____ _____    ______ ____
ROOT
ATOM      1  N   UNL     1      34.715 -21.168 -18.960  0.00  0.00    +0.387 N 
ATOM      2  C   UNL     1      34.861 -19.749 -21.524  0.00  0.00    +0.039 C 
ATOM      3  C   UNL     1      36.038 -19.793 -20.537  0.00  0.00    -0.017 C 
ATOM      4  C   UNL     1      33.538 -19.954 -20.767  0.00  0.00    -0.017 C 
ATOM      5  C   UNL     1      35.994 -21.058 -19.675  0.00  0.00    -0.077 C 
ATOM      6  C   UNL     1      33.584 -21.213 -19.899  0.00  0.00    -0.077 C 
ATOM      7  H   UNL     1      34.607 -20.338 -18.378  0.00  0.00    -0.080 HD
ENDROOT
BRANCH   2  11
ATOM      8  F   UNL     1      34.701 -13.041 -21.963  0.00  0.00    -0.204 F 
ATOM      9  O   UNL     1      34.897 -17.308 -24.174  0.00  0.00    -0.354 OA
ATOM     10  N   UNL     1      34.913 -18.614 -23.700  0.00  0.00    -0.081 NA
ATOM     11  C   UNL     1      34.859 -18.499 -22.376  0.00  0.00    +0.100 A 
ATOM     12  C   UNL     1      34.808 -17.167 -21.940  0.00  0.00    +0.054 A 
ATOM     13  C   UNL     1      34.833 -16.446 -23.121  0.00  0.00    +0.179 A 
ATOM     14  C   UNL     1      34.742 -16.476 -20.721  0.00  0.00    +0.007 C 
ATOM     15  C   UNL     1      34.801 -15.057 -23.193  0.00  0.00    +0.070 C 
ATOM     16  C   UNL     1      34.707 -15.074 -20.756  0.00  0.00    +0.030 C 
ATOM     17  C   UNL     1      34.736 -14.380 -21.970  0.00  0.00    +0.143 C 
ENDBRANCH   2  11
BRANCH   1  18
ATOM     18  C   UNL     1      34.711 -22.351 -18.099  0.00  0.00    -0.074 C 
BRANCH  18  19
ATOM     19  C   UNL     1      33.283 -22.722 -17.717  0.00  0.00    +0.025 C 
BRANCH  19  20
ATOM     20  C   UNL     1      33.238 -23.504 -16.411  0.00  0.00    +0.203 C 
BRANCH  20  21
ATOM     21  O   UNL     1      34.513 -24.084 -16.178  0.00  0.00    -0.472 OA
BRANCH  21  22
ATOM     22  C   UNL     1      35.031 -23.954 -14.916  0.00  0.00    +0.172 C 
ATOM     23  C   UNL     1      36.318 -23.458 -14.735  0.00  0.00    +0.172 C 
ATOM     24  C   UNL     1      34.256 -24.324 -13.823  0.00  0.00    +0.040 C 
ATOM     25  C   UNL     1      36.835 -23.330 -13.446  0.00  0.00    +0.043 C 
ATOM     26  C   UNL     1      34.772 -24.197 -12.533  0.00  0.00    +0.006 C 
ATOM     27  C   UNL     1      36.061 -23.700 -12.345  0.00  0.00    +0.038 C 
BRANCH  27  29
ATOM     28  O   UNL     1      37.631 -22.901 -10.775  0.00  0.00    -0.291 OA
ATOM     29  C   UNL     1      36.600 -23.567 -11.000  0.00  0.00    +0.174 C 
ATOM     30  C   UNL     1      35.906 -24.245  -9.824  0.00  0.00    +0.077 C 
ENDBRANCH  27  29
BRANCH  23  31
ATOM     31  O   UNL     1      37.083 -23.093 -15.802  0.00  0.00    -0.468 OA
ATOM     32  C   UNL     1      37.412 -21.711 -15.920  0.00  0.00    +0.253 C 
ENDBRANCH  23  31
ENDBRANCH  21  22
ENDBRANCH  20  21
ENDBRANCH  19  20
ENDBRANCH  18  19
ENDBRANCH   1  18
TORSDOF 8
ENDMDL
