MODEL 1
REMARK VINA RESULT:     -10.8      0.000      0.000
REMARK  Name = 25102779
REMARK  5 active torsions:
REMARK  status: ('A' for Active; 'I' for Inactive)
REMARK    1  A    between atoms: C_2  and  C_18
REMARK    2  A    between atoms: C_5  and  O_8
REMARK    3  A    between atoms: O_8  and  C_9
REMARK    4  A    between atoms: C_14  and  C_17
REMARK    5  A    between atoms: C_18  and  C_23
REMARK                            x       y       z     vdW  Elec       q    Type
REMARK                         _______ _______ _______ _____ _____    ______ ____
ROOT
ATOM      1 BR   UNL     1      32.632 -20.833 -19.959  0.00  0.00    -0.046 Br
ATOM      2  C   UNL     1      35.554 -18.094 -21.065  0.00  0.00    -0.016 C 
ATOM      3  C   UNL     1      34.334 -18.712 -20.792  0.00  0.00    +0.006 C 
ATOM      4  C   UNL     1      36.748 -18.787 -20.864  0.00  0.00    -0.001 C 
ATOM      5  C   UNL     1      35.502 -20.717 -20.118  0.00  0.00    +0.151 C 
ATOM      6  C   UNL     1      34.308 -20.024 -20.319  0.00  0.00    +0.069 C 
ATOM      7  C   UNL     1      36.722 -20.098 -20.391  0.00  0.00    +0.038 C 
ENDROOT
BRANCH   5   8
ATOM      8  O   UNL     1      35.511 -22.001 -19.657  0.00  0.00    -0.453 OA
BRANCH   8   9
ATOM      9  C   UNL     1      35.500 -22.190 -18.286  0.00  0.00    +0.146 C 
ATOM     10  C   UNL     1      36.631 -22.105 -16.154  0.00  0.00    -0.018 C 
ATOM     11  C   UNL     1      36.642 -21.914 -17.535  0.00  0.00    +0.033 C 
ATOM     12  C   UNL     1      34.346 -22.656 -17.656  0.00  0.00    +0.048 C 
ATOM     13  C   UNL     1      35.478 -22.572 -15.523  0.00  0.00    +0.006 C 
ATOM     14  C   UNL     1      34.336 -22.847 -16.274  0.00  0.00    +0.071 C 
ATOM     15  C   UNL     1      37.854 -21.810 -15.351  0.00  0.00    +0.031 C 
BRANCH  14  17
ATOM     16  N   UNL     1      32.195 -23.714 -15.102  0.00  0.00    -0.191 NA
ATOM     17  C   UNL     1      33.154 -23.325 -15.628  0.00  0.00    +0.101 C 
ENDBRANCH  14  17
ENDBRANCH   8   9
ENDBRANCH   5   8
BRANCH   2  18
ATOM     18  C   UNL     1      35.584 -16.662 -21.582  0.00  0.00    +0.070 C 
BRANCH  18  23
ATOM     19  N   UNL     1      35.075 -17.455 -23.881  0.00  0.00    -0.231 N 
ATOM     20  N   UNL     1      34.487 -17.132 -25.053  0.00  0.00    -0.126 NA
ATOM     21  N   UNL     1      33.326 -15.098 -25.686  0.00  0.00    -0.103 NA
ATOM     22  N   UNL     1      32.974 -13.891 -25.162  0.00  0.00    -0.107 NA
ATOM     23  C   UNL     1      34.996 -16.482 -22.922  0.00  0.00    +0.057 C 
ATOM     24  C   UNL     1      34.308 -15.459 -23.515  0.00  0.00    +0.078 C 
ATOM     25  C   UNL     1      34.012 -15.902 -24.832  0.00  0.00    +0.072 C 
ATOM     26  C   UNL     1      33.984 -14.255 -22.928  0.00  0.00    +0.031 C 
ATOM     27  C   UNL     1      33.288 -13.511 -23.873  0.00  0.00    +0.110 C 
ATOM     28  H   UNL     1      35.525 -18.318 -23.731  0.00  0.00    +0.175 HD
ENDBRANCH  18  23
ENDBRANCH   2  18
TORSDOF 5
ENDMDL
MODEL 2
REMARK VINA RESULT:     -10.7      3.830      9.534
REMARK  Name = 25102779
REMARK  5 active torsions:
REMARK  status: ('A' for Active; 'I' for Inactive)
REMARK    1  A    between atoms: C_2  and  C_18
REMARK    2  A    between atoms: C_5  and  O_8
REMARK    3  A    between atoms: O_8  and  C_9
REMARK    4  A    between atoms: C_14  and  C_17
REMARK    5  A    between atoms: C_18  and  C_23
REMARK                            x       y       z     vdW  Elec       q    Type
REMARK                         _______ _______ _______ _____ _____    ______ ____
ROOT
ATOM      1 BR   UNL     1      37.263 -22.413 -15.345  0.00  0.00    -0.046 Br
ATOM      2  C   UNL     1      33.222 -23.240 -14.841  0.00  0.00    -0.016 C 
ATOM      3  C   UNL     1      34.571 -22.969 -14.613  0.00  0.00    +0.006 C 
ATOM      4  C   UNL     1      32.737 -23.323 -16.146  0.00  0.00    -0.001 C 
ATOM      5  C   UNL     1      34.951 -22.862 -16.997  0.00  0.00    +0.151 C 
ATOM      6  C   UNL     1      35.435 -22.780 -15.692  0.00  0.00    +0.069 C 
ATOM      7  C   UNL     1      33.602 -23.134 -17.224  0.00  0.00    +0.038 C 
ENDROOT
BRANCH   5   8
ATOM      8  O   UNL     1      35.769 -22.683 -18.073  0.00  0.00    -0.453 OA
BRANCH   8   9
ATOM      9  C   UNL     1      35.465 -21.652 -18.946  0.00  0.00    +0.146 C 
ATOM     10  C   UNL     1      33.828 -20.339 -20.141  0.00  0.00    -0.018 C 
ATOM     11  C   UNL     1      34.135 -21.377 -19.262  0.00  0.00    +0.033 C 
ATOM     12  C   UNL     1      36.489 -20.891 -19.509  0.00  0.00    +0.048 C 
ATOM     13  C   UNL     1      34.851 -19.577 -20.706  0.00  0.00    +0.006 C 
ATOM     14  C   UNL     1      36.181 -19.852 -20.389  0.00  0.00    +0.071 C 
ATOM     15  C   UNL     1      32.405 -20.045 -20.480  0.00  0.00    +0.031 C 
BRANCH  14  17
ATOM     16  N   UNL     1      38.082 -18.438 -21.436  0.00  0.00    -0.191 NA
ATOM     17  C   UNL     1      37.229 -19.072 -20.966  0.00  0.00    +0.101 C 
ENDBRANCH  14  17
ENDBRANCH   8   9
ENDBRANCH   5   8
BRANCH   2  18
ATOM     18  C   UNL     1      32.277 -23.448 -13.665  0.00  0.00    +0.070 C 
BRANCH  18  23
ATOM     19  N   UNL     1      30.746 -25.404 -13.731  0.00  0.00    -0.231 N 
ATOM     20  N   UNL     1      29.527 -25.836 -14.117  0.00  0.00    -0.126 NA
ATOM     21  N   UNL     1      27.742 -24.623 -15.226  0.00  0.00    -0.103 NA
ATOM     22  N   UNL     1      27.468 -23.378 -15.707  0.00  0.00    -0.107 NA
ATOM     23  C   UNL     1      30.996 -24.088 -14.013  0.00  0.00    +0.057 C 
ATOM     24  C   UNL     1      29.858 -23.639 -14.625  0.00  0.00    +0.078 C 
ATOM     25  C   UNL     1      28.975 -24.751 -14.669  0.00  0.00    +0.072 C 
ATOM     26  C   UNL     1      29.643 -22.361 -15.093  0.00  0.00    +0.031 C 
ATOM     27  C   UNL     1      28.365 -22.332 -15.639  0.00  0.00    +0.110 C 
ATOM     28  H   UNL     1      31.402 -25.988 -13.285  0.00  0.00    +0.175 HD
ENDBRANCH  18  23
ENDBRANCH   2  18
TORSDOF 5
ENDMDL
MODEL 3
REMARK VINA RESULT:     -10.6      5.405     11.332
REMARK  Name = 25102779
REMARK  5 active torsions:
REMARK  status: ('A' for Active; 'I' for Inactive)
REMARK    1  A    between atoms: C_2  and  C_18
REMARK    2  A    between atoms: C_5  and  O_8
REMARK    3  A    between atoms: O_8  and  C_9
REMARK    4  A    between atoms: C_14  and  C_17
REMARK    5  A    between atoms: C_18  and  C_23
REMARK                            x       y       z     vdW  Elec       q    Type
REMARK                         _______ _______ _______ _____ _____    ______ ____
ROOT
ATOM      1 BR   UNL     1      31.025 -11.334 -20.459  0.00  0.00    -0.046 Br
ATOM      2  C   UNL     1      34.035 -13.239 -22.599  0.00  0.00    -0.016 C 
ATOM      3  C   UNL     1      33.111 -12.883 -21.617  0.00  0.00    +0.006 C 
ATOM      4  C   UNL     1      34.117 -12.501 -23.780  0.00  0.00    -0.001 C 
ATOM      5  C   UNL     1      32.350 -11.051 -22.996  0.00  0.00    +0.151 C 
ATOM      6  C   UNL     1      32.269 -11.789 -21.816  0.00  0.00    +0.069 C 
ATOM      7  C   UNL     1      33.275 -11.407 -23.979  0.00  0.00    +0.038 C 
ENDROOT
BRANCH   5   8
ATOM      8  O   UNL     1      31.542  -9.977 -23.222  0.00  0.00    -0.453 OA
BRANCH   8   9
ATOM      9  C   UNL     1      32.057  -8.719 -22.959  0.00  0.00    +0.146 C 
ATOM     10  C   UNL     1      33.948  -7.225 -22.804  0.00  0.00    -0.018 C 
ATOM     11  C   UNL     1      33.428  -8.491 -23.069  0.00  0.00    +0.033 C 
ATOM     12  C   UNL     1      31.205  -7.681 -22.582  0.00  0.00    +0.048 C 
ATOM     13  C   UNL     1      33.097  -6.186 -22.427  0.00  0.00    +0.006 C 
ATOM     14  C   UNL     1      31.725  -6.414 -22.316  0.00  0.00    +0.071 C 
ATOM     15  C   UNL     1      35.415  -6.981 -22.923  0.00  0.00    +0.031 C 
BRANCH  14  17
ATOM     16  N   UNL     1      30.145  -4.485 -21.616  0.00  0.00    -0.191 NA
ATOM     17  C   UNL     1      30.853  -5.351 -21.930  0.00  0.00    +0.101 C 
ENDBRANCH  14  17
ENDBRANCH   8   9
ENDBRANCH   5   8
BRANCH   2  18
ATOM     18  C   UNL     1      34.956 -14.432 -22.383  0.00  0.00    +0.070 C 
BRANCH  18  23
ATOM     19  N   UNL     1      34.085 -15.471 -24.465  0.00  0.00    -0.231 N 
ATOM     20  N   UNL     1      33.870 -16.638 -25.106  0.00  0.00    -0.126 NA
ATOM     21  N   UNL     1      34.342 -18.906 -24.382  0.00  0.00    -0.103 NA
ATOM     22  N   UNL     1      34.866 -19.573 -23.316  0.00  0.00    -0.107 NA
ATOM     23  C   UNL     1      34.652 -15.601 -23.226  0.00  0.00    +0.057 C 
ATOM     24  C   UNL     1      34.815 -16.949 -23.056  0.00  0.00    +0.078 C 
ATOM     25  C   UNL     1      34.319 -17.554 -24.242  0.00  0.00    +0.072 C 
ATOM     26  C   UNL     1      35.354 -17.565 -21.947  0.00  0.00    +0.031 C 
ATOM     27  C   UNL     1      35.335 -18.934 -22.185  0.00  0.00    +0.110 C 
ATOM     28  H   UNL     1      33.852 -14.597 -24.855  0.00  0.00    +0.175 HD
ENDBRANCH  18  23
ENDBRANCH   2  18
TORSDOF 5
ENDMDL
MODEL 4
REMARK VINA RESULT:     -10.5      2.064      3.188
REMARK  Name = 25102779
REMARK  5 active torsions:
REMARK  status: ('A' for Active; 'I' for Inactive)
REMARK    1  A    between atoms: C_2  and  C_18
REMARK    2  A    between atoms: C_5  and  O_8
REMARK    3  A    between atoms: O_8  and  C_9
REMARK    4  A    between atoms: C_14  and  C_17
REMARK    5  A    between atoms: C_18  and  C_23
REMARK                            x       y       z     vdW  Elec       q    Type
REMARK                         _______ _______ _______ _____ _____    ______ ____
ROOT
ATOM      1 BR   UNL     1      37.163 -22.298 -16.791  0.00  0.00    -0.046 Br
ATOM      2  C   UNL     1      35.559 -20.049 -19.896  0.00  0.00    -0.016 C 
ATOM      3  C   UNL     1      36.382 -20.529 -18.877  0.00  0.00    +0.006 C 
ATOM      4  C   UNL     1      34.373 -20.715 -20.206  0.00  0.00    -0.001 C 
ATOM      5  C   UNL     1      34.834 -22.340 -18.478  0.00  0.00    +0.151 C 
ATOM      6  C   UNL     1      36.019 -21.674 -18.169  0.00  0.00    +0.069 C 
ATOM      7  C   UNL     1      34.010 -21.860 -19.497  0.00  0.00    +0.038 C 
ENDROOT
BRANCH   5   8
ATOM      8  O   UNL     1      34.450 -23.462 -17.805  0.00  0.00    -0.453 OA
BRANCH   8   9
ATOM      9  C   UNL     1      33.566 -23.307 -16.751  0.00  0.00    +0.146 C 
ATOM     10  C   UNL     1      33.121 -23.312 -14.377  0.00  0.00    -0.018 C 
ATOM     11  C   UNL     1      34.011 -23.468 -15.439  0.00  0.00    +0.033 C 
ATOM     12  C   UNL     1      32.231 -22.990 -17.001  0.00  0.00    +0.048 C 
ATOM     13  C   UNL     1      31.786 -22.995 -14.626  0.00  0.00    +0.006 C 
ATOM     14  C   UNL     1      31.341 -22.834 -15.938  0.00  0.00    +0.071 C 
ATOM     15  C   UNL     1      33.598 -23.484 -12.974  0.00  0.00    +0.031 C 
BRANCH  14  17
ATOM     16  N   UNL     1      28.862 -22.246 -16.402  0.00  0.00    -0.191 NA
ATOM     17  C   UNL     1      29.973 -22.510 -16.194  0.00  0.00    +0.101 C 
ENDBRANCH  14  17
ENDBRANCH   8   9
ENDBRANCH   5   8
BRANCH   2  18
ATOM     18  C   UNL     1      35.953 -18.798 -20.669  0.00  0.00    +0.070 C 
BRANCH  18  23
ATOM     19  N   UNL     1      34.975 -19.798 -22.723  0.00  0.00    -0.231 N 
ATOM     20  N   UNL     1      34.443 -19.528 -23.933  0.00  0.00    -0.126 NA
ATOM     21  N   UNL     1      34.062 -17.386 -25.007  0.00  0.00    -0.103 NA
ATOM     22  N   UNL     1      34.232 -16.055 -24.771  0.00  0.00    -0.107 NA
ATOM     23  C   UNL     1      35.351 -18.692 -22.010  0.00  0.00    +0.057 C 
ATOM     24  C   UNL     1      35.039 -17.633 -22.818  0.00  0.00    +0.078 C 
ATOM     25  C   UNL     1      34.479 -18.194 -23.997  0.00  0.00    +0.072 C 
ATOM     26  C   UNL     1      35.239 -16.302 -22.519  0.00  0.00    +0.031 C 
ATOM     27  C   UNL     1      34.783 -15.563 -23.605  0.00  0.00    +0.110 C 
ATOM     28  H   UNL     1      35.086 -20.715 -22.382  0.00  0.00    +0.175 HD
ENDBRANCH  18  23
ENDBRANCH   2  18
TORSDOF 5
ENDMDL
MODEL 5
REMARK VINA RESULT:     -10.5      4.416      7.514
REMARK  Name = 25102779
REMARK  5 active torsions:
REMARK  status: ('A' for Active; 'I' for Inactive)
REMARK    1  A    between atoms: C_2  and  C_18
REMARK    2  A    between atoms: C_5  and  O_8
REMARK    3  A    between atoms: O_8  and  C_9
REMARK    4  A    between atoms: C_14  and  C_17
REMARK    5  A    between atoms: C_18  and  C_23
REMARK                            x       y       z     vdW  Elec       q    Type
REMARK                         _______ _______ _______ _____ _____    ______ ____
ROOT
ATOM      1 BR   UNL     1      34.594 -15.091 -19.924  0.00  0.00    -0.046 Br
ATOM      2  C   UNL     1      32.323 -12.802 -22.546  0.00  0.00    -0.016 C 
ATOM      3  C   UNL     1      32.839 -13.408 -21.400  0.00  0.00    +0.006 C 
ATOM      4  C   UNL     1      32.888 -13.072 -23.792  0.00  0.00    -0.001 C 
ATOM      5  C   UNL     1      34.484 -14.555 -22.748  0.00  0.00    +0.151 C 
ATOM      6  C   UNL     1      33.919 -14.285 -21.502  0.00  0.00    +0.069 C 
ATOM      7  C   UNL     1      33.968 -13.949 -23.893  0.00  0.00    +0.038 C 
ENDROOT
BRANCH   5   8
ATOM      8  O   UNL     1      35.540 -15.408 -22.881  0.00  0.00    -0.453 OA
BRANCH   8   9
ATOM      9  C   UNL     1      35.282 -16.766 -22.806  0.00  0.00    +0.146 C 
ATOM     10  C   UNL     1      34.307 -18.764 -23.748  0.00  0.00    -0.018 C 
ATOM     11  C   UNL     1      34.567 -17.397 -23.823  0.00  0.00    +0.033 C 
ATOM     12  C   UNL     1      35.738 -17.502 -21.713  0.00  0.00    +0.048 C 
ATOM     13  C   UNL     1      34.762 -19.502 -22.655  0.00  0.00    +0.006 C 
ATOM     14  C   UNL     1      35.478 -18.871 -21.638  0.00  0.00    +0.071 C 
ATOM     15  C   UNL     1      33.542 -19.439 -24.836  0.00  0.00    +0.031 C 
BRANCH  14  17
ATOM     16  N   UNL     1      36.324 -20.239 -19.608  0.00  0.00    -0.191 NA
ATOM     17  C   UNL     1      35.944 -19.626 -20.518  0.00  0.00    +0.101 C 
ENDBRANCH  14  17
ENDBRANCH   8   9
ENDBRANCH   5   8
BRANCH   2  18
ATOM     18  C   UNL     1      31.144 -11.846 -22.437  0.00  0.00    +0.070 C 
BRANCH  18  23
ATOM     19  N   UNL     1      31.738  -9.459 -22.790  0.00  0.00    -0.231 N 
ATOM     20  N   UNL     1      32.040  -8.297 -22.174  0.00  0.00    -0.126 NA
ATOM     21  N   UNL     1      32.200  -7.804 -19.803  0.00  0.00    -0.103 NA
ATOM     22  N   UNL     1      32.061  -8.422 -18.597  0.00  0.00    -0.107 NA
ATOM     23  C   UNL     1      31.488 -10.502 -21.939  0.00  0.00    +0.057 C 
ATOM     24  C   UNL     1      31.640  -9.975 -20.686  0.00  0.00    +0.078 C 
ATOM     25  C   UNL     1      31.981  -8.609 -20.876  0.00  0.00    +0.072 C 
ATOM     26  C   UNL     1      31.486 -10.658 -19.498  0.00  0.00    +0.031 C 
ATOM     27  C   UNL     1      31.728  -9.755 -18.470  0.00  0.00    +0.110 C 
ATOM     28  H   UNL     1      31.702  -9.550 -23.770  0.00  0.00    +0.175 HD
ENDBRANCH  18  23
ENDBRANCH   2  18
TORSDOF 5
ENDMDL
MODEL 6
REMARK VINA RESULT:     -10.4      7.086     11.248
REMARK  Name = 25102779
REMARK  5 active torsions:
REMARK  status: ('A' for Active; 'I' for Inactive)
REMARK    1  A    between atoms: C_2  and  C_18
REMARK    2  A    between atoms: C_5  and  O_8
REMARK    3  A    between atoms: O_8  and  C_9
REMARK    4  A    between atoms: C_14  and  C_17
REMARK    5  A    between atoms: C_18  and  C_23
REMARK                            x       y       z     vdW  Elec       q    Type
REMARK                         _______ _______ _______ _____ _____    ______ ____
ROOT
ATOM      1 BR   UNL     1      31.555 -10.393 -18.705  0.00  0.00    -0.046 Br
ATOM      2  C   UNL     1      32.814  -7.795 -21.694  0.00  0.00    -0.016 C 
ATOM      3  C   UNL     1      32.488  -8.359 -20.461  0.00  0.00    +0.006 C 
ATOM      4  C   UNL     1      32.642  -8.533 -22.865  0.00  0.00    -0.001 C 
ATOM      5  C   UNL     1      31.816 -10.397 -21.569  0.00  0.00    +0.151 C 
ATOM      6  C   UNL     1      31.989  -9.659 -20.399  0.00  0.00    +0.069 C 
ATOM      7  C   UNL     1      32.143  -9.834 -22.803  0.00  0.00    +0.038 C 
ENDROOT
BRANCH   5   8
ATOM      8  O   UNL     1      31.331 -11.671 -21.543  0.00  0.00    -0.453 OA
BRANCH   8   9
ATOM      9  C   UNL     1      32.206 -12.698 -21.852  0.00  0.00    +0.146 C 
ATOM     10  C   UNL     1      33.855 -14.321 -21.157  0.00  0.00    -0.018 C 
ATOM     11  C   UNL     1      32.973 -13.286 -20.847  0.00  0.00    +0.033 C 
ATOM     12  C   UNL     1      32.321 -13.144 -23.168  0.00  0.00    +0.048 C 
ATOM     13  C   UNL     1      33.971 -14.767 -22.474  0.00  0.00    +0.006 C 
ATOM     14  C   UNL     1      33.204 -14.179 -23.479  0.00  0.00    +0.071 C 
ATOM     15  C   UNL     1      34.675 -14.949 -20.081  0.00  0.00    +0.031 C 
BRANCH  14  17
ATOM     16  N   UNL     1      33.420 -15.008 -25.923  0.00  0.00    -0.191 NA
ATOM     17  C   UNL     1      33.323 -14.636 -24.827  0.00  0.00    +0.101 C 
ENDBRANCH  14  17
ENDBRANCH   8   9
ENDBRANCH   5   8
BRANCH   2  18
ATOM     18  C   UNL     1      33.357  -6.375 -21.764  0.00  0.00    +0.070 C 
BRANCH  18  23
ATOM     19  N   UNL     1      31.622  -4.719 -21.116  0.00  0.00    -0.231 N 
ATOM     20  N   UNL     1      30.741  -3.808 -21.580  0.00  0.00    -0.126 NA
ATOM     21  N   UNL     1      30.275  -3.138 -23.865  0.00  0.00    -0.103 NA
ATOM     22  N   UNL     1      30.677  -3.417 -25.137  0.00  0.00    -0.107 NA
ATOM     23  C   UNL     1      32.350  -5.349 -22.088  0.00  0.00    +0.057 C 
ATOM     24  C   UNL     1      31.908  -4.806 -23.264  0.00  0.00    +0.078 C 
ATOM     25  C   UNL     1      30.914  -3.857 -22.904  0.00  0.00    +0.072 C 
ATOM     26  C   UNL     1      32.357  -5.134 -24.525  0.00  0.00    +0.031 C 
ATOM     27  C   UNL     1      31.650  -4.351 -25.430  0.00  0.00    +0.110 C 
ATOM     28  H   UNL     1      31.730  -4.915 -20.157  0.00  0.00    +0.175 HD
ENDBRANCH  18  23
ENDBRANCH   2  18
TORSDOF 5
ENDMDL
MODEL 7
REMARK VINA RESULT:     -10.3      7.264     10.136
REMARK  Name = 25102779
REMARK  5 active torsions:
REMARK  status: ('A' for Active; 'I' for Inactive)
REMARK    1  A    between atoms: C_2  and  C_18
REMARK    2  A    between atoms: C_5  and  O_8
REMARK    3  A    between atoms: O_8  and  C_9
REMARK    4  A    between atoms: C_14  and  C_17
REMARK    5  A    between atoms: C_18  and  C_23
REMARK                            x       y       z     vdW  Elec       q    Type
REMARK                         _______ _______ _______ _____ _____    ______ ____
ROOT
ATOM      1 BR   UNL     1      33.733 -21.732 -19.414  0.00  0.00    -0.046 Br
ATOM      2  C   UNL     1      35.763 -22.830 -15.958  0.00  0.00    -0.016 C 
ATOM      3  C   UNL     1      35.451 -22.389 -17.244  0.00  0.00    +0.006 C 
ATOM      4  C   UNL     1      34.745 -23.220 -15.088  0.00  0.00    -0.001 C 
ATOM      5  C   UNL     1      33.102 -22.726 -16.790  0.00  0.00    +0.151 C 
ATOM      6  C   UNL     1      34.120 -22.337 -17.659  0.00  0.00    +0.069 C 
ATOM      7  C   UNL     1      33.414 -23.168 -15.504  0.00  0.00    +0.038 C 
ENDROOT
BRANCH   5   8
ATOM      8  O   UNL     1      31.792 -22.688 -17.165  0.00  0.00    -0.453 OA
BRANCH   8   9
ATOM      9  C   UNL     1      30.846 -23.084 -16.235  0.00  0.00    +0.146 C 
ATOM     10  C   UNL     1      30.260 -24.322 -14.246  0.00  0.00    -0.018 C 
ATOM     11  C   UNL     1      31.212 -23.923 -15.183  0.00  0.00    +0.033 C 
ATOM     12  C   UNL     1      29.528 -22.643 -16.350  0.00  0.00    +0.048 C 
ATOM     13  C   UNL     1      28.941 -23.883 -14.361  0.00  0.00    +0.006 C 
ATOM     14  C   UNL     1      28.575 -23.043 -15.412  0.00  0.00    +0.071 C 
ATOM     15  C   UNL     1      30.651 -25.220 -13.121  0.00  0.00    +0.031 C 
BRANCH  14  17
ATOM     16  N   UNL     1      26.127 -22.226 -15.624  0.00  0.00    -0.191 NA
ATOM     17  C   UNL     1      27.224 -22.593 -15.530  0.00  0.00    +0.101 C 
ENDBRANCH  14  17
ENDBRANCH   8   9
ENDBRANCH   5   8
BRANCH   2  18
ATOM     18  C   UNL     1      37.215 -22.889 -15.504  0.00  0.00    +0.070 C 
BRANCH  18  23
ATOM     19  N   UNL     1      37.934 -25.194 -14.917  0.00  0.00    -0.231 N 
ATOM     20  N   UNL     1      38.156 -26.053 -13.900  0.00  0.00    -0.126 NA
ATOM     21  N   UNL     1      37.913 -25.709 -11.510  0.00  0.00    -0.103 NA
ATOM     22  N   UNL     1      37.550 -24.738 -10.627  0.00  0.00    -0.107 NA
ATOM     23  C   UNL     1      37.509 -23.953 -14.527  0.00  0.00    +0.057 C 
ATOM     24  C   UNL     1      37.453 -24.015 -13.161  0.00  0.00    +0.078 C 
ATOM     25  C   UNL     1      37.862 -25.331 -12.814  0.00  0.00    +0.072 C 
ATOM     26  C   UNL     1      37.074 -22.991 -12.320  0.00  0.00    +0.031 C 
ATOM     27  C   UNL     1      37.160 -23.473 -11.020  0.00  0.00    +0.110 C 
ATOM     28  H   UNL     1      38.064 -25.441 -15.861  0.00  0.00    +0.175 HD
ENDBRANCH  18  23
ENDBRANCH   2  18
TORSDOF 5
ENDMDL
MODEL 8
REMARK VINA RESULT:     -10.1      5.879     11.970
REMARK  Name = 25102779
REMARK  5 active torsions:
REMARK  status: ('A' for Active; 'I' for Inactive)
REMARK    1  A    between atoms: C_2  and  C_18
REMARK    2  A    between atoms: C_5  and  O_8
REMARK    3  A    between atoms: O_8  and  C_9
REMARK    4  A    between atoms: C_14  and  C_17
REMARK    5  A    between atoms: C_18  and  C_23
REMARK                            x       y       z     vdW  Elec       q    Type
REMARK                         _______ _______ _______ _____ _____    ______ ____
ROOT
ATOM      1 BR   UNL     1      30.495 -11.103 -20.581  0.00  0.00    -0.046 Br
ATOM      2  C   UNL     1      33.673 -12.523 -22.850  0.00  0.00    -0.016 C 
ATOM      3  C   UNL     1      32.704 -12.357 -21.861  0.00  0.00    +0.006 C 
ATOM      4  C   UNL     1      33.737 -11.631 -23.921  0.00  0.00    -0.001 C 
ATOM      5  C   UNL     1      31.862 -10.407 -23.013  0.00  0.00    +0.151 C 
ATOM      6  C   UNL     1      31.799 -11.298 -21.943  0.00  0.00    +0.069 C 
ATOM      7  C   UNL     1      32.832 -10.573 -24.003  0.00  0.00    +0.038 C 
ENDROOT
BRANCH   5   8
ATOM      8  O   UNL     1      30.993  -9.362 -23.123  0.00  0.00    -0.453 OA
BRANCH   8   9
ATOM      9  C   UNL     1      31.511  -8.082 -23.022  0.00  0.00    +0.146 C 
ATOM     10  C   UNL     1      32.411  -6.291 -21.676  0.00  0.00    -0.018 C 
ATOM     11  C   UNL     1      31.889  -7.579 -21.778  0.00  0.00    +0.033 C 
ATOM     12  C   UNL     1      31.654  -7.297 -24.166  0.00  0.00    +0.048 C 
ATOM     13  C   UNL     1      32.554  -5.504 -22.819  0.00  0.00    +0.006 C 
ATOM     14  C   UNL     1      32.176  -6.007 -24.064  0.00  0.00    +0.071 C 
ATOM     15  C   UNL     1      32.815  -5.753 -20.345  0.00  0.00    +0.031 C 
BRANCH  14  17
ATOM     16  N   UNL     1      32.443  -4.547 -26.186  0.00  0.00    -0.191 NA
ATOM     17  C   UNL     1      32.323  -5.201 -25.234  0.00  0.00    +0.101 C 
ENDBRANCH  14  17
ENDBRANCH   8   9
ENDBRANCH   5   8
BRANCH   2  18
ATOM     18  C   UNL     1      34.662 -13.677 -22.762  0.00  0.00    +0.070 C 
BRANCH  18  23
ATOM     19  N   UNL     1      33.618 -14.716 -24.762  0.00  0.00    -0.231 N 
ATOM     20  N   UNL     1      33.385 -15.880 -25.404  0.00  0.00    -0.126 NA
ATOM     21  N   UNL     1      34.027 -18.137 -24.785  0.00  0.00    -0.103 NA
ATOM     22  N   UNL     1      34.691 -18.799 -23.796  0.00  0.00    -0.107 NA
ATOM     23  C   UNL     1      34.319 -14.843 -23.594  0.00  0.00    +0.057 C 
ATOM     24  C   UNL     1      34.556 -16.185 -23.473  0.00  0.00    +0.078 C 
ATOM     25  C   UNL     1      33.962 -16.790 -24.613  0.00  0.00    +0.072 C 
ATOM     26  C   UNL     1      35.237 -16.796 -22.442  0.00  0.00    +0.031 C 
ATOM     27  C   UNL     1      35.250 -18.160 -22.708  0.00  0.00    +0.110 C 
ATOM     28  H   UNL     1      33.307 -13.847 -25.106  0.00  0.00    +0.175 HD
ENDBRANCH  18  23
ENDBRANCH   2  18
TORSDOF 5
ENDMDL
MODEL 9
REMARK VINA RESULT:     -10.1      3.623      5.753
REMARK  Name = 25102779
REMARK  5 active torsions:
REMARK  status: ('A' for Active; 'I' for Inactive)
REMARK    1  A    between atoms: C_2  and  C_18
REMARK    2  A    between atoms: C_5  and  O_8
REMARK    3  A    between atoms: O_8  and  C_9
REMARK    4  A    between atoms: C_14  and  C_17
REMARK    5  A    between atoms: C_18  and  C_23
REMARK                            x       y       z     vdW  Elec       q    Type
REMARK                         _______ _______ _______ _____ _____    ______ ____
ROOT
ATOM      1 BR   UNL     1      30.418 -23.148 -15.453  0.00  0.00    -0.046 Br
ATOM      2  C   UNL     1      33.536 -22.281 -18.059  0.00  0.00    -0.016 C 
ATOM      3  C   UNL     1      32.275 -22.406 -17.475  0.00  0.00    +0.006 C 
ATOM      4  C   UNL     1      34.666 -22.744 -17.386  0.00  0.00    -0.001 C 
ATOM      5  C   UNL     1      33.276 -23.457 -15.544  0.00  0.00    +0.151 C 
ATOM      6  C   UNL     1      32.146 -22.994 -16.217  0.00  0.00    +0.069 C 
ATOM      7  C   UNL     1      34.536 -23.332 -16.128  0.00  0.00    +0.038 C 
ENDROOT
BRANCH   5   8
ATOM      8  O   UNL     1      33.184 -24.037 -14.313  0.00  0.00    -0.453 OA
BRANCH   8   9
ATOM      9  C   UNL     1      34.354 -24.488 -13.726  0.00  0.00    +0.146 C 
ATOM     10  C   UNL     1      36.454 -25.669 -13.889  0.00  0.00    -0.018 C 
ATOM     11  C   UNL     1      35.275 -25.216 -14.479  0.00  0.00    +0.033 C 
ATOM     12  C   UNL     1      34.611 -24.215 -12.383  0.00  0.00    +0.048 C 
ATOM     13  C   UNL     1      36.712 -25.397 -12.545  0.00  0.00    +0.006 C 
ATOM     14  C   UNL     1      35.790 -24.669 -11.793  0.00  0.00    +0.071 C 
ATOM     15  C   UNL     1      37.439 -26.448 -14.694  0.00  0.00    +0.031 C 
BRANCH  14  17
ATOM     16  N   UNL     1      36.268 -24.164  -9.298  0.00  0.00    -0.191 NA
ATOM     17  C   UNL     1      36.054 -24.390 -10.416  0.00  0.00    +0.101 C 
ENDBRANCH  14  17
ENDBRANCH   8   9
ENDBRANCH   5   8
BRANCH   2  18
ATOM     18  C   UNL     1      33.679 -21.640 -19.433  0.00  0.00    +0.070 C 
BRANCH  18  23
ATOM     19  N   UNL     1      35.954 -20.933 -18.729  0.00  0.00    -0.231 N 
ATOM     20  N   UNL     1      37.017 -20.166 -19.049  0.00  0.00    -0.126 NA
ATOM     21  N   UNL     1      37.349 -18.711 -20.963  0.00  0.00    -0.103 NA
ATOM     22  N   UNL     1      36.697 -18.299 -22.086  0.00  0.00    -0.107 NA
ATOM     23  C   UNL     1      34.921 -20.870 -19.624  0.00  0.00    +0.057 C 
ATOM     24  C   UNL     1      35.347 -20.000 -20.590  0.00  0.00    +0.078 C 
ATOM     25  C   UNL     1      36.649 -19.589 -20.197  0.00  0.00    +0.072 C 
ATOM     26  C   UNL     1      34.635 -19.621 -21.708  0.00  0.00    +0.031 C 
ATOM     27  C   UNL     1      35.430 -18.732 -22.421  0.00  0.00    +0.110 C 
ATOM     28  H   UNL     1      35.924 -21.490 -17.918  0.00  0.00    +0.175 HD
ENDBRANCH  18  23
ENDBRANCH   2  18
TORSDOF 5
ENDMDL
