MODEL 1
REMARK VINA RESULT:     -11.2      0.000      0.000
REMARK  Name = 3152
REMARK  6 active torsions:
REMARK  status: ('A' for Active; 'I' for Inactive)
REMARK    1  A    between atoms: C_1  and  C_3
REMARK    2  A    between atoms: C_1  and  C_17
REMARK    3  A    between atoms: C_10  and  O_12
REMARK    4  A    between atoms: C_11  and  O_14
REMARK    5  A    between atoms: N_16  and  C_23
REMARK    6  A    between atoms: C_23  and  C_24
REMARK                            x       y       z     vdW  Elec       q    Type
REMARK                         _______ _______ _______ _____ _____    ______ ____
ROOT
ATOM      1  C   UNL     1      35.150 -19.871 -22.198  0.00  0.00    +0.008 C 
ENDROOT
BRANCH   1   3
ATOM      2  O   UNL     1      32.585 -20.344 -20.674  0.00  0.00    -0.291 OA
ATOM      3  C   UNL     1      34.943 -19.686 -20.707  0.00  0.00    +0.066 C 
ATOM      4  C   UNL     1      36.111 -20.258 -19.870  0.00  0.00    +0.034 C 
ATOM      5  C   UNL     1      33.714 -20.435 -20.224  0.00  0.00    +0.173 C 
ATOM      6  C   UNL     1      35.446 -21.185 -18.903  0.00  0.00    -0.016 C 
ATOM      7  C   UNL     1      34.077 -21.296 -19.111  0.00  0.00    +0.034 C 
ATOM      8  C   UNL     1      36.048 -21.914 -17.888  0.00  0.00    +0.036 C 
ATOM      9  C   UNL     1      33.262 -22.109 -18.346  0.00  0.00    +0.043 C 
ATOM     10  C   UNL     1      35.248 -22.743 -17.095  0.00  0.00    +0.172 C 
ATOM     11  C   UNL     1      33.865 -22.841 -17.323  0.00  0.00    +0.172 C 
BRANCH  10  12
ATOM     12  O   UNL     1      35.830 -23.465 -16.094  0.00  0.00    -0.468 OA
ATOM     13  C   UNL     1      36.917 -22.854 -15.404  0.00  0.00    +0.253 C 
ENDBRANCH  10  12
BRANCH  11  14
ATOM     14  O   UNL     1      33.098 -23.656 -16.544  0.00  0.00    -0.468 OA
ATOM     15  C   UNL     1      31.875 -23.115 -16.051  0.00  0.00    +0.253 C 
ENDBRANCH  11  14
ENDBRANCH   1   3
BRANCH   1  17
ATOM     16  N   UNL     1      34.285 -15.885 -23.618  0.00  0.00    +0.390 N 
ATOM     17  C   UNL     1      35.326 -18.532 -22.907  0.00  0.00    -0.004 C 
ATOM     18  C   UNL     1      34.252 -18.332 -23.982  0.00  0.00    -0.023 C 
ATOM     19  C   UNL     1      35.281 -17.370 -21.909  0.00  0.00    -0.023 C 
ATOM     20  C   UNL     1      34.363 -16.948 -24.627  0.00  0.00    -0.077 C 
ATOM     21  C   UNL     1      35.358 -16.019 -22.623  0.00  0.00    -0.077 C 
ATOM     22  H   UNL     1      33.392 -15.975 -23.133  0.00  0.00    -0.079 HD
BRANCH  16  23
ATOM     23  C   UNL     1      34.339 -14.569 -24.255  0.00  0.00    -0.050 C 
BRANCH  23  24
ATOM     24  C   UNL     1      33.590 -13.530 -23.463  0.00  0.00    -0.043 C 
ATOM     25  C   UNL     1      32.893 -13.910 -22.325  0.00  0.00    -0.006 C 
ATOM     26  C   UNL     1      33.608 -12.207 -23.883  0.00  0.00    -0.006 C 
ATOM     27  C   UNL     1      32.199 -12.948 -21.592  0.00  0.00    -0.000 C 
ATOM     28  C   UNL     1      32.914 -11.244 -23.149  0.00  0.00    -0.000 C 
ATOM     29  C   UNL     1      32.210 -11.615 -22.004  0.00  0.00    -0.000 C 
ENDBRANCH  23  24
ENDBRANCH  16  23
ENDBRANCH   1  17
TORSDOF 6
ENDMDL
MODEL 2
REMARK VINA RESULT:     -10.8      1.968      3.755
REMARK  Name = 3152
REMARK  6 active torsions:
REMARK  status: ('A' for Active; 'I' for Inactive)
REMARK    1  A    between atoms: C_1  and  C_3
REMARK    2  A    between atoms: C_1  and  C_17
REMARK    3  A    between atoms: C_10  and  O_12
REMARK    4  A    between atoms: C_11  and  O_14
REMARK    5  A    between atoms: N_16  and  C_23
REMARK    6  A    between atoms: C_23  and  C_24
REMARK                            x       y       z     vdW  Elec       q    Type
REMARK                         _______ _______ _______ _____ _____    ______ ____
ROOT
ATOM      1  C   UNL     1      36.443 -20.518 -18.821  0.00  0.00    +0.008 C 
ENDROOT
BRANCH   1   3
ATOM      2  O   UNL     1      37.311 -22.209 -16.474  0.00  0.00    -0.291 OA
ATOM      3  C   UNL     1      35.969 -21.923 -18.502  0.00  0.00    +0.066 C 
ATOM      4  C   UNL     1      34.442 -22.088 -18.673  0.00  0.00    +0.034 C 
ATOM      5  C   UNL     1      36.240 -22.278 -17.051  0.00  0.00    +0.173 C 
ATOM      6  C   UNL     1      33.984 -22.638 -17.359  0.00  0.00    -0.016 C 
ATOM      7  C   UNL     1      35.009 -22.737 -16.427  0.00  0.00    +0.034 C 
ATOM      8  C   UNL     1      32.698 -23.017 -17.008  0.00  0.00    +0.036 C 
ATOM      9  C   UNL     1      34.816 -23.204 -15.140  0.00  0.00    +0.043 C 
ATOM     10  C   UNL     1      32.471 -23.496 -15.714  0.00  0.00    +0.172 C 
ATOM     11  C   UNL     1      33.522 -23.588 -14.786  0.00  0.00    +0.172 C 
BRANCH  10  12
ATOM     12  O   UNL     1      31.209 -23.872 -15.358  0.00  0.00    -0.468 OA
ATOM     13  C   UNL     1      30.133 -23.081 -15.857  0.00  0.00    +0.253 C 
ENDBRANCH  10  12
BRANCH  11  14
ATOM     14  O   UNL     1      33.286 -24.054 -13.527  0.00  0.00    -0.468 OA
ATOM     15  C   UNL     1      34.421 -24.242 -12.684  0.00  0.00    +0.253 C 
ENDBRANCH  11  14
ENDBRANCH   1   3
BRANCH   1  17
ATOM     16  N   UNL     1      35.311 -18.229 -22.304  0.00  0.00    +0.390 N 
ATOM     17  C   UNL     1      36.188 -20.162 -20.283  0.00  0.00    -0.004 C 
ATOM     18  C   UNL     1      34.710 -19.835 -20.521  0.00  0.00    -0.023 C 
ATOM     19  C   UNL     1      37.057 -18.979 -20.721  0.00  0.00    -0.023 C 
ATOM     20  C   UNL     1      34.467 -19.380 -21.962  0.00  0.00    -0.077 C 
ATOM     21  C   UNL     1      36.736 -18.553 -22.156  0.00  0.00    -0.077 C 
ATOM     22  H   UNL     1      35.091 -17.472 -21.656  0.00  0.00    -0.079 HD
BRANCH  16  23
ATOM     23  C   UNL     1      35.029 -17.773 -23.666  0.00  0.00    -0.050 C 
BRANCH  23  24
ATOM     24  C   UNL     1      34.563 -16.342 -23.695  0.00  0.00    -0.043 C 
ATOM     25  C   UNL     1      33.821 -15.887 -24.775  0.00  0.00    -0.006 C 
ATOM     26  C   UNL     1      34.883 -15.498 -22.640  0.00  0.00    -0.006 C 
ATOM     27  C   UNL     1      33.389 -14.561 -24.801  0.00  0.00    -0.000 C 
ATOM     28  C   UNL     1      34.450 -14.172 -22.666  0.00  0.00    -0.000 C 
ATOM     29  C   UNL     1      33.703 -13.704 -23.747  0.00  0.00    -0.000 C 
ENDBRANCH  23  24
ENDBRANCH  16  23
ENDBRANCH   1  17
TORSDOF 6
ENDMDL
MODEL 3
REMARK VINA RESULT:     -10.7      2.298      4.070
REMARK  Name = 3152
REMARK  6 active torsions:
REMARK  status: ('A' for Active; 'I' for Inactive)
REMARK    1  A    between atoms: C_1  and  C_3
REMARK    2  A    between atoms: C_1  and  C_17
REMARK    3  A    between atoms: C_10  and  O_12
REMARK    4  A    between atoms: C_11  and  O_14
REMARK    5  A    between atoms: N_16  and  C_23
REMARK    6  A    between atoms: C_23  and  C_24
REMARK                            x       y       z     vdW  Elec       q    Type
REMARK                         _______ _______ _______ _____ _____    ______ ____
ROOT
ATOM      1  C   UNL     1      34.559 -22.679 -18.995  0.00  0.00    +0.008 C 
ENDROOT
BRANCH   1   3
ATOM      2  O   UNL     1      31.907 -22.337 -17.590  0.00  0.00    -0.291 OA
ATOM      3  C   UNL     1      34.341 -22.080 -17.618  0.00  0.00    +0.066 C 
ATOM      4  C   UNL     1      35.371 -22.584 -16.581  0.00  0.00    +0.034 C 
ATOM      5  C   UNL     1      32.990 -22.479 -17.052  0.00  0.00    +0.173 C 
ATOM      6  C   UNL     1      34.533 -23.113 -15.461  0.00  0.00    -0.016 C 
ATOM      7  C   UNL     1      33.171 -23.064 -15.732  0.00  0.00    +0.034 C 
ATOM      8  C   UNL     1      34.974 -23.633 -14.254  0.00  0.00    +0.036 C 
ATOM      9  C   UNL     1      32.209 -23.513 -14.847  0.00  0.00    +0.043 C 
ATOM     10  C   UNL     1      34.024 -24.093 -13.337  0.00  0.00    +0.172 C 
ATOM     11  C   UNL     1      32.651 -24.034 -13.631  0.00  0.00    +0.172 C 
BRANCH  10  12
ATOM     12  O   UNL     1      34.446 -24.607 -12.146  0.00  0.00    -0.468 OA
ATOM     13  C   UNL     1      35.850 -24.591 -11.896  0.00  0.00    +0.253 C 
ENDBRANCH  10  12
BRANCH  11  14
ATOM     14  O   UNL     1      31.736 -24.489 -12.729  0.00  0.00    -0.468 OA
ATOM     15  C   UNL     1      30.497 -24.966 -13.250  0.00  0.00    +0.253 C 
ENDBRANCH  11  14
ENDBRANCH   1   3
BRANCH   1  17
ATOM     16  N   UNL     1      35.753 -18.868 -20.639  0.00  0.00    +0.390 N 
ATOM     17  C   UNL     1      35.144 -21.655 -19.962  0.00  0.00    -0.004 C 
ATOM     18  C   UNL     1      34.070 -20.670 -20.438  0.00  0.00    -0.023 C 
ATOM     19  C   UNL     1      36.302 -20.886 -19.316  0.00  0.00    -0.023 C 
ATOM     20  C   UNL     1      34.671 -19.581 -21.329  0.00  0.00    -0.077 C 
ATOM     21  C   UNL     1      36.828 -19.790 -20.245  0.00  0.00    -0.077 C 
ATOM     22  H   UNL     1      35.368 -18.454 -19.790  0.00  0.00    -0.079 HD
BRANCH  16  23
ATOM     23  C   UNL     1      36.282 -17.797 -21.483  0.00  0.00    -0.050 C 
BRANCH  23  24
ATOM     24  C   UNL     1      35.378 -16.593 -21.495  0.00  0.00    -0.043 C 
ATOM     25  C   UNL     1      34.916 -16.073 -20.295  0.00  0.00    -0.006 C 
ATOM     26  C   UNL     1      35.020 -16.020 -22.708  0.00  0.00    -0.006 C 
ATOM     27  C   UNL     1      34.079 -14.958 -20.306  0.00  0.00    -0.000 C 
ATOM     28  C   UNL     1      34.183 -14.904 -22.719  0.00  0.00    -0.000 C 
ATOM     29  C   UNL     1      33.712 -14.373 -21.519  0.00  0.00    -0.000 C 
ENDBRANCH  23  24
ENDBRANCH  16  23
ENDBRANCH   1  17
TORSDOF 6
ENDMDL
MODEL 4
REMARK VINA RESULT:     -10.6      2.186      4.217
REMARK  Name = 3152
REMARK  6 active torsions:
REMARK  status: ('A' for Active; 'I' for Inactive)
REMARK    1  A    between atoms: C_1  and  C_3
REMARK    2  A    between atoms: C_1  and  C_17
REMARK    3  A    between atoms: C_10  and  O_12
REMARK    4  A    between atoms: C_11  and  O_14
REMARK    5  A    between atoms: N_16  and  C_23
REMARK    6  A    between atoms: C_23  and  C_24
REMARK                            x       y       z     vdW  Elec       q    Type
REMARK                         _______ _______ _______ _____ _____    ______ ____
ROOT
ATOM      1  C   UNL     1      34.795 -22.437 -18.861  0.00  0.00    +0.008 C 
ENDROOT
BRANCH   1   3
ATOM      2  O   UNL     1      33.197 -23.002 -16.361  0.00  0.00    -0.291 OA
ATOM      3  C   UNL     1      35.113 -21.947 -17.462  0.00  0.00    +0.066 C 
ATOM      4  C   UNL     1      36.613 -22.080 -17.112  0.00  0.00    +0.034 C 
ATOM      5  C   UNL     1      34.393 -22.775 -16.412  0.00  0.00    +0.173 C 
ATOM      6  C   UNL     1      36.623 -22.859 -15.835  0.00  0.00    -0.016 C 
ATOM      7  C   UNL     1      35.355 -23.267 -15.439  0.00  0.00    +0.034 C 
ATOM      8  C   UNL     1      37.726 -23.204 -15.069  0.00  0.00    +0.036 C 
ATOM      9  C   UNL     1      35.125 -24.012 -14.298  0.00  0.00    +0.043 C 
ATOM     10  C   UNL     1      37.524 -23.956 -13.907  0.00  0.00    +0.172 C 
ATOM     11  C   UNL     1      36.234 -24.358 -13.525  0.00  0.00    +0.172 C 
BRANCH  10  12
ATOM     12  O   UNL     1      38.603 -24.301 -13.146  0.00  0.00    -0.468 OA
ATOM     13  C   UNL     1      39.277 -25.509 -13.489  0.00  0.00    +0.253 C 
ENDBRANCH  10  12
BRANCH  11  14
ATOM     14  O   UNL     1      36.052 -25.093 -12.391  0.00  0.00    -0.468 OA
ATOM     15  C   UNL     1      35.701 -24.381 -11.207  0.00  0.00    +0.253 C 
ENDBRANCH  11  14
ENDBRANCH   1   3
BRANCH   1  17
ATOM     16  N   UNL     1      35.687 -18.690 -20.815  0.00  0.00    +0.390 N 
ATOM     17  C   UNL     1      35.280 -21.452 -19.920  0.00  0.00    -0.004 C 
ATOM     18  C   UNL     1      34.129 -20.572 -20.422  0.00  0.00    -0.023 C 
ATOM     19  C   UNL     1      36.408 -20.569 -19.377  0.00  0.00    -0.023 C 
ATOM     20  C   UNL     1      34.628 -19.515 -21.410  0.00  0.00    -0.077 C 
ATOM     21  C   UNL     1      36.831 -19.513 -20.400  0.00  0.00    -0.077 C 
ATOM     22  H   UNL     1      35.305 -18.239 -19.982  0.00  0.00    -0.079 HD
BRANCH  16  23
ATOM     23  C   UNL     1      36.116 -17.652 -21.752  0.00  0.00    -0.050 C 
BRANCH  23  24
ATOM     24  C   UNL     1      35.268 -16.413 -21.645  0.00  0.00    -0.043 C 
ATOM     25  C   UNL     1      34.871 -15.961 -20.395  0.00  0.00    -0.006 C 
ATOM     26  C   UNL     1      34.895 -15.739 -22.801  0.00  0.00    -0.006 C 
ATOM     27  C   UNL     1      34.086 -14.813 -20.297  0.00  0.00    -0.000 C 
ATOM     28  C   UNL     1      34.110 -14.589 -22.702  0.00  0.00    -0.000 C 
ATOM     29  C   UNL     1      33.705 -14.127 -21.450  0.00  0.00    -0.000 C 
ENDBRANCH  23  24
ENDBRANCH  16  23
ENDBRANCH   1  17
TORSDOF 6
ENDMDL
MODEL 5
REMARK VINA RESULT:     -10.3      4.346      9.805
REMARK  Name = 3152
REMARK  6 active torsions:
REMARK  status: ('A' for Active; 'I' for Inactive)
REMARK    1  A    between atoms: C_1  and  C_3
REMARK    2  A    between atoms: C_1  and  C_17
REMARK    3  A    between atoms: C_10  and  O_12
REMARK    4  A    between atoms: C_11  and  O_14
REMARK    5  A    between atoms: N_16  and  C_23
REMARK    6  A    between atoms: C_23  and  C_24
REMARK                            x       y       z     vdW  Elec       q    Type
REMARK                         _______ _______ _______ _____ _____    ______ ____
ROOT
ATOM      1  C   UNL     1      34.259 -15.170 -23.566  0.00  0.00    +0.008 C 
ENDROOT
BRANCH   1   3
ATOM      2  O   UNL     1      34.400 -12.316 -24.545  0.00  0.00    -0.291 OA
ATOM      3  C   UNL     1      34.439 -13.933 -22.707  0.00  0.00    +0.066 C 
ATOM      4  C   UNL     1      33.562 -13.961 -21.434  0.00  0.00    +0.034 C 
ATOM      5  C   UNL     1      34.010 -12.680 -23.450  0.00  0.00    +0.173 C 
ATOM      6  C   UNL     1      32.800 -12.674 -21.488  0.00  0.00    -0.016 C 
ATOM      7  C   UNL     1      33.047 -11.946 -22.645  0.00  0.00    +0.034 C 
ATOM      8  C   UNL     1      31.908 -12.185 -20.546  0.00  0.00    +0.036 C 
ATOM      9  C   UNL     1      32.442 -10.733 -22.916  0.00  0.00    +0.043 C 
ATOM     10  C   UNL     1      31.282 -10.959 -20.791  0.00  0.00    +0.172 C 
ATOM     11  C   UNL     1      31.546 -10.238 -21.968  0.00  0.00    +0.172 C 
BRANCH  10  12
ATOM     12  O   UNL     1      30.403 -10.468 -19.871  0.00  0.00    -0.468 OA
ATOM     13  C   UNL     1      30.935 -10.096 -18.602  0.00  0.00    +0.253 C 
ENDBRANCH  10  12
BRANCH  11  14
ATOM     14  O   UNL     1      30.926  -9.045 -22.196  0.00  0.00    -0.468 OA
ATOM     15  C   UNL     1      31.670  -7.864 -21.906  0.00  0.00    +0.253 C 
ENDBRANCH  11  14
ENDBRANCH   1   3
BRANCH   1  17
ATOM     16  N   UNL     1      35.203 -18.851 -21.513  0.00  0.00    +0.390 N 
ATOM     17  C   UNL     1      35.071 -16.345 -23.029  0.00  0.00    -0.004 C 
ATOM     18  C   UNL     1      35.038 -16.383 -21.497  0.00  0.00    -0.023 C 
ATOM     19  C   UNL     1      34.555 -17.674 -23.590  0.00  0.00    -0.023 C 
ATOM     20  C   UNL     1      35.766 -17.615 -20.955  0.00  0.00    -0.077 C 
ATOM     21  C   UNL     1      35.299 -18.863 -22.979  0.00  0.00    -0.077 C 
ATOM     22  H   UNL     1      34.215 -18.889 -21.262  0.00  0.00    -0.079 HD
BRANCH  16  23
ATOM     23  C   UNL     1      35.874 -20.021 -20.947  0.00  0.00    -0.050 C 
BRANCH  23  24
ATOM     24  C   UNL     1      34.981 -20.779 -20.001  0.00  0.00    -0.043 C 
ATOM     25  C   UNL     1      35.535 -21.713 -19.138  0.00  0.00    -0.006 C 
ATOM     26  C   UNL     1      33.614 -20.531 -20.006  0.00  0.00    -0.006 C 
ATOM     27  C   UNL     1      34.707 -22.414 -18.262  0.00  0.00    -0.000 C 
ATOM     28  C   UNL     1      32.786 -21.232 -19.128  0.00  0.00    -0.000 C 
ATOM     29  C   UNL     1      33.333 -22.173 -18.257  0.00  0.00    -0.000 C 
ENDBRANCH  23  24
ENDBRANCH  16  23
ENDBRANCH   1  17
TORSDOF 6
ENDMDL
MODEL 6
REMARK VINA RESULT:     -10.2      4.942     11.425
REMARK  Name = 3152
REMARK  6 active torsions:
REMARK  status: ('A' for Active; 'I' for Inactive)
REMARK    1  A    between atoms: C_1  and  C_3
REMARK    2  A    between atoms: C_1  and  C_17
REMARK    3  A    between atoms: C_10  and  O_12
REMARK    4  A    between atoms: C_11  and  O_14
REMARK    5  A    between atoms: N_16  and  C_23
REMARK    6  A    between atoms: C_23  and  C_24
REMARK                            x       y       z     vdW  Elec       q    Type
REMARK                         _______ _______ _______ _____ _____    ______ ____
ROOT
ATOM      1  C   UNL     1      32.830 -12.831 -21.767  0.00  0.00    +0.008 C 
ENDROOT
BRANCH   1   3
ATOM      2  O   UNL     1      30.670 -10.767 -22.215  0.00  0.00    -0.291 OA
ATOM      3  C   UNL     1      32.742 -11.859 -22.928  0.00  0.00    +0.066 C 
ATOM      4  C   UNL     1      34.104 -11.208 -23.262  0.00  0.00    +0.034 C 
ATOM      5  C   UNL     1      31.822 -10.696 -22.604  0.00  0.00    +0.173 C 
ATOM      6  C   UNL     1      33.826  -9.739 -23.224  0.00  0.00    -0.016 C 
ATOM      7  C   UNL     1      32.525  -9.444 -22.837  0.00  0.00    +0.034 C 
ATOM      8  C   UNL     1      34.708  -8.708 -23.507  0.00  0.00    +0.036 C 
ATOM      9  C   UNL     1      32.048  -8.151 -22.718  0.00  0.00    +0.043 C 
ATOM     10  C   UNL     1      34.255  -7.390 -23.398  0.00  0.00    +0.172 C 
ATOM     11  C   UNL     1      32.935  -7.113 -23.005  0.00  0.00    +0.172 C 
BRANCH  10  12
ATOM     12  O   UNL     1      35.115  -6.367 -23.675  0.00  0.00    -0.468 OA
ATOM     13  C   UNL     1      35.150  -5.898 -25.021  0.00  0.00    +0.253 C 
ENDBRANCH  10  12
BRANCH  11  14
ATOM     14  O   UNL     1      32.506  -5.823 -22.899  0.00  0.00    -0.468 OA
ATOM     15  C   UNL     1      32.270  -5.326 -21.584  0.00  0.00    +0.253 C 
ENDBRANCH  11  14
ENDBRANCH   1   3
BRANCH   1  17
ATOM     16  N   UNL     1      34.855 -16.618 -22.230  0.00  0.00    +0.390 N 
ATOM     17  C   UNL     1      33.957 -13.839 -21.968  0.00  0.00    -0.004 C 
ATOM     18  C   UNL     1      34.072 -14.783 -20.766  0.00  0.00    -0.023 C 
ATOM     19  C   UNL     1      33.746 -14.655 -23.248  0.00  0.00    -0.023 C 
ATOM     20  C   UNL     1      35.134 -15.860 -21.004  0.00  0.00    -0.077 C 
ATOM     21  C   UNL     1      34.819 -15.735 -23.404  0.00  0.00    -0.077 C 
ATOM     22  H   UNL     1      33.934 -17.048 -22.132  0.00  0.00    -0.079 HD
BRANCH  16  23
ATOM     23  C   UNL     1      35.848 -17.676 -22.416  0.00  0.00    -0.050 C 
BRANCH  23  24
ATOM     24  C   UNL     1      35.684 -18.784 -21.410  0.00  0.00    -0.043 C 
ATOM     25  C   UNL     1      34.443 -19.382 -21.247  0.00  0.00    -0.006 C 
ATOM     26  C   UNL     1      36.778 -19.191 -20.658  0.00  0.00    -0.006 C 
ATOM     27  C   UNL     1      34.292 -20.408 -20.316  0.00  0.00    -0.000 C 
ATOM     28  C   UNL     1      36.627 -20.219 -19.726  0.00  0.00    -0.000 C 
ATOM     29  C   UNL     1      35.384 -20.827 -19.555  0.00  0.00    -0.000 C 
ENDBRANCH  23  24
ENDBRANCH  16  23
ENDBRANCH   1  17
TORSDOF 6
ENDMDL
MODEL 7
REMARK VINA RESULT:     -10.2      4.388     10.869
REMARK  Name = 3152
REMARK  6 active torsions:
REMARK  status: ('A' for Active; 'I' for Inactive)
REMARK    1  A    between atoms: C_1  and  C_3
REMARK    2  A    between atoms: C_1  and  C_17
REMARK    3  A    between atoms: C_10  and  O_12
REMARK    4  A    between atoms: C_11  and  O_14
REMARK    5  A    between atoms: N_16  and  C_23
REMARK    6  A    between atoms: C_23  and  C_24
REMARK                            x       y       z     vdW  Elec       q    Type
REMARK                         _______ _______ _______ _____ _____    ______ ____
ROOT
ATOM      1  C   UNL     1      34.151 -13.468 -21.612  0.00  0.00    +0.008 C 
ENDROOT
BRANCH   1   3
ATOM      2  O   UNL     1      31.891 -12.024 -20.222  0.00  0.00    -0.291 OA
ATOM      3  C   UNL     1      32.929 -12.862 -22.275  0.00  0.00    +0.066 C 
ATOM      4  C   UNL     1      33.277 -12.080 -23.562  0.00  0.00    +0.034 C 
ATOM      5  C   UNL     1      32.259 -11.845 -21.369  0.00  0.00    +0.173 C 
ATOM      6  C   UNL     1      32.675 -10.729 -23.342  0.00  0.00    -0.016 C 
ATOM      7  C   UNL     1      32.102 -10.588 -22.085  0.00  0.00    +0.034 C 
ATOM      8  C   UNL     1      32.658  -9.662 -24.227  0.00  0.00    +0.036 C 
ATOM      9  C   UNL     1      31.500  -9.420 -21.656  0.00  0.00    +0.043 C 
ATOM     10  C   UNL     1      32.054  -8.467 -23.824  0.00  0.00    +0.172 C 
ATOM     11  C   UNL     1      31.480  -8.346 -22.547  0.00  0.00    +0.172 C 
BRANCH  10  12
ATOM     12  O   UNL     1      32.031  -7.411 -24.687  0.00  0.00    -0.468 OA
ATOM     13  C   UNL     1      33.212  -6.618 -24.770  0.00  0.00    +0.253 C 
ENDBRANCH  10  12
BRANCH  11  14
ATOM     14  O   UNL     1      30.897  -7.175 -22.165  0.00  0.00    -0.468 OA
ATOM     15  C   UNL     1      31.536  -6.445 -21.120  0.00  0.00    +0.253 C 
ENDBRANCH  11  14
ENDBRANCH   1   3
BRANCH   1  17
ATOM     16  N   UNL     1      35.766 -17.438 -22.144  0.00  0.00    +0.390 N 
ATOM     17  C   UNL     1      34.204 -14.979 -21.813  0.00  0.00    -0.004 C 
ATOM     18  C   UNL     1      34.909 -15.335 -23.127  0.00  0.00    -0.023 C 
ATOM     19  C   UNL     1      34.914 -15.666 -20.642  0.00  0.00    -0.023 C 
ATOM     20  C   UNL     1      35.055 -16.851 -23.286  0.00  0.00    -0.077 C 
ATOM     21  C   UNL     1      35.059 -17.170 -20.884  0.00  0.00    -0.077 C 
ATOM     22  H   UNL     1      36.687 -17.001 -22.087  0.00  0.00    -0.079 HD
BRANCH  16  23
ATOM     23  C   UNL     1      35.944 -18.877 -22.335  0.00  0.00    -0.050 C 
BRANCH  23  24
ATOM     24  C   UNL     1      35.267 -19.675 -21.252  0.00  0.00    -0.043 C 
ATOM     25  C   UNL     1      36.038 -20.318 -20.294  0.00  0.00    -0.006 C 
ATOM     26  C   UNL     1      33.882 -19.757 -21.228  0.00  0.00    -0.006 C 
ATOM     27  C   UNL     1      35.412 -21.057 -19.291  0.00  0.00    -0.000 C 
ATOM     28  C   UNL     1      33.255 -20.497 -20.224  0.00  0.00    -0.000 C 
ATOM     29  C   UNL     1      34.020 -21.146 -19.256  0.00  0.00    -0.000 C 
ENDBRANCH  23  24
ENDBRANCH  16  23
ENDBRANCH   1  17
TORSDOF 6
ENDMDL
MODEL 8
REMARK VINA RESULT:     -10.1      4.756     11.352
REMARK  Name = 3152
REMARK  6 active torsions:
REMARK  status: ('A' for Active; 'I' for Inactive)
REMARK    1  A    between atoms: C_1  and  C_3
REMARK    2  A    between atoms: C_1  and  C_17
REMARK    3  A    between atoms: C_10  and  O_12
REMARK    4  A    between atoms: C_11  and  O_14
REMARK    5  A    between atoms: N_16  and  C_23
REMARK    6  A    between atoms: C_23  and  C_24
REMARK                            x       y       z     vdW  Elec       q    Type
REMARK                         _______ _______ _______ _____ _____    ______ ____
ROOT
ATOM      1  C   UNL     1      33.003 -13.396 -23.569  0.00  0.00    +0.008 C 
ENDROOT
BRANCH   1   3
ATOM      2  O   UNL     1      34.923 -11.169 -24.261  0.00  0.00    -0.291 OA
ATOM      3  C   UNL     1      33.294 -12.167 -22.729  0.00  0.00    +0.066 C 
ATOM      4  C   UNL     1      32.013 -11.530 -22.144  0.00  0.00    +0.034 C 
ATOM      5  C   UNL     1      33.930 -11.069 -23.563  0.00  0.00    +0.173 C 
ATOM      6  C   UNL     1      32.082 -10.101 -22.582  0.00  0.00    -0.016 C 
ATOM      7  C   UNL     1      33.172  -9.838 -23.403  0.00  0.00    +0.034 C 
ATOM      8  C   UNL     1      31.194  -9.083 -22.273  0.00  0.00    +0.036 C 
ATOM      9  C   UNL     1      33.428  -8.590 -23.939  0.00  0.00    +0.043 C 
ATOM     10  C   UNL     1      31.428  -7.808 -22.798  0.00  0.00    +0.172 C 
ATOM     11  C   UNL     1      32.536  -7.564 -23.626  0.00  0.00    +0.172 C 
BRANCH  10  12
ATOM     12  O   UNL     1      30.561  -6.798 -22.499  0.00  0.00    -0.468 OA
ATOM     13  C   UNL     1      30.900  -5.960 -21.397  0.00  0.00    +0.253 C 
ENDBRANCH  10  12
BRANCH  11  14
ATOM     14  O   UNL     1      32.751  -6.317 -24.134  0.00  0.00    -0.468 OA
ATOM     15  C   UNL     1      34.108  -5.921 -24.325  0.00  0.00    +0.253 C 
ENDBRANCH  11  14
ENDBRANCH   1   3
BRANCH   1  17
ATOM     16  N   UNL     1      34.903 -17.170 -22.676  0.00  0.00    +0.390 N 
ATOM     17  C   UNL     1      34.094 -14.450 -23.412  0.00  0.00    -0.004 C 
ATOM     18  C   UNL     1      34.214 -14.907 -21.954  0.00  0.00    -0.023 C 
ATOM     19  C   UNL     1      33.826 -15.660 -24.313  0.00  0.00    -0.023 C 
ATOM     20  C   UNL     1      35.237 -16.036 -21.807  0.00  0.00    -0.077 C 
ATOM     21  C   UNL     1      34.862 -16.763 -24.087  0.00  0.00    -0.077 C 
ATOM     22  H   UNL     1      33.973 -17.503 -22.418  0.00  0.00    -0.079 HD
BRANCH  16  23
ATOM     23  C   UNL     1      35.859 -18.261 -22.486  0.00  0.00    -0.050 C 
BRANCH  23  24
ATOM     24  C   UNL     1      35.404 -19.230 -21.427  0.00  0.00    -0.043 C 
ATOM     25  C   UNL     1      34.056 -19.539 -21.318  0.00  0.00    -0.006 C 
ATOM     26  C   UNL     1      36.340 -19.800 -20.575  0.00  0.00    -0.006 C 
ATOM     27  C   UNL     1      33.634 -20.437 -20.338  0.00  0.00    -0.000 C 
ATOM     28  C   UNL     1      35.918 -20.698 -19.594  0.00  0.00    -0.000 C 
ATOM     29  C   UNL     1      34.566 -21.016 -19.476  0.00  0.00    -0.000 C 
ENDBRANCH  23  24
ENDBRANCH  16  23
ENDBRANCH   1  17
TORSDOF 6
ENDMDL
MODEL 9
REMARK VINA RESULT:      -9.8      5.594     11.519
REMARK  Name = 3152
REMARK  6 active torsions:
REMARK  status: ('A' for Active; 'I' for Inactive)
REMARK    1  A    between atoms: C_1  and  C_3
REMARK    2  A    between atoms: C_1  and  C_17
REMARK    3  A    between atoms: C_10  and  O_12
REMARK    4  A    between atoms: C_11  and  O_14
REMARK    5  A    between atoms: N_16  and  C_23
REMARK    6  A    between atoms: C_23  and  C_24
REMARK                            x       y       z     vdW  Elec       q    Type
REMARK                         _______ _______ _______ _____ _____    ______ ____
ROOT
ATOM      1  C   UNL     1      31.175 -12.090 -20.198  0.00  0.00    +0.008 C 
ENDROOT
BRANCH   1   3
ATOM      2  O   UNL     1      32.516  -9.597 -19.144  0.00  0.00    -0.291 OA
ATOM      3  C   UNL     1      30.814 -10.659 -20.548  0.00  0.00    +0.066 C 
ATOM      4  C   UNL     1      30.560 -10.463 -22.060  0.00  0.00    +0.034 C 
ATOM      5  C   UNL     1      31.951  -9.708 -20.217  0.00  0.00    +0.173 C 
ATOM      6  C   UNL     1      31.474  -9.342 -22.442  0.00  0.00    -0.016 C 
ATOM      7  C   UNL     1      32.278  -8.916 -21.392  0.00  0.00    +0.034 C 
ATOM      8  C   UNL     1      31.592  -8.740 -23.685  0.00  0.00    +0.036 C 
ATOM      9  C   UNL     1      33.210  -7.903 -21.519  0.00  0.00    +0.043 C 
ATOM     10  C   UNL     1      32.524  -7.710 -23.844  0.00  0.00    +0.172 C 
ATOM     11  C   UNL     1      33.328  -7.295 -22.769  0.00  0.00    +0.172 C 
BRANCH  10  12
ATOM     12  O   UNL     1      32.649  -7.110 -25.063  0.00  0.00    -0.468 OA
ATOM     13  C   UNL     1      31.996  -5.855 -25.236  0.00  0.00    +0.253 C 
ENDBRANCH  10  12
BRANCH  11  14
ATOM     14  O   UNL     1      34.235  -6.291 -22.938  0.00  0.00    -0.468 OA
ATOM     15  C   UNL     1      35.537  -6.664 -23.384  0.00  0.00    +0.253 C 
ENDBRANCH  11  14
ENDBRANCH   1   3
BRANCH   1  17
ATOM     16  N   UNL     1      33.909 -14.697 -22.291  0.00  0.00    +0.390 N 
ATOM     17  C   UNL     1      32.410 -12.556 -20.961  0.00  0.00    -0.004 C 
ATOM     18  C   UNL     1      33.163 -13.640 -20.182  0.00  0.00    -0.023 C 
ATOM     19  C   UNL     1      32.033 -13.084 -22.350  0.00  0.00    -0.023 C 
ATOM     20  C   UNL     1      34.346 -14.184 -20.987  0.00  0.00    -0.077 C 
ATOM     21  C   UNL     1      33.254 -13.646 -23.082  0.00  0.00    -0.077 C 
ATOM     22  H   UNL     1      33.227 -15.437 -22.126  0.00  0.00    -0.079 HD
BRANCH  16  23
ATOM     23  C   UNL     1      35.041 -15.259 -23.026  0.00  0.00    -0.050 C 
BRANCH  23  24
ATOM     24  C   UNL     1      34.973 -16.762 -23.100  0.00  0.00    -0.043 C 
ATOM     25  C   UNL     1      34.369 -17.366 -24.192  0.00  0.00    -0.006 C 
ATOM     26  C   UNL     1      35.517 -17.521 -22.072  0.00  0.00    -0.006 C 
ATOM     27  C   UNL     1      34.307 -18.758 -24.260  0.00  0.00    -0.000 C 
ATOM     28  C   UNL     1      35.455 -18.913 -22.140  0.00  0.00    -0.000 C 
ATOM     29  C   UNL     1      34.849 -19.531 -23.234  0.00  0.00    -0.000 C 
ENDBRANCH  23  24
ENDBRANCH  16  23
ENDBRANCH   1  17
TORSDOF 6
ENDMDL
