MODEL 1
REMARK VINA RESULT:     -11.7      0.000      0.000
REMARK  Name = 11560787
REMARK  5 active torsions:
REMARK  status: ('A' for Active; 'I' for Inactive)
REMARK    1  A    between atoms: N_2  and  C_23
REMARK    2  A    between atoms: C_8  and  C_9
REMARK    3  A    between atoms: C_12  and  N_15
REMARK    4  A    between atoms: C_13  and  O_21
REMARK    5  A    between atoms: C_23  and  C_26
REMARK                            x       y       z     vdW  Elec       q    Type
REMARK                         _______ _______ _______ _____ _____    ______ ____
ROOT
ATOM      1  O   UNL     1      34.960 -16.522 -24.019  0.00  0.00    -0.270 OA
ATOM      2  N   UNL     1      35.176 -17.033 -21.767  0.00  0.00    -0.274 N 
ATOM      3  C   UNL     1      34.924 -16.700 -20.366  0.00  0.00    +0.094 C 
ATOM      4  C   UNL     1      34.940 -15.205 -20.113  0.00  0.00    +0.026 C 
ATOM      5  C   UNL     1      33.944 -14.537 -21.042  0.00  0.00    +0.033 C 
ATOM      6  C   UNL     1      34.257 -14.865 -22.470  0.00  0.00    +0.031 C 
ATOM      7  C   UNL     1      34.822 -16.207 -22.836  0.00  0.00    +0.245 C 
ATOM      8  C   UNL     1      34.073 -13.970 -23.454  0.00  0.00    +0.000 C 
ENDROOT
BRANCH   8   9
ATOM      9  C   UNL     1      33.533 -12.613 -23.288  0.00  0.00    +0.003 C 
ATOM     10  C   UNL     1      32.323 -12.436 -22.636  0.00  0.00    +0.038 C 
ATOM     11  C   UNL     1      34.245 -11.531 -23.787  0.00  0.00    +0.001 C 
ATOM     12  C   UNL     1      32.516 -10.052 -22.974  0.00  0.00    +0.084 C 
ATOM     13  C   UNL     1      31.811 -11.148 -22.478  0.00  0.00    +0.152 C 
ATOM     14  C   UNL     1      33.733 -10.244 -23.629  0.00  0.00    +0.018 C 
BRANCH  12  15
ATOM     15  N   UNL     1      32.022  -8.767 -22.827  0.00  0.00    -0.280 N 
ATOM     16  N   UNL     1      30.876  -6.907 -23.263  0.00  0.00    -0.255 NA
ATOM     17  C   UNL     1      32.302  -7.898 -21.806  0.00  0.00    +0.134 C 
ATOM     18  C   UNL     1      31.159  -8.123 -23.676  0.00  0.00    +0.220 C 
ATOM     19  C   UNL     1      31.585  -6.761 -22.097  0.00  0.00    +0.054 C 
ATOM     20  C   UNL     1      31.517  -5.506 -21.333  0.00  0.00    +0.049 C 
ENDBRANCH  12  15
BRANCH  13  21
ATOM     21  O   UNL     1      30.620 -10.987 -21.834  0.00  0.00    -0.470 OA
ATOM     22  C   UNL     1      30.654 -10.953 -20.409  0.00  0.00    +0.253 C 
ENDBRANCH  13  21
ENDBRANCH   8   9
BRANCH   2  23
ATOM     23  C   UNL     1      35.681 -18.376 -22.024  0.00  0.00    +0.098 C 
ATOM     24  C   UNL     1      37.209 -18.374 -21.920  0.00  0.00    +0.026 C 
BRANCH  23  26
ATOM     25  F   UNL     1      33.359 -22.151 -18.567  0.00  0.00    -0.204 F 
ATOM     26  C   UNL     1      35.055 -19.394 -21.091  0.00  0.00    -0.004 C 
ATOM     27  C   UNL     1      33.680 -19.543 -21.084  0.00  0.00    -0.000 C 
ATOM     28  C   UNL     1      35.874 -20.149 -20.272  0.00  0.00    -0.000 C 
ATOM     29  C   UNL     1      33.104 -20.480 -20.226  0.00  0.00    +0.029 C 
ATOM     30  C   UNL     1      35.297 -21.086 -19.414  0.00  0.00    +0.029 C 
ATOM     31  C   UNL     1      33.913 -21.251 -19.391  0.00  0.00    +0.140 C 
ENDBRANCH  23  26
ENDBRANCH   2  23
TORSDOF 5
ENDMDL
MODEL 2
REMARK VINA RESULT:     -11.0      5.641     12.278
REMARK  Name = 11560787
REMARK  5 active torsions:
REMARK  status: ('A' for Active; 'I' for Inactive)
REMARK    1  A    between atoms: N_2  and  C_23
REMARK    2  A    between atoms: C_8  and  C_9
REMARK    3  A    between atoms: C_12  and  N_15
REMARK    4  A    between atoms: C_13  and  O_21
REMARK    5  A    between atoms: C_23  and  C_26
REMARK                            x       y       z     vdW  Elec       q    Type
REMARK                         _______ _______ _______ _____ _____    ______ ____
ROOT
ATOM      1  O   UNL     1      37.383 -19.555 -20.579  0.00  0.00    -0.270 OA
ATOM      2  N   UNL     1      35.171 -19.658 -21.268  0.00  0.00    -0.274 N 
ATOM      3  C   UNL     1      33.776 -19.998 -20.992  0.00  0.00    +0.094 C 
ATOM      4  C   UNL     1      33.641 -21.215 -20.099  0.00  0.00    +0.026 C 
ATOM      5  C   UNL     1      34.431 -20.983 -18.824  0.00  0.00    +0.033 C 
ATOM      6  C   UNL     1      35.863 -20.680 -19.143  0.00  0.00    +0.031 C 
ATOM      7  C   UNL     1      36.221 -19.913 -20.383  0.00  0.00    +0.245 C 
ATOM      8  C   UNL     1      36.865 -21.105 -18.356  0.00  0.00    +0.000 C 
ENDROOT
BRANCH   8   9
ATOM      9  C   UNL     1      36.709 -21.866 -17.107  0.00  0.00    +0.003 C 
ATOM     10  C   UNL     1      35.479 -22.429 -16.802  0.00  0.00    +0.038 C 
ATOM     11  C   UNL     1      37.795 -22.009 -16.256  0.00  0.00    +0.001 C 
ATOM     12  C   UNL     1      36.416 -23.303 -14.753  0.00  0.00    +0.084 C 
ATOM     13  C   UNL     1      35.332 -23.152 -15.617  0.00  0.00    +0.152 C 
ATOM     14  C   UNL     1      37.648 -22.730 -15.073  0.00  0.00    +0.018 C 
BRANCH  12  15
ATOM     15  N   UNL     1      36.287 -24.015 -13.573  0.00  0.00    -0.280 N 
ATOM     16  N   UNL     1      36.322 -25.733 -12.156  0.00  0.00    -0.255 NA
ATOM     17  C   UNL     1      35.882 -23.519 -12.361  0.00  0.00    +0.134 C 
ATOM     18  C   UNL     1      36.539 -25.351 -13.394  0.00  0.00    +0.220 C 
ATOM     19  C   UNL     1      35.912 -24.596 -11.506  0.00  0.00    +0.054 C 
ATOM     20  C   UNL     1      35.572 -24.632 -10.076  0.00  0.00    +0.049 C 
ENDBRANCH  12  15
BRANCH  13  21
ATOM     21  O   UNL     1      34.118 -23.701 -15.327  0.00  0.00    -0.470 OA
ATOM     22  C   UNL     1      33.058 -23.449 -16.246  0.00  0.00    +0.253 C 
ENDBRANCH  13  21
ENDBRANCH   8   9
BRANCH   2  23
ATOM     23  C   UNL     1      35.411 -18.873 -22.472  0.00  0.00    +0.098 C 
ATOM     24  C   UNL     1      34.578 -19.439 -23.625  0.00  0.00    +0.026 C 
BRANCH  23  26
ATOM     25  F   UNL     1      34.362 -13.417 -21.621  0.00  0.00    -0.204 F 
ATOM     26  C   UNL     1      35.128 -17.401 -22.242  0.00  0.00    -0.004 C 
ATOM     27  C   UNL     1      34.936 -16.575 -23.335  0.00  0.00    -0.000 C 
ATOM     28  C   UNL     1      35.069 -16.922 -20.947  0.00  0.00    -0.000 C 
ATOM     29  C   UNL     1      34.676 -15.221 -23.123  0.00  0.00    +0.029 C 
ATOM     30  C   UNL     1      34.808 -15.568 -20.736  0.00  0.00    +0.029 C 
ATOM     31  C   UNL     1      34.612 -14.718 -21.823  0.00  0.00    +0.140 C 
ENDBRANCH  23  26
ENDBRANCH   2  23
TORSDOF 5
ENDMDL
MODEL 3
REMARK VINA RESULT:     -10.8      1.401      2.078
REMARK  Name = 11560787
REMARK  5 active torsions:
REMARK  status: ('A' for Active; 'I' for Inactive)
REMARK    1  A    between atoms: N_2  and  C_23
REMARK    2  A    between atoms: C_8  and  C_9
REMARK    3  A    between atoms: C_12  and  N_15
REMARK    4  A    between atoms: C_13  and  O_21
REMARK    5  A    between atoms: C_23  and  C_26
REMARK                            x       y       z     vdW  Elec       q    Type
REMARK                         _______ _______ _______ _____ _____    ______ ____
ROOT
ATOM      1  O   UNL     1      35.517 -16.893 -20.388  0.00  0.00    -0.270 OA
ATOM      2  N   UNL     1      35.421 -17.976 -22.436  0.00  0.00    -0.274 N 
ATOM      3  C   UNL     1      35.179 -17.935 -23.877  0.00  0.00    +0.094 C 
ATOM      4  C   UNL     1      34.090 -16.949 -24.255  0.00  0.00    +0.026 C 
ATOM      5  C   UNL     1      34.448 -15.583 -23.701  0.00  0.00    +0.033 C 
ATOM      6  C   UNL     1      34.648 -15.654 -22.218  0.00  0.00    +0.031 C 
ATOM      7  C   UNL     1      35.236 -16.883 -21.587  0.00  0.00    +0.245 C 
ATOM      8  C   UNL     1      34.283 -14.646 -21.409  0.00  0.00    +0.000 C 
ENDROOT
BRANCH   8   9
ATOM      9  C   UNL     1      33.693 -13.371 -21.843  0.00  0.00    +0.003 C 
ATOM     10  C   UNL     1      32.678 -12.799 -21.091  0.00  0.00    +0.038 C 
ATOM     11  C   UNL     1      34.163 -12.760 -22.996  0.00  0.00    +0.001 C 
ATOM     12  C   UNL     1      32.582 -10.965 -22.660  0.00  0.00    +0.084 C 
ATOM     13  C   UNL     1      32.118 -11.589 -21.502  0.00  0.00    +0.152 C 
ATOM     14  C   UNL     1      33.604 -11.551 -23.407  0.00  0.00    +0.018 C 
BRANCH  12  15
ATOM     15  N   UNL     1      32.037  -9.765 -23.084  0.00  0.00    -0.280 N 
ATOM     16  N   UNL     1      30.541  -8.144 -23.395  0.00  0.00    -0.255 NA
ATOM     17  C   UNL     1      32.676  -8.787 -23.801  0.00  0.00    +0.134 C 
ATOM     18  C   UNL     1      30.756  -9.328 -22.865  0.00  0.00    +0.220 C 
ATOM     19  C   UNL     1      31.734  -7.801 -23.979  0.00  0.00    +0.054 C 
ATOM     20  C   UNL     1      31.882  -6.518 -24.683  0.00  0.00    +0.049 C 
ENDBRANCH  12  15
BRANCH  13  21
ATOM     21  O   UNL     1      31.121 -11.037 -20.756  0.00  0.00    -0.470 OA
ATOM     22  C   UNL     1      31.445 -10.663 -19.419  0.00  0.00    +0.253 C 
ENDBRANCH  13  21
ENDBRANCH   8   9
BRANCH   2  23
ATOM     23  C   UNL     1      36.038 -19.195 -21.927  0.00  0.00    +0.098 C 
ATOM     24  C   UNL     1      37.393 -18.856 -21.299  0.00  0.00    +0.026 C 
BRANCH  23  26
ATOM     25  F   UNL     1      32.665 -21.857 -18.304  0.00  0.00    -0.204 F 
ATOM     26  C   UNL     1      35.128 -19.913 -20.949  0.00  0.00    -0.004 C 
ATOM     27  C   UNL     1      35.689 -20.717 -19.974  0.00  0.00    -0.000 C 
ATOM     28  C   UNL     1      33.760 -19.747 -21.058  0.00  0.00    -0.000 C 
ATOM     29  C   UNL     1      34.852 -21.377 -19.075  0.00  0.00    +0.029 C 
ATOM     30  C   UNL     1      32.923 -20.407 -20.159  0.00  0.00    +0.029 C 
ATOM     31  C   UNL     1      33.469 -21.222 -19.168  0.00  0.00    +0.140 C 
ENDBRANCH  23  26
ENDBRANCH   2  23
TORSDOF 5
ENDMDL
MODEL 4
REMARK VINA RESULT:     -10.7      3.657     10.322
REMARK  Name = 11560787
REMARK  5 active torsions:
REMARK  status: ('A' for Active; 'I' for Inactive)
REMARK    1  A    between atoms: N_2  and  C_23
REMARK    2  A    between atoms: C_8  and  C_9
REMARK    3  A    between atoms: C_12  and  N_15
REMARK    4  A    between atoms: C_13  and  O_21
REMARK    5  A    between atoms: C_23  and  C_26
REMARK                            x       y       z     vdW  Elec       q    Type
REMARK                         _______ _______ _______ _____ _____    ______ ____
ROOT
ATOM      1  O   UNL     1      33.349 -10.997 -24.475  0.00  0.00    -0.270 OA
ATOM      2  N   UNL     1      32.019 -10.297 -22.709  0.00  0.00    -0.274 N 
ATOM      3  C   UNL     1      31.546 -10.472 -21.337  0.00  0.00    +0.094 C 
ATOM      4  C   UNL     1      31.451 -11.932 -20.937  0.00  0.00    +0.026 C 
ATOM      5  C   UNL     1      32.798 -12.593 -21.161  0.00  0.00    +0.033 C 
ATOM      6  C   UNL     1      33.232 -12.431 -22.586  0.00  0.00    +0.031 C 
ATOM      7  C   UNL     1      32.885 -11.186 -23.349  0.00  0.00    +0.245 C 
ATOM      8  C   UNL     1      33.911 -13.394 -23.229  0.00  0.00    +0.000 C 
ENDROOT
BRANCH   8   9
ATOM      9  C   UNL     1      34.336 -14.676 -22.648  0.00  0.00    +0.003 C 
ATOM     10  C   UNL     1      34.545 -15.766 -23.480  0.00  0.00    +0.038 C 
ATOM     11  C   UNL     1      34.523 -14.774 -21.277  0.00  0.00    +0.001 C 
ATOM     12  C   UNL     1      35.140 -17.094 -21.551  0.00  0.00    +0.084 C 
ATOM     13  C   UNL     1      34.949 -16.982 -22.928  0.00  0.00    +0.152 C 
ATOM     14  C   UNL     1      34.927 -15.989 -20.725  0.00  0.00    +0.018 C 
BRANCH  12  15
ATOM     15  N   UNL     1      35.540 -18.293 -20.987  0.00  0.00    -0.280 N 
ATOM     16  N   UNL     1      36.879 -19.867 -20.158  0.00  0.00    -0.255 NA
ATOM     17  C   UNL     1      34.726 -19.334 -20.624  0.00  0.00    +0.134 C 
ATOM     18  C   UNL     1      36.824 -18.665 -20.685  0.00  0.00    +0.220 C 
ATOM     19  C   UNL     1      35.575 -20.290 -20.117  0.00  0.00    +0.054 C 
ATOM     20  C   UNL     1      35.234 -21.616 -19.579  0.00  0.00    +0.049 C 
ENDBRANCH  12  15
BRANCH  13  21
ATOM     21  O   UNL     1      35.152 -18.046 -23.756  0.00  0.00    -0.470 OA
ATOM     22  C   UNL     1      33.998 -18.615 -24.371  0.00  0.00    +0.253 C 
ENDBRANCH  13  21
ENDBRANCH   8   9
BRANCH   2  23
ATOM     23  C   UNL     1      31.670  -9.035 -23.349  0.00  0.00    +0.098 C 
ATOM     24  C   UNL     1      30.585  -8.331 -22.529  0.00  0.00    +0.026 C 
BRANCH  23  26
ATOM     25  F   UNL     1      36.186  -5.768 -24.073  0.00  0.00    -0.204 F 
ATOM     26  C   UNL     1      32.888  -8.153 -23.544  0.00  0.00    -0.004 C 
ATOM     27  C   UNL     1      32.979  -7.375 -24.683  0.00  0.00    -0.000 C 
ATOM     28  C   UNL     1      33.877  -8.150 -22.578  0.00  0.00    -0.000 C 
ATOM     29  C   UNL     1      34.100  -6.564 -24.863  0.00  0.00    +0.029 C 
ATOM     30  C   UNL     1      34.998  -7.339 -22.758  0.00  0.00    +0.029 C 
ATOM     31  C   UNL     1      35.109  -6.547 -23.900  0.00  0.00    +0.140 C 
ENDBRANCH  23  26
ENDBRANCH   2  23
TORSDOF 5
ENDMDL
MODEL 5
REMARK VINA RESULT:      -9.9      4.731     11.451
REMARK  Name = 11560787
REMARK  5 active torsions:
REMARK  status: ('A' for Active; 'I' for Inactive)
REMARK    1  A    between atoms: N_2  and  C_23
REMARK    2  A    between atoms: C_8  and  C_9
REMARK    3  A    between atoms: C_12  and  N_15
REMARK    4  A    between atoms: C_13  and  O_21
REMARK    5  A    between atoms: C_23  and  C_26
REMARK                            x       y       z     vdW  Elec       q    Type
REMARK                         _______ _______ _______ _____ _____    ______ ____
ROOT
ATOM      1  O   UNL     1      30.422  -7.597 -23.059  0.00  0.00    -0.270 OA
ATOM      2  N   UNL     1      32.367  -6.334 -23.023  0.00  0.00    -0.274 N 
ATOM      3  C   UNL     1      33.823  -6.253 -23.124  0.00  0.00    +0.094 C 
ATOM      4  C   UNL     1      34.513  -7.482 -22.565  0.00  0.00    +0.026 C 
ATOM      5  C   UNL     1      33.964  -8.715 -23.258  0.00  0.00    +0.033 C 
ATOM      6  C   UNL     1      32.476  -8.788 -23.099  0.00  0.00    +0.031 C 
ATOM      7  C   UNL     1      31.653  -7.533 -23.062  0.00  0.00    +0.245 C 
ATOM      8  C   UNL     1      31.840  -9.961 -22.954  0.00  0.00    +0.000 C 
ENDROOT
BRANCH   8   9
ATOM      9  C   UNL     1      32.477 -11.287 -22.963  0.00  0.00    +0.003 C 
ATOM     10  C   UNL     1      32.200 -12.183 -21.941  0.00  0.00    +0.038 C 
ATOM     11  C   UNL     1      33.343 -11.619 -23.994  0.00  0.00    +0.001 C 
ATOM     12  C   UNL     1      33.676 -13.788 -22.982  0.00  0.00    +0.084 C 
ATOM     13  C   UNL     1      32.804 -13.441 -21.951  0.00  0.00    +0.152 C 
ATOM     14  C   UNL     1      33.946 -12.876 -24.004  0.00  0.00    +0.018 C 
BRANCH  12  15
ATOM     15  N   UNL     1      34.285 -15.031 -23.006  0.00  0.00    -0.280 N 
ATOM     16  N   UNL     1      35.014 -16.985 -23.789  0.00  0.00    -0.255 NA
ATOM     17  C   UNL     1      34.911 -15.652 -21.958  0.00  0.00    +0.134 C 
ATOM     18  C   UNL     1      34.375 -15.874 -24.083  0.00  0.00    +0.220 C 
ATOM     19  C   UNL     1      35.352 -16.852 -22.465  0.00  0.00    +0.054 C 
ATOM     20  C   UNL     1      36.090 -17.918 -21.771  0.00  0.00    +0.049 C 
ENDBRANCH  12  15
BRANCH  13  21
ATOM     21  O   UNL     1      32.524 -14.313 -20.942  0.00  0.00    -0.470 OA
ATOM     22  C   UNL     1      32.312 -13.757 -19.646  0.00  0.00    +0.253 C 
ENDBRANCH  13  21
ENDBRANCH   8   9
BRANCH   2  23
ATOM     23  C   UNL     1      31.654  -5.063 -23.042  0.00  0.00    +0.098 C 
ATOM     24  C   UNL     1      31.971  -4.281 -21.764  0.00  0.00    +0.026 C 
BRANCH  23  26
ATOM     25  F   UNL     1      32.854  -2.091 -27.659  0.00  0.00    -0.204 F 
ATOM     26  C   UNL     1      31.978  -4.261 -24.287  0.00  0.00    -0.004 C 
ATOM     27  C   UNL     1      31.917  -4.882 -25.521  0.00  0.00    -0.000 C 
ATOM     28  C   UNL     1      32.326  -2.929 -24.158  0.00  0.00    -0.000 C 
ATOM     29  C   UNL     1      32.214  -4.144 -26.667  0.00  0.00    +0.029 C 
ATOM     30  C   UNL     1      32.623  -2.192 -25.304  0.00  0.00    +0.029 C 
ATOM     31  C   UNL     1      32.568  -2.799 -26.558  0.00  0.00    +0.140 C 
ENDBRANCH  23  26
ENDBRANCH   2  23
TORSDOF 5
ENDMDL
MODEL 6
REMARK VINA RESULT:      -9.5      1.772      2.715
REMARK  Name = 11560787
REMARK  5 active torsions:
REMARK  status: ('A' for Active; 'I' for Inactive)
REMARK    1  A    between atoms: N_2  and  C_23
REMARK    2  A    between atoms: C_8  and  C_9
REMARK    3  A    between atoms: C_12  and  N_15
REMARK    4  A    between atoms: C_13  and  O_21
REMARK    5  A    between atoms: C_23  and  C_26
REMARK                            x       y       z     vdW  Elec       q    Type
REMARK                         _______ _______ _______ _____ _____    ______ ____
ROOT
ATOM      1  O   UNL     1      33.467 -15.236 -24.524  0.00  0.00    -0.270 OA
ATOM      2  N   UNL     1      34.350 -16.035 -22.534  0.00  0.00    -0.274 N 
ATOM      3  C   UNL     1      34.629 -15.849 -21.111  0.00  0.00    +0.094 C 
ATOM      4  C   UNL     1      34.935 -14.406 -20.763  0.00  0.00    +0.026 C 
ATOM      5  C   UNL     1      33.788 -13.531 -21.234  0.00  0.00    +0.033 C 
ATOM      6  C   UNL     1      33.558 -13.714 -22.704  0.00  0.00    +0.031 C 
ATOM      7  C   UNL     1      33.777 -15.054 -23.346  0.00  0.00    +0.245 C 
ATOM      8  C   UNL     1      33.182 -12.694 -23.491  0.00  0.00    +0.000 C 
ENDROOT
BRANCH   8   9
ATOM      9  C   UNL     1      32.922 -11.318 -23.042  0.00  0.00    +0.003 C 
ATOM     10  C   UNL     1      33.636 -10.271 -23.605  0.00  0.00    +0.038 C 
ATOM     11  C   UNL     1      31.965 -11.090 -22.064  0.00  0.00    +0.001 C 
ATOM     12  C   UNL     1      32.429  -8.722 -22.197  0.00  0.00    +0.084 C 
ATOM     13  C   UNL     1      33.388  -8.965 -23.180  0.00  0.00    +0.152 C 
ATOM     14  C   UNL     1      31.718  -9.785 -21.638  0.00  0.00    +0.018 C 
BRANCH  12  15
ATOM     15  N   UNL     1      32.172  -7.434 -21.763  0.00  0.00    -0.280 N 
ATOM     16  N   UNL     1      32.372  -5.539 -20.608  0.00  0.00    -0.255 NA
ATOM     17  C   UNL     1      31.180  -6.603 -22.216  0.00  0.00    +0.134 C 
ATOM     18  C   UNL     1      32.860  -6.745 -20.797  0.00  0.00    +0.220 C 
ATOM     19  C   UNL     1      31.325  -5.444 -21.490  0.00  0.00    +0.054 C 
ATOM     20  C   UNL     1      30.523  -4.214 -21.569  0.00  0.00    +0.049 C 
ENDBRANCH  12  15
BRANCH  13  21
ATOM     21  O   UNL     1      34.096  -7.944 -23.741  0.00  0.00    -0.470 OA
ATOM     22  C   UNL     1      35.422  -7.737 -23.262  0.00  0.00    +0.253 C 
ENDBRANCH  13  21
ENDBRANCH   8   9
BRANCH   2  23
ATOM     23  C   UNL     1      34.549 -17.382 -23.054  0.00  0.00    +0.098 C 
ATOM     24  C   UNL     1      35.384 -17.315 -24.336  0.00  0.00    +0.026 C 
BRANCH  23  26
ATOM     25  F   UNL     1      36.890 -20.752 -19.212  0.00  0.00    -0.204 F 
ATOM     26  C   UNL     1      35.180 -18.291 -22.017  0.00  0.00    -0.004 C 
ATOM     27  C   UNL     1      36.523 -18.144 -21.723  0.00  0.00    -0.000 C 
ATOM     28  C   UNL     1      34.397 -19.244 -21.393  0.00  0.00    -0.000 C 
ATOM     29  C   UNL     1      37.104 -18.980 -20.769  0.00  0.00    +0.029 C 
ATOM     30  C   UNL     1      34.978 -20.080 -20.439  0.00  0.00    +0.029 C 
ATOM     31  C   UNL     1      36.331 -19.949 -20.128  0.00  0.00    +0.140 C 
ENDBRANCH  23  26
ENDBRANCH   2  23
TORSDOF 5
ENDMDL
MODEL 7
REMARK VINA RESULT:      -9.5      5.214     12.047
REMARK  Name = 11560787
REMARK  5 active torsions:
REMARK  status: ('A' for Active; 'I' for Inactive)
REMARK    1  A    between atoms: N_2  and  C_23
REMARK    2  A    between atoms: C_8  and  C_9
REMARK    3  A    between atoms: C_12  and  N_15
REMARK    4  A    between atoms: C_13  and  O_21
REMARK    5  A    between atoms: C_23  and  C_26
REMARK                            x       y       z     vdW  Elec       q    Type
REMARK                         _______ _______ _______ _____ _____    ______ ____
ROOT
ATOM      1  O   UNL     1      33.573 -19.879 -21.736  0.00  0.00    -0.270 OA
ATOM      2  N   UNL     1      35.666 -18.930 -22.041  0.00  0.00    -0.274 N 
ATOM      3  C   UNL     1      37.080 -18.844 -21.676  0.00  0.00    +0.094 C 
ATOM      4  C   UNL     1      37.314 -19.087 -20.198  0.00  0.00    +0.026 C 
ATOM      5  C   UNL     1      36.712 -20.427 -19.817  0.00  0.00    +0.033 C 
ATOM      6  C   UNL     1      35.255 -20.465 -20.166  0.00  0.00    +0.031 C 
ATOM      7  C   UNL     1      34.744 -19.744 -21.380  0.00  0.00    +0.245 C 
ATOM      8  C   UNL     1      34.363 -21.110 -19.397  0.00  0.00    +0.000 C 
ENDROOT
BRANCH   8   9
ATOM      9  C   UNL     1      34.676 -21.868 -18.175  0.00  0.00    +0.003 C 
ATOM     10  C   UNL     1      35.819 -21.557 -17.455  0.00  0.00    +0.038 C 
ATOM     11  C   UNL     1      33.820 -22.879 -17.764  0.00  0.00    +0.001 C 
ATOM     12  C   UNL     1      35.263 -23.295 -15.871  0.00  0.00    +0.084 C 
ATOM     13  C   UNL     1      36.114 -22.275 -16.296  0.00  0.00    +0.152 C 
ATOM     14  C   UNL     1      34.115 -23.597 -16.606  0.00  0.00    +0.018 C 
BRANCH  12  15
ATOM     15  N   UNL     1      35.542 -24.018 -14.725  0.00  0.00    -0.280 N 
ATOM     16  N   UNL     1      35.477 -24.660 -12.592  0.00  0.00    -0.255 NA
ATOM     17  C   UNL     1      36.397 -25.084 -14.620  0.00  0.00    +0.134 C 
ATOM     18  C   UNL     1      35.015 -23.805 -13.477  0.00  0.00    +0.220 C 
ATOM     19  C   UNL     1      36.339 -25.461 -13.299  0.00  0.00    +0.054 C 
ATOM     20  C   UNL     1      37.061 -26.556 -12.632  0.00  0.00    +0.049 C 
ENDBRANCH  12  15
BRANCH  13  21
ATOM     21  O   UNL     1      37.241 -21.961 -15.595  0.00  0.00    -0.470 OA
ATOM     22  C   UNL     1      38.385 -22.783 -15.809  0.00  0.00    +0.253 C 
ENDBRANCH  13  21
ENDBRANCH   8   9
BRANCH   2  23
ATOM     23  C   UNL     1      35.278 -18.234 -23.261  0.00  0.00    +0.098 C 
ATOM     24  C   UNL     1      34.149 -19.006 -23.950  0.00  0.00    +0.026 C 
BRANCH  23  26
ATOM     25  F   UNL     1      33.832 -12.902 -22.226  0.00  0.00    -0.204 F 
ATOM     26  C   UNL     1      34.888 -16.795 -22.982  0.00  0.00    -0.004 C 
ATOM     27  C   UNL     1      35.060 -16.287 -21.707  0.00  0.00    -0.000 C 
ATOM     28  C   UNL     1      34.369 -16.028 -24.008  0.00  0.00    -0.000 C 
ATOM     29  C   UNL     1      34.702 -14.964 -21.451  0.00  0.00    +0.029 C 
ATOM     30  C   UNL     1      34.010 -14.705 -23.751  0.00  0.00    +0.029 C 
ATOM     31  C   UNL     1      34.177 -14.173 -22.473  0.00  0.00    +0.140 C 
ENDBRANCH  23  26
ENDBRANCH   2  23
TORSDOF 5
ENDMDL
MODEL 8
REMARK VINA RESULT:      -9.3      5.850      9.897
REMARK  Name = 11560787
REMARK  5 active torsions:
REMARK  status: ('A' for Active; 'I' for Inactive)
REMARK    1  A    between atoms: N_2  and  C_23
REMARK    2  A    between atoms: C_8  and  C_9
REMARK    3  A    between atoms: C_12  and  N_15
REMARK    4  A    between atoms: C_13  and  O_21
REMARK    5  A    between atoms: C_23  and  C_26
REMARK                            x       y       z     vdW  Elec       q    Type
REMARK                         _______ _______ _______ _____ _____    ______ ____
ROOT
ATOM      1  O   UNL     1      34.155 -24.571 -16.688  0.00  0.00    -0.270 OA
ATOM      2  N   UNL     1      35.991 -24.082 -15.359  0.00  0.00    -0.274 N 
ATOM      3  C   UNL     1      37.047 -23.155 -14.954  0.00  0.00    +0.094 C 
ATOM      4  C   UNL     1      37.553 -22.311 -16.107  0.00  0.00    +0.026 C 
ATOM      5  C   UNL     1      36.379 -21.591 -16.744  0.00  0.00    +0.033 C 
ATOM      6  C   UNL     1      35.337 -22.573 -17.185  0.00  0.00    +0.031 C 
ATOM      7  C   UNL     1      35.094 -23.829 -16.398  0.00  0.00    +0.245 C 
ATOM      8  C   UNL     1      34.617 -22.381 -18.301  0.00  0.00    +0.000 C 
ENDROOT
BRANCH   8   9
ATOM      9  C   UNL     1      34.716 -21.218 -19.195  0.00  0.00    +0.003 C 
ATOM     10  C   UNL     1      35.936 -20.579 -19.349  0.00  0.00    +0.038 C 
ATOM     11  C   UNL     1      33.586 -20.780 -19.871  0.00  0.00    +0.001 C 
ATOM     12  C   UNL     1      34.902 -19.025 -20.883  0.00  0.00    +0.084 C 
ATOM     13  C   UNL     1      36.030 -19.476 -20.198  0.00  0.00    +0.152 C 
ATOM     14  C   UNL     1      33.679 -19.677 -20.719  0.00  0.00    +0.018 C 
BRANCH  12  15
ATOM     15  N   UNL     1      34.977 -17.931 -21.728  0.00  0.00    -0.280 N 
ATOM     16  N   UNL     1      35.248 -15.824 -22.398  0.00  0.00    -0.255 NA
ATOM     17  C   UNL     1      34.795 -17.936 -23.086  0.00  0.00    +0.134 C 
ATOM     18  C   UNL     1      35.247 -16.637 -21.365  0.00  0.00    +0.220 C 
ATOM     19  C   UNL     1      34.967 -16.628 -23.475  0.00  0.00    +0.054 C 
ATOM     20  C   UNL     1      34.883 -16.062 -24.830  0.00  0.00    +0.049 C 
ENDBRANCH  12  15
BRANCH  13  21
ATOM     21  O   UNL     1      37.236 -18.856 -20.342  0.00  0.00    -0.470 OA
ATOM     22  C   UNL     1      37.864 -18.952 -21.618  0.00  0.00    +0.253 C 
ENDBRANCH  13  21
ENDBRANCH   8   9
BRANCH   2  23
ATOM     23  C   UNL     1      35.803 -25.248 -14.505  0.00  0.00    +0.098 C 
ATOM     24  C   UNL     1      36.804 -26.337 -14.900  0.00  0.00    +0.026 C 
BRANCH  23  26
ATOM     25  F   UNL     1      36.215 -23.908  -9.062  0.00  0.00    -0.204 F 
ATOM     26  C   UNL     1      35.914 -24.887 -13.036  0.00  0.00    -0.004 C 
ATOM     27  C   UNL     1      34.894 -24.166 -12.442  0.00  0.00    -0.000 C 
ATOM     28  C   UNL     1      37.032 -25.287 -12.328  0.00  0.00    -0.000 C 
ATOM     29  C   UNL     1      34.996 -23.834 -11.091  0.00  0.00    +0.029 C 
ATOM     30  C   UNL     1      37.134 -24.954 -10.977  0.00  0.00    +0.029 C 
ATOM     31  C   UNL     1      36.117 -24.228 -10.359  0.00  0.00    +0.140 C 
ENDBRANCH  23  26
ENDBRANCH   2  23
TORSDOF 5
ENDMDL
MODEL 9
REMARK VINA RESULT:      -9.3      4.561     11.446
REMARK  Name = 11560787
REMARK  5 active torsions:
REMARK  status: ('A' for Active; 'I' for Inactive)
REMARK    1  A    between atoms: N_2  and  C_23
REMARK    2  A    between atoms: C_8  and  C_9
REMARK    3  A    between atoms: C_12  and  N_15
REMARK    4  A    between atoms: C_13  and  O_21
REMARK    5  A    between atoms: C_23  and  C_26
REMARK                            x       y       z     vdW  Elec       q    Type
REMARK                         _______ _______ _______ _____ _____    ______ ____
ROOT
ATOM      1  O   UNL     1      30.080  -8.040 -23.235  0.00  0.00    -0.270 OA
ATOM      2  N   UNL     1      31.898  -6.623 -22.986  0.00  0.00    -0.274 N 
ATOM      3  C   UNL     1      33.340  -6.432 -22.835  0.00  0.00    +0.094 C 
ATOM      4  C   UNL     1      33.993  -7.544 -22.037  0.00  0.00    +0.026 C 
ATOM      5  C   UNL     1      33.663  -8.875 -22.686  0.00  0.00    +0.033 C 
ATOM      6  C   UNL     1      32.179  -9.056 -22.786  0.00  0.00    +0.031 C 
ATOM      7  C   UNL     1      31.283  -7.876 -23.027  0.00  0.00    +0.245 C 
ATOM      8  C   UNL     1      31.604 -10.260 -22.635  0.00  0.00    +0.000 C 
ENDROOT
BRANCH   8   9
ATOM      9  C   UNL     1      32.316 -11.524 -22.393  0.00  0.00    +0.003 C 
ATOM     10  C   UNL     1      32.901 -12.192 -23.458  0.00  0.00    +0.038 C 
ATOM     11  C   UNL     1      32.391 -12.027 -21.102  0.00  0.00    +0.001 C 
ATOM     12  C   UNL     1      33.660 -13.907 -21.936  0.00  0.00    +0.084 C 
ATOM     13  C   UNL     1      33.576 -13.390 -23.229  0.00  0.00    +0.152 C 
ATOM     14  C   UNL     1      33.067 -13.225 -20.872  0.00  0.00    +0.018 C 
BRANCH  12  15
ATOM     15  N   UNL     1      34.325 -15.096 -21.690  0.00  0.00    -0.280 N 
ATOM     16  N   UNL     1      35.290 -16.755 -20.559  0.00  0.00    -0.255 NA
ATOM     17  C   UNL     1      34.774 -15.988 -22.629  0.00  0.00    +0.134 C 
ATOM     18  C   UNL     1      34.660 -15.605 -20.462  0.00  0.00    +0.220 C 
ATOM     19  C   UNL     1      35.363 -17.000 -21.907  0.00  0.00    +0.054 C 
ATOM     20  C   UNL     1      36.012 -18.219 -22.412  0.00  0.00    +0.049 C 
ENDBRANCH  12  15
BRANCH  13  21
ATOM     21  O   UNL     1      34.148 -14.038 -24.284  0.00  0.00    -0.470 OA
ATOM     22  C   UNL     1      33.274 -14.485 -25.317  0.00  0.00    +0.253 C 
ENDBRANCH  13  21
ENDBRANCH   8   9
BRANCH   2  23
ATOM     23  C   UNL     1      31.120  -5.422 -23.263  0.00  0.00    +0.098 C 
ATOM     24  C   UNL     1      30.927  -4.629 -21.967  0.00  0.00    +0.026 C 
BRANCH  23  26
ATOM     25  F   UNL     1      33.504  -2.300 -27.283  0.00  0.00    -0.204 F 
ATOM     26  C   UNL     1      31.764  -4.579 -24.348  0.00  0.00    -0.004 C 
ATOM     27  C   UNL     1      32.017  -5.151 -25.581  0.00  0.00    -0.000 C 
ATOM     28  C   UNL     1      32.081  -3.262 -24.076  0.00  0.00    -0.000 C 
ATOM     29  C   UNL     1      32.608  -4.376 -26.579  0.00  0.00    +0.029 C 
ATOM     30  C   UNL     1      32.672  -2.487 -25.074  0.00  0.00    +0.029 C 
ATOM     31  C   UNL     1      32.936  -3.044 -26.325  0.00  0.00    +0.140 C 
ENDBRANCH  23  26
ENDBRANCH   2  23
TORSDOF 5
ENDMDL
