MODEL 1
REMARK VINA RESULT:     -12.2      0.000      0.000
REMARK  Name = 9889200
REMARK  5 active torsions:
REMARK  status: ('A' for Active; 'I' for Inactive)
REMARK    1  A    between atoms: C_1  and  C_21
REMARK    2  A    between atoms: C_4  and  O_7
REMARK    3  A    between atoms: O_7  and  C_8
REMARK    4  A    between atoms: C_8  and  C_12
REMARK    5  A    between atoms: C_21  and  C_26
REMARK                            x       y       z     vdW  Elec       q    Type
REMARK                         _______ _______ _______ _____ _____    ______ ____
ROOT
ATOM      1  C   UNL     1      35.689 -19.995 -20.277  0.00  0.00    -0.021 C 
ATOM      2  C   UNL     1      36.642 -20.631 -19.482  0.00  0.00    -0.001 C 
ATOM      3  C   UNL     1      34.352 -20.385 -20.210  0.00  0.00    -0.001 C 
ATOM      4  C   UNL     1      34.925 -22.039 -18.561  0.00  0.00    +0.139 C 
ATOM      5  C   UNL     1      36.259 -21.659 -18.621  0.00  0.00    +0.037 C 
ATOM      6  C   UNL     1      33.968 -21.412 -19.348  0.00  0.00    +0.037 C 
ENDROOT
BRANCH   4   7
ATOM      7  O   UNL     1      34.547 -23.051 -17.711  0.00  0.00    -0.466 OA
BRANCH   7   8
ATOM      8  C   UNL     1      34.676 -22.812 -16.326  0.00  0.00    +0.279 C 
BRANCH   8  12
ATOM      9  O   UNL     1      32.663 -25.135 -12.598  0.00  0.00    -0.274 OA
ATOM     10  N   UNL     1      33.660 -24.013 -14.395  0.00  0.00    -0.232 N 
ATOM     11  N   UNL     1      32.306 -23.186 -16.167  0.00  0.00    -0.391 NA
ATOM     12  C   UNL     1      33.465 -23.358 -15.609  0.00  0.00    +0.210 C 
ATOM     13  C   UNL     1      31.253 -24.359 -14.293  0.00  0.00    +0.151 C 
ATOM     14  C   UNL     1      31.172 -23.687 -15.515  0.00  0.00    +0.123 C 
ATOM     15  C   UNL     1      32.581 -24.546 -13.672  0.00  0.00    +0.241 C 
ATOM     16  C   UNL     1      35.001 -24.166 -13.832  0.00  0.00    +0.122 C 
ATOM     17  C   UNL     1      30.100 -24.847 -13.668  0.00  0.00    -0.010 C 
ATOM     18  C   UNL     1      29.917 -23.508 -16.107  0.00  0.00    +0.028 C 
ATOM     19  C   UNL     1      28.856 -24.661 -14.268  0.00  0.00    -0.004 C 
ATOM     20  C   UNL     1      28.764 -23.992 -15.487  0.00  0.00    +0.002 C 
ENDBRANCH   8  12
ENDBRANCH   7   8
ENDBRANCH   4   7
BRANCH   1  21
ATOM     21  C   UNL     1      36.100 -18.897 -21.199  0.00  0.00    +0.047 C 
BRANCH  21  26
ATOM     22  S   UNL     1      34.800 -18.380 -23.579  0.00  0.00    -0.048 S 
ATOM     23  O   UNL     1      35.152 -16.142 -20.454  0.00  0.00    -0.274 OA
ATOM     24  O   UNL     1      34.773 -16.205 -25.058  0.00  0.00    -0.263 OA
ATOM     25  N   UNL     1      34.958 -15.968 -22.753  0.00  0.00    -0.246 N 
ATOM     26  C   UNL     1      34.900 -18.150 -21.778  0.00  0.00    +0.137 C 
ATOM     27  C   UNL     1      35.020 -16.657 -21.560  0.00  0.00    +0.239 C 
ATOM     28  C   UNL     1      34.839 -16.664 -23.927  0.00  0.00    +0.279 C 
ATOM     29  H   UNL     1      34.998 -14.984 -22.760  0.00  0.00    +0.158 HD
ENDBRANCH  21  26
ENDBRANCH   1  21
TORSDOF 5
ENDMDL
MODEL 2
REMARK VINA RESULT:     -12.1      1.487      3.769
REMARK  Name = 9889200
REMARK  5 active torsions:
REMARK  status: ('A' for Active; 'I' for Inactive)
REMARK    1  A    between atoms: C_1  and  C_21
REMARK    2  A    between atoms: C_4  and  O_7
REMARK    3  A    between atoms: O_7  and  C_8
REMARK    4  A    between atoms: C_8  and  C_12
REMARK    5  A    between atoms: C_21  and  C_26
REMARK                            x       y       z     vdW  Elec       q    Type
REMARK                         _______ _______ _______ _____ _____    ______ ____
ROOT
ATOM      1  C   UNL     1      35.672 -20.019 -20.245  0.00  0.00    -0.021 C 
ATOM      2  C   UNL     1      34.328 -20.381 -20.172  0.00  0.00    -0.001 C 
ATOM      3  C   UNL     1      36.628 -20.732 -19.522  0.00  0.00    -0.001 C 
ATOM      4  C   UNL     1      34.896 -22.161 -18.658  0.00  0.00    +0.139 C 
ATOM      5  C   UNL     1      33.938 -21.458 -19.374  0.00  0.00    +0.037 C 
ATOM      6  C   UNL     1      36.238 -21.809 -18.725  0.00  0.00    +0.037 C 
ENDROOT
BRANCH   4   7
ATOM      7  O   UNL     1      34.512 -23.222 -17.873  0.00  0.00    -0.466 OA
BRANCH   7   8
ATOM      8  C   UNL     1      33.781 -22.928 -16.703  0.00  0.00    +0.279 C 
BRANCH   8  12
ATOM      9  O   UNL     1      33.795 -24.509 -12.137  0.00  0.00    -0.274 OA
ATOM     10  N   UNL     1      33.765 -23.737 -14.347  0.00  0.00    -0.232 N 
ATOM     11  N   UNL     1      35.772 -23.736 -15.624  0.00  0.00    -0.391 NA
ATOM     12  C   UNL     1      34.502 -23.499 -15.506  0.00  0.00    +0.210 C 
ATOM     13  C   UNL     1      35.815 -24.544 -13.313  0.00  0.00    +0.151 C 
ATOM     14  C   UNL     1      36.456 -24.266 -14.523  0.00  0.00    +0.123 C 
ATOM     15  C   UNL     1      34.368 -24.268 -13.196  0.00  0.00    +0.241 C 
ATOM     16  C   UNL     1      32.334 -23.442 -14.294  0.00  0.00    +0.122 C 
ATOM     17  C   UNL     1      36.527 -25.074 -12.231  0.00  0.00    -0.010 C 
ATOM     18  C   UNL     1      37.826 -24.526 -14.637  0.00  0.00    +0.028 C 
ATOM     19  C   UNL     1      37.892 -25.329 -12.360  0.00  0.00    -0.004 C 
ATOM     20  C   UNL     1      38.541 -25.055 -13.562  0.00  0.00    +0.002 C 
ENDBRANCH   8  12
ENDBRANCH   7   8
ENDBRANCH   4   7
BRANCH   1  21
ATOM     21  C   UNL     1      36.089 -18.868 -21.097  0.00  0.00    +0.047 C 
BRANCH  21  26
ATOM     22  S   UNL     1      34.826 -18.408 -23.509  0.00  0.00    -0.048 S 
ATOM     23  O   UNL     1      35.109 -16.107 -20.423  0.00  0.00    -0.274 OA
ATOM     24  O   UNL     1      34.810 -16.263 -25.030  0.00  0.00    -0.263 OA
ATOM     25  N   UNL     1      34.953 -15.979 -22.728  0.00  0.00    -0.246 N 
ATOM     26  C   UNL     1      34.895 -18.141 -21.711  0.00  0.00    +0.137 C 
ATOM     27  C   UNL     1      35.000 -16.644 -21.520  0.00  0.00    +0.239 C 
ATOM     28  C   UNL     1      34.859 -16.699 -23.889  0.00  0.00    +0.279 C 
ATOM     29  H   UNL     1      34.986 -14.995 -22.754  0.00  0.00    +0.158 HD
ENDBRANCH  21  26
ENDBRANCH   1  21
TORSDOF 5
ENDMDL
MODEL 3
REMARK VINA RESULT:     -11.6      2.813     10.001
REMARK  Name = 9889200
REMARK  5 active torsions:
REMARK  status: ('A' for Active; 'I' for Inactive)
REMARK    1  A    between atoms: C_1  and  C_21
REMARK    2  A    between atoms: C_4  and  O_7
REMARK    3  A    between atoms: O_7  and  C_8
REMARK    4  A    between atoms: C_8  and  C_12
REMARK    5  A    between atoms: C_21  and  C_26
REMARK                            x       y       z     vdW  Elec       q    Type
REMARK                         _______ _______ _______ _____ _____    ______ ____
ROOT
ATOM      1  C   UNL     1      33.807 -22.590 -17.876  0.00  0.00    -0.021 C 
ATOM      2  C   UNL     1      35.190 -22.447 -17.771  0.00  0.00    -0.001 C 
ATOM      3  C   UNL     1      33.092 -21.813 -18.787  0.00  0.00    -0.001 C 
ATOM      4  C   UNL     1      35.138 -20.756 -19.480  0.00  0.00    +0.139 C 
ATOM      5  C   UNL     1      35.859 -21.525 -18.577  0.00  0.00    +0.037 C 
ATOM      6  C   UNL     1      33.761 -20.892 -19.593  0.00  0.00    +0.037 C 
ENDROOT
BRANCH   4   7
ATOM      7  O   UNL     1      35.798 -19.849 -20.275  0.00  0.00    -0.466 OA
BRANCH   7   8
ATOM      8  C   UNL     1      35.436 -19.803 -21.638  0.00  0.00    +0.279 C 
BRANCH   8  12
ATOM      9  O   UNL     1      34.437 -16.458 -24.979  0.00  0.00    -0.274 OA
ATOM     10  N   UNL     1      34.922 -18.095 -23.377  0.00  0.00    -0.232 N 
ATOM     11  N   UNL     1      35.118 -17.485 -21.087  0.00  0.00    -0.391 NA
ATOM     12  C   UNL     1      35.144 -18.375 -22.031  0.00  0.00    +0.210 C 
ATOM     13  C   UNL     1      34.611 -15.763 -22.754  0.00  0.00    +0.151 C 
ATOM     14  C   UNL     1      34.849 -16.154 -21.434  0.00  0.00    +0.123 C 
ATOM     15  C   UNL     1      34.645 -16.791 -23.816  0.00  0.00    +0.241 C 
ATOM     16  C   UNL     1      34.970 -19.157 -24.381  0.00  0.00    +0.122 C 
ATOM     17  C   UNL     1      34.345 -14.426 -23.066  0.00  0.00    -0.010 C 
ATOM     18  C   UNL     1      34.818 -15.185 -20.425  0.00  0.00    +0.028 C 
ATOM     19  C   UNL     1      34.317 -13.471 -22.051  0.00  0.00    -0.004 C 
ATOM     20  C   UNL     1      34.553 -13.850 -20.732  0.00  0.00    +0.002 C 
ENDBRANCH   8  12
ENDBRANCH   7   8
ENDBRANCH   4   7
BRANCH   1  21
ATOM     21  C   UNL     1      33.092 -23.575 -17.014  0.00  0.00    +0.047 C 
BRANCH  21  26
ATOM     22  S   UNL     1      33.050 -23.819 -14.264  0.00  0.00    -0.048 S 
ATOM     23  O   UNL     1      30.302 -22.518 -16.640  0.00  0.00    -0.274 OA
ATOM     24  O   UNL     1      31.161 -24.719 -12.671  0.00  0.00    -0.263 OA
ATOM     25  N   UNL     1      30.528 -23.624 -14.621  0.00  0.00    -0.246 N 
ATOM     26  C   UNL     1      32.514 -22.929 -15.756  0.00  0.00    +0.137 C 
ATOM     27  C   UNL     1      31.002 -22.987 -15.749  0.00  0.00    +0.239 C 
ATOM     28  C   UNL     1      31.419 -24.131 -13.712  0.00  0.00    +0.279 C 
ATOM     29  H   UNL     1      29.559 -23.712 -14.472  0.00  0.00    +0.158 HD
ENDBRANCH  21  26
ENDBRANCH   1  21
TORSDOF 5
ENDMDL
MODEL 4
REMARK VINA RESULT:     -11.4      1.425      2.013
REMARK  Name = 9889200
REMARK  5 active torsions:
REMARK  status: ('A' for Active; 'I' for Inactive)
REMARK    1  A    between atoms: C_1  and  C_21
REMARK    2  A    between atoms: C_4  and  O_7
REMARK    3  A    between atoms: O_7  and  C_8
REMARK    4  A    between atoms: C_8  and  C_12
REMARK    5  A    between atoms: C_21  and  C_26
REMARK                            x       y       z     vdW  Elec       q    Type
REMARK                         _______ _______ _______ _____ _____    ______ ____
ROOT
ATOM      1  C   UNL     1      34.372 -20.419 -20.251  0.00  0.00    -0.021 C 
ATOM      2  C   UNL     1      33.456 -21.178 -19.523  0.00  0.00    -0.001 C 
ATOM      3  C   UNL     1      35.732 -20.491 -19.952  0.00  0.00    -0.001 C 
ATOM      4  C   UNL     1      35.257 -22.073 -18.205  0.00  0.00    +0.139 C 
ATOM      5  C   UNL     1      33.901 -22.009 -18.494  0.00  0.00    +0.037 C 
ATOM      6  C   UNL     1      36.177 -21.322 -18.925  0.00  0.00    +0.037 C 
ENDROOT
BRANCH   4   7
ATOM      7  O   UNL     1      35.695 -22.893 -17.192  0.00  0.00    -0.466 OA
BRANCH   7   8
ATOM      8  C   UNL     1      35.677 -22.367 -15.883  0.00  0.00    +0.279 C 
BRANCH   8  12
ATOM      9  O   UNL     1      34.222 -24.718 -11.920  0.00  0.00    -0.274 OA
ATOM     10  N   UNL     1      34.949 -23.579 -13.832  0.00  0.00    -0.232 N 
ATOM     11  N   UNL     1      33.419 -23.141 -15.599  0.00  0.00    -0.391 NA
ATOM     12  C   UNL     1      34.605 -23.062 -15.079  0.00  0.00    +0.210 C 
ATOM     13  C   UNL     1      32.647 -24.335 -13.605  0.00  0.00    +0.151 C 
ATOM     14  C   UNL     1      32.412 -23.783 -14.866  0.00  0.00    +0.123 C 
ATOM     15  C   UNL     1      34.004 -24.236 -13.028  0.00  0.00    +0.241 C 
ATOM     16  C   UNL     1      36.312 -23.449 -13.316  0.00  0.00    +0.122 C 
ATOM     17  C   UNL     1      31.619 -24.969 -12.899  0.00  0.00    -0.010 C 
ATOM     18  C   UNL     1      31.128 -23.874 -15.416  0.00  0.00    +0.028 C 
ATOM     19  C   UNL     1      30.345 -25.052 -13.458  0.00  0.00    -0.004 C 
ATOM     20  C   UNL     1      30.099 -24.505 -14.716  0.00  0.00    +0.002 C 
ENDBRANCH   8  12
ENDBRANCH   7   8
ENDBRANCH   4   7
BRANCH   1  21
ATOM     21  C   UNL     1      33.896 -19.530 -21.350  0.00  0.00    +0.047 C 
BRANCH  21  26
ATOM     22  S   UNL     1      35.371 -17.196 -21.303  0.00  0.00    -0.048 S 
ATOM     23  O   UNL     1      34.404 -19.412 -24.311  0.00  0.00    -0.274 OA
ATOM     24  O   UNL     1      35.284 -15.104 -22.895  0.00  0.00    -0.263 OA
ATOM     25  N   UNL     1      34.822 -17.196 -23.798  0.00  0.00    -0.246 N 
ATOM     26  C   UNL     1      35.048 -18.819 -22.058  0.00  0.00    +0.137 C 
ATOM     27  C   UNL     1      34.718 -18.540 -23.508  0.00  0.00    +0.239 C 
ATOM     28  C   UNL     1      35.154 -16.316 -22.801  0.00  0.00    +0.279 C 
ATOM     29  H   UNL     1      34.660 -16.872 -24.714  0.00  0.00    +0.158 HD
ENDBRANCH  21  26
ENDBRANCH   1  21
TORSDOF 5
ENDMDL
MODEL 5
REMARK VINA RESULT:     -11.4      3.115     10.185
REMARK  Name = 9889200
REMARK  5 active torsions:
REMARK  status: ('A' for Active; 'I' for Inactive)
REMARK    1  A    between atoms: C_1  and  C_21
REMARK    2  A    between atoms: C_4  and  O_7
REMARK    3  A    between atoms: O_7  and  C_8
REMARK    4  A    between atoms: C_8  and  C_12
REMARK    5  A    between atoms: C_21  and  C_26
REMARK                            x       y       z     vdW  Elec       q    Type
REMARK                         _______ _______ _______ _____ _____    ______ ____
ROOT
ATOM      1  C   UNL     1      34.546 -22.681 -17.459  0.00  0.00    -0.021 C 
ATOM      2  C   UNL     1      33.327 -22.423 -18.085  0.00  0.00    -0.001 C 
ATOM      3  C   UNL     1      35.710 -22.064 -17.916  0.00  0.00    -0.001 C 
ATOM      4  C   UNL     1      34.436 -20.938 -19.616  0.00  0.00    +0.139 C 
ATOM      5  C   UNL     1      33.272 -21.547 -19.170  0.00  0.00    +0.037 C 
ATOM      6  C   UNL     1      35.655 -21.187 -18.999  0.00  0.00    +0.037 C 
ENDROOT
BRANCH   4   7
ATOM      7  O   UNL     1      34.381 -20.073 -20.684  0.00  0.00    -0.466 OA
BRANCH   7   8
ATOM      8  C   UNL     1      35.574 -19.406 -21.035  0.00  0.00    +0.279 C 
BRANCH   8  12
ATOM      9  O   UNL     1      34.585 -16.745 -24.946  0.00  0.00    -0.274 OA
ATOM     10  N   UNL     1      35.067 -18.053 -23.065  0.00  0.00    -0.232 N 
ATOM     11  N   UNL     1      35.122 -17.048 -20.911  0.00  0.00    -0.391 NA
ATOM     12  C   UNL     1      35.236 -18.084 -21.683  0.00  0.00    +0.210 C 
ATOM     13  C   UNL     1      34.618 -15.669 -22.871  0.00  0.00    +0.151 C 
ATOM     14  C   UNL     1      34.809 -15.814 -21.495  0.00  0.00    +0.123 C 
ATOM     15  C   UNL     1      34.751 -16.861 -23.735  0.00  0.00    +0.241 C 
ATOM     16  C   UNL     1      35.214 -19.268 -23.866  0.00  0.00    +0.122 C 
ATOM     17  C   UNL     1      34.305 -14.422 -23.423  0.00  0.00    -0.010 C 
ATOM     18  C   UNL     1      34.683 -14.688 -20.673  0.00  0.00    +0.028 C 
ATOM     19  C   UNL     1      34.183 -13.310 -22.592  0.00  0.00    -0.004 C 
ATOM     20  C   UNL     1      34.372 -13.442 -21.218  0.00  0.00    +0.002 C 
ENDBRANCH   8  12
ENDBRANCH   7   8
ENDBRANCH   4   7
BRANCH   1  21
ATOM     21  C   UNL     1      34.605 -23.619 -16.301  0.00  0.00    +0.047 C 
BRANCH  21  26
ATOM     22  S   UNL     1      35.722 -23.540 -13.776  0.00  0.00    -0.048 S 
ATOM     23  O   UNL     1      32.091 -22.812 -14.863  0.00  0.00    -0.274 OA
ATOM     24  O   UNL     1      34.792 -24.431 -11.484  0.00  0.00    -0.263 OA
ATOM     25  N   UNL     1      33.273 -23.643 -13.057  0.00  0.00    -0.246 N 
ATOM     26  C   UNL     1      34.505 -22.891 -14.962  0.00  0.00    +0.137 C 
ATOM     27  C   UNL     1      33.152 -23.099 -14.319  0.00  0.00    +0.239 C 
ATOM     28  C   UNL     1      34.518 -23.947 -12.572  0.00  0.00    +0.279 C 
ATOM     29  H   UNL     1      32.472 -23.810 -12.509  0.00  0.00    +0.158 HD
ENDBRANCH  21  26
ENDBRANCH   1  21
TORSDOF 5
ENDMDL
MODEL 6
REMARK VINA RESULT:     -11.4      2.622      4.886
REMARK  Name = 9889200
REMARK  5 active torsions:
REMARK  status: ('A' for Active; 'I' for Inactive)
REMARK    1  A    between atoms: C_1  and  C_21
REMARK    2  A    between atoms: C_4  and  O_7
REMARK    3  A    between atoms: O_7  and  C_8
REMARK    4  A    between atoms: C_8  and  C_12
REMARK    5  A    between atoms: C_21  and  C_26
REMARK                            x       y       z     vdW  Elec       q    Type
REMARK                         _______ _______ _______ _____ _____    ______ ____
ROOT
ATOM      1  C   UNL     1      34.026 -20.603 -19.952  0.00  0.00    -0.021 C 
ATOM      2  C   UNL     1      32.961 -21.194 -19.274  0.00  0.00    -0.001 C 
ATOM      3  C   UNL     1      35.338 -20.943 -19.624  0.00  0.00    -0.001 C 
ATOM      4  C   UNL     1      34.518 -22.458 -17.945  0.00  0.00    +0.139 C 
ATOM      5  C   UNL     1      33.208 -22.126 -18.264  0.00  0.00    +0.037 C 
ATOM      6  C   UNL     1      35.585 -21.875 -18.616  0.00  0.00    +0.037 C 
ENDROOT
BRANCH   4   7
ATOM      7  O   UNL     1      34.761 -23.377 -16.953  0.00  0.00    -0.466 OA
BRANCH   7   8
ATOM      8  C   UNL     1      34.768 -22.904 -15.623  0.00  0.00    +0.279 C 
BRANCH   8  12
ATOM      9  O   UNL     1      36.049 -25.463 -11.730  0.00  0.00    -0.274 OA
ATOM     10  N   UNL     1      35.407 -24.220 -13.607  0.00  0.00    -0.232 N 
ATOM     11  N   UNL     1      36.991 -23.769 -15.322  0.00  0.00    -0.391 NA
ATOM     12  C   UNL     1      35.797 -23.669 -14.825  0.00  0.00    +0.210 C 
ATOM     13  C   UNL     1      37.675 -25.068 -13.362  0.00  0.00    +0.151 C 
ATOM     14  C   UNL     1      37.958 -24.474 -14.595  0.00  0.00    +0.123 C 
ATOM     15  C   UNL     1      36.309 -24.945 -12.812  0.00  0.00    +0.241 C 
ATOM     16  C   UNL     1      34.038 -24.062 -13.116  0.00  0.00    +0.122 C 
ATOM     17  C   UNL     1      38.664 -25.767 -12.661  0.00  0.00    -0.010 C 
ATOM     18  C   UNL     1      39.250 -24.589 -15.120  0.00  0.00    +0.028 C 
ATOM     19  C   UNL     1      39.946 -25.874 -13.197  0.00  0.00    -0.004 C 
ATOM     20  C   UNL     1      40.239 -25.285 -14.425  0.00  0.00    +0.002 C 
ENDBRANCH   8  12
ENDBRANCH   7   8
ENDBRANCH   4   7
BRANCH   1  21
ATOM     21  C   UNL     1      33.762 -19.606 -21.029  0.00  0.00    +0.047 C 
BRANCH  21  26
ATOM     22  S   UNL     1      35.173 -17.233 -20.984  0.00  0.00    -0.048 S 
ATOM     23  O   UNL     1      34.959 -19.893 -23.772  0.00  0.00    -0.274 OA
ATOM     24  O   UNL     1      35.457 -15.395 -22.844  0.00  0.00    -0.263 OA
ATOM     25  N   UNL     1      35.233 -17.611 -23.510  0.00  0.00    -0.246 N 
ATOM     26  C   UNL     1      35.046 -18.958 -21.544  0.00  0.00    +0.137 C 
ATOM     27  C   UNL     1      35.069 -18.903 -23.056  0.00  0.00    +0.239 C 
ATOM     28  C   UNL     1      35.314 -16.586 -22.605  0.00  0.00    +0.279 C 
ATOM     29  H   UNL     1      35.292 -17.428 -24.475  0.00  0.00    +0.158 HD
ENDBRANCH  21  26
ENDBRANCH   1  21
TORSDOF 5
ENDMDL
MODEL 7
REMARK VINA RESULT:     -11.0      3.395     10.319
REMARK  Name = 9889200
REMARK  5 active torsions:
REMARK  status: ('A' for Active; 'I' for Inactive)
REMARK    1  A    between atoms: C_1  and  C_21
REMARK    2  A    between atoms: C_4  and  O_7
REMARK    3  A    between atoms: O_7  and  C_8
REMARK    4  A    between atoms: C_8  and  C_12
REMARK    5  A    between atoms: C_21  and  C_26
REMARK                            x       y       z     vdW  Elec       q    Type
REMARK                         _______ _______ _______ _____ _____    ______ ____
ROOT
ATOM      1  C   UNL     1      34.851 -22.028 -18.314  0.00  0.00    -0.021 C 
ATOM      2  C   UNL     1      35.973 -21.448 -18.906  0.00  0.00    -0.001 C 
ATOM      3  C   UNL     1      33.576 -21.728 -18.793  0.00  0.00    -0.001 C 
ATOM      4  C   UNL     1      34.546 -20.276 -20.446  0.00  0.00    +0.139 C 
ATOM      5  C   UNL     1      35.819 -20.567 -19.977  0.00  0.00    +0.037 C 
ATOM      6  C   UNL     1      33.422 -20.849 -19.864  0.00  0.00    +0.037 C 
ENDROOT
BRANCH   4   7
ATOM      7  O   UNL     1      34.394 -19.409 -21.502  0.00  0.00    -0.466 OA
BRANCH   7   8
ATOM      8  C   UNL     1      35.466 -18.533 -21.777  0.00  0.00    +0.279 C 
BRANCH   8  12
ATOM      9  O   UNL     1      33.428 -16.432 -25.621  0.00  0.00    -0.274 OA
ATOM     10  N   UNL     1      34.415 -17.471 -23.770  0.00  0.00    -0.232 N 
ATOM     11  N   UNL     1      35.014 -16.174 -21.869  0.00  0.00    -0.391 NA
ATOM     12  C   UNL     1      34.942 -17.310 -22.490  0.00  0.00    +0.210 C 
ATOM     13  C   UNL     1      33.983 -15.076 -23.800  0.00  0.00    +0.151 C 
ATOM     14  C   UNL     1      34.533 -15.029 -22.516  0.00  0.00    +0.123 C 
ATOM     15  C   UNL     1      33.909 -16.379 -24.493  0.00  0.00    +0.241 C 
ATOM     16  C   UNL     1      34.370 -18.788 -24.403  0.00  0.00    +0.122 C 
ATOM     17  C   UNL     1      33.511 -13.913 -24.419  0.00  0.00    -0.010 C 
ATOM     18  C   UNL     1      34.605 -13.797 -21.857  0.00  0.00    +0.028 C 
ATOM     19  C   UNL     1      33.589 -12.693 -23.749  0.00  0.00    -0.004 C 
ATOM     20  C   UNL     1      34.136 -12.635 -22.469  0.00  0.00    +0.002 C 
ENDBRANCH   8  12
ENDBRANCH   7   8
ENDBRANCH   4   7
BRANCH   1  21
ATOM     21  C   UNL     1      35.015 -22.968 -17.168  0.00  0.00    +0.047 C 
BRANCH  21  26
ATOM     22  S   UNL     1      37.240 -22.511 -15.598  0.00  0.00    -0.048 S 
ATOM     23  O   UNL     1      33.539 -22.835 -14.553  0.00  0.00    -0.274 OA
ATOM     24  O   UNL     1      37.922 -23.552 -13.281  0.00  0.00    -0.263 OA
ATOM     25  N   UNL     1      35.661 -23.257 -13.733  0.00  0.00    -0.246 N 
ATOM     26  C   UNL     1      35.464 -22.255 -15.895  0.00  0.00    +0.137 C 
ATOM     27  C   UNL     1      34.759 -22.805 -14.675  0.00  0.00    +0.239 C 
ATOM     28  C   UNL     1      37.002 -23.194 -14.004  0.00  0.00    +0.279 C 
ATOM     29  H   UNL     1      35.342 -23.619 -12.875  0.00  0.00    +0.158 HD
ENDBRANCH  21  26
ENDBRANCH   1  21
TORSDOF 5
ENDMDL
MODEL 8
REMARK VINA RESULT:     -10.8      3.855      6.350
REMARK  Name = 9889200
REMARK  5 active torsions:
REMARK  status: ('A' for Active; 'I' for Inactive)
REMARK    1  A    between atoms: C_1  and  C_21
REMARK    2  A    between atoms: C_4  and  O_7
REMARK    3  A    between atoms: O_7  and  C_8
REMARK    4  A    between atoms: C_8  and  C_12
REMARK    5  A    between atoms: C_21  and  C_26
REMARK                            x       y       z     vdW  Elec       q    Type
REMARK                         _______ _______ _______ _____ _____    ______ ____
ROOT
ATOM      1  C   UNL     1      34.268 -14.933 -22.767  0.00  0.00    -0.021 C 
ATOM      2  C   UNL     1      34.358 -14.865 -21.377  0.00  0.00    -0.001 C 
ATOM      3  C   UNL     1      34.700 -16.076 -23.440  0.00  0.00    -0.001 C 
ATOM      4  C   UNL     1      35.310 -17.073 -21.339  0.00  0.00    +0.139 C 
ATOM      5  C   UNL     1      34.882 -15.941 -20.659  0.00  0.00    +0.037 C 
ATOM      6  C   UNL     1      35.223 -17.151 -22.722  0.00  0.00    +0.037 C 
ENDROOT
BRANCH   4   7
ATOM      7  O   UNL     1      35.824 -18.134 -20.631  0.00  0.00    -0.466 OA
BRANCH   7   8
ATOM      8  C   UNL     1      35.528 -19.430 -21.104  0.00  0.00    +0.279 C 
BRANCH   8  12
ATOM      9  O   UNL     1      32.521 -22.156 -18.483  0.00  0.00    -0.274 OA
ATOM     10  N   UNL     1      33.959 -20.829 -19.766  0.00  0.00    -0.232 N 
ATOM     11  N   UNL     1      36.243 -20.615 -19.138  0.00  0.00    -0.391 NA
ATOM     12  C   UNL     1      35.254 -20.340 -19.931  0.00  0.00    +0.210 C 
ATOM     13  C   UNL     1      34.747 -22.005 -17.787  0.00  0.00    +0.151 C 
ATOM     14  C   UNL     1      36.006 -21.458 -18.045  0.00  0.00    +0.123 C 
ATOM     15  C   UNL     1      33.631 -21.680 -18.700  0.00  0.00    +0.241 C 
ATOM     16  C   UNL     1      32.897 -20.470 -20.706  0.00  0.00    +0.122 C 
ATOM     17  C   UNL     1      34.543 -22.844 -16.686  0.00  0.00    -0.010 C 
ATOM     18  C   UNL     1      37.065 -21.763 -17.183  0.00  0.00    +0.028 C 
ATOM     19  C   UNL     1      35.608 -23.139 -15.836  0.00  0.00    -0.004 C 
ATOM     20  C   UNL     1      36.868 -22.599 -16.084  0.00  0.00    +0.002 C 
ENDBRANCH   8  12
ENDBRANCH   7   8
ENDBRANCH   4   7
BRANCH   1  21
ATOM     21  C   UNL     1      33.709 -13.783 -23.534  0.00  0.00    +0.047 C 
BRANCH  21  26
ATOM     22  S   UNL     1      32.007 -12.331 -21.916  0.00  0.00    -0.048 S 
ATOM     23  O   UNL     1      34.806 -11.079 -24.260  0.00  0.00    -0.274 OA
ATOM     24  O   UNL     1      30.688 -10.109 -22.406  0.00  0.00    -0.263 OA
ATOM     25  N   UNL     1      32.756 -10.410 -23.425  0.00  0.00    -0.246 N 
ATOM     26  C   UNL     1      33.640 -12.508 -22.697  0.00  0.00    +0.137 C 
ATOM     27  C   UNL     1      33.824 -11.274 -23.552  0.00  0.00    +0.239 C 
ATOM     28  C   UNL     1      31.702 -10.758 -22.621  0.00  0.00    +0.279 C 
ATOM     29  H   UNL     1      32.752  -9.551 -23.907  0.00  0.00    +0.158 HD
ENDBRANCH  21  26
ENDBRANCH   1  21
TORSDOF 5
ENDMDL
MODEL 9
REMARK VINA RESULT:     -10.8      1.863      2.542
REMARK  Name = 9889200
REMARK  5 active torsions:
REMARK  status: ('A' for Active; 'I' for Inactive)
REMARK    1  A    between atoms: C_1  and  C_21
REMARK    2  A    between atoms: C_4  and  O_7
REMARK    3  A    between atoms: O_7  and  C_8
REMARK    4  A    between atoms: C_8  and  C_12
REMARK    5  A    between atoms: C_21  and  C_26
REMARK                            x       y       z     vdW  Elec       q    Type
REMARK                         _______ _______ _______ _____ _____    ______ ____
ROOT
ATOM      1  C   UNL     1      35.772 -18.477 -21.503  0.00  0.00    -0.021 C 
ATOM      2  C   UNL     1      36.872 -18.906 -20.761  0.00  0.00    -0.001 C 
ATOM      3  C   UNL     1      34.578 -19.196 -21.459  0.00  0.00    -0.001 C 
ATOM      4  C   UNL     1      35.585 -20.764 -19.939  0.00  0.00    +0.139 C 
ATOM      5  C   UNL     1      36.778 -20.056 -19.975  0.00  0.00    +0.037 C 
ATOM      6  C   UNL     1      34.483 -20.344 -20.673  0.00  0.00    +0.037 C 
ENDROOT
BRANCH   4   7
ATOM      7  O   UNL     1      35.492 -21.895 -19.164  0.00  0.00    -0.466 OA
BRANCH   7   8
ATOM      8  C   UNL     1      36.284 -21.944 -17.997  0.00  0.00    +0.279 C 
BRANCH   8  12
ATOM      9  O   UNL     1      35.812 -23.268 -13.373  0.00  0.00    -0.274 OA
ATOM     10  N   UNL     1      36.064 -22.624 -15.610  0.00  0.00    -0.232 N 
ATOM     11  N   UNL     1      34.175 -22.614 -17.055  0.00  0.00    -0.391 NA
ATOM     12  C   UNL     1      35.440 -22.420 -16.839  0.00  0.00    +0.210 C 
ATOM     13  C   UNL     1      33.900 -23.290 -14.718  0.00  0.00    +0.151 C 
ATOM     14  C   UNL     1      33.378 -23.056 -15.992  0.00  0.00    +0.123 C 
ATOM     15  C   UNL     1      35.343 -23.064 -14.489  0.00  0.00    +0.241 C 
ATOM     16  C   UNL     1      37.497 -22.382 -15.448  0.00  0.00    +0.122 C 
ATOM     17  C   UNL     1      33.076 -23.731 -13.677  0.00  0.00    -0.010 C 
ATOM     18  C   UNL     1      32.013 -23.268 -16.212  0.00  0.00    +0.028 C 
ATOM     19  C   UNL     1      31.718 -23.938 -13.911  0.00  0.00    -0.004 C 
ATOM     20  C   UNL     1      31.186 -23.707 -15.178  0.00  0.00    +0.002 C 
ENDBRANCH   8  12
ENDBRANCH   7   8
ENDBRANCH   4   7
BRANCH   1  21
ATOM     21  C   UNL     1      35.873 -17.250 -22.343  0.00  0.00    +0.047 C 
BRANCH  21  26
ATOM     22  S   UNL     1      34.397 -15.409 -23.777  0.00  0.00    -0.048 S 
ATOM     23  O   UNL     1      34.903 -15.692 -19.962  0.00  0.00    -0.274 OA
ATOM     24  O   UNL     1      34.207 -12.802 -23.497  0.00  0.00    -0.263 OA
ATOM     25  N   UNL     1      34.545 -14.092 -21.594  0.00  0.00    -0.246 N 
ATOM     26  C   UNL     1      34.616 -16.387 -22.260  0.00  0.00    +0.137 C 
ATOM     27  C   UNL     1      34.709 -15.382 -21.133  0.00  0.00    +0.239 C 
ATOM     28  C   UNL     1      34.364 -13.876 -22.935  0.00  0.00    +0.279 C 
ATOM     29  H   UNL     1      34.556 -13.335 -20.964  0.00  0.00    +0.158 HD
ENDBRANCH  21  26
ENDBRANCH   1  21
TORSDOF 5
ENDMDL
