MODEL 1
REMARK VINA RESULT:     -12.2      0.000      0.000
REMARK  Name = 5289110
REMARK  6 active torsions:
REMARK  status: ('A' for Active; 'I' for Inactive)
REMARK    1  A    between atoms: C_3  and  C_9
REMARK    2  A    between atoms: C_4  and  C_22
REMARK    3  A    between atoms: N_8  and  C_11
REMARK    4  A    between atoms: C_11  and  C_13
REMARK    5  A    between atoms: N_21  and  C_24
REMARK    6  A    between atoms: C_24  and  C_26
REMARK                            x       y       z     vdW  Elec       q    Type
REMARK                         _______ _______ _______ _____ _____    ______ ____
ROOT
ATOM      1  N   UNL     1      34.853 -19.648 -23.098  0.00  0.00    -0.244 NA
ATOM      2  N   UNL     1      34.010 -18.015 -24.656  0.00  0.00    -0.244 NA
ATOM      3  C   UNL     1      35.321 -18.632 -22.343  0.00  0.00    +0.115 C 
ATOM      4  C   UNL     1      34.509 -17.080 -23.843  0.00  0.00    +0.115 C 
ATOM      5  C   UNL     1      35.174 -17.300 -22.674  0.00  0.00    +0.100 C 
ATOM      6  C   UNL     1      34.218 -19.273 -24.224  0.00  0.00    +0.250 C 
ENDROOT
BRANCH   3   9
ATOM      7  O   UNL     1      36.746 -18.206 -20.531  0.00  0.00    -0.269 OA
ATOM      8  N   UNL     1      35.784 -20.312 -20.645  0.00  0.00    -0.296 N 
ATOM      9  C   UNL     1      36.009 -19.015 -21.123  0.00  0.00    +0.260 C 
ATOM     10  H   UNL     1      35.189 -20.901 -21.163  0.00  0.00    +0.150 HD
BRANCH   8  11
ATOM     11  C   UNL     1      36.377 -20.834 -19.435  0.00  0.00    +0.117 C 
BRANCH  11  13
ATOM     12  F   UNL     1      32.636 -23.645 -16.318  0.00  0.00    -0.205 F 
ATOM     13  C   UNL     1      35.379 -21.584 -18.600  0.00  0.00    -0.003 C 
ATOM     14  C   UNL     1      35.767 -22.115 -17.375  0.00  0.00    -0.005 C 
ATOM     15  C   UNL     1      34.841 -22.812 -16.600  0.00  0.00    +0.005 C 
ATOM     16  C   UNL     1      34.077 -21.743 -19.061  0.00  0.00    -0.000 C 
ATOM     17  C   UNL     1      33.532 -22.975 -17.056  0.00  0.00    +0.136 C 
ATOM     18  C   UNL     1      33.151 -22.440 -18.285  0.00  0.00    +0.029 C 
ATOM     19  C   UNL     1      35.252 -23.382 -15.284  0.00  0.00    +0.033 C 
ENDBRANCH  11  13
ENDBRANCH   8  11
ENDBRANCH   3   9
BRANCH   4  22
ATOM     20  O   UNL     1      34.014 -15.477 -25.482  0.00  0.00    -0.269 OA
ATOM     21  N   UNL     1      34.402 -14.699 -23.332  0.00  0.00    -0.296 N 
ATOM     22  C   UNL     1      34.292 -15.684 -24.303  0.00  0.00    +0.260 C 
ATOM     23  H   UNL     1      34.629 -14.965 -22.412  0.00  0.00    +0.150 HD
BRANCH  21  24
ATOM     24  C   UNL     1      34.195 -13.302 -23.617  0.00  0.00    +0.117 C 
BRANCH  24  26
ATOM     25  F   UNL     1      30.394 -10.972 -20.193  0.00  0.00    -0.205 F 
ATOM     26  C   UNL     1      33.186 -12.681 -22.710  0.00  0.00    -0.003 C 
ATOM     27  C   UNL     1      32.709 -11.396 -22.972  0.00  0.00    -0.005 C 
ATOM     28  C   UNL     1      31.766 -10.817 -22.123  0.00  0.00    +0.005 C 
ATOM     29  C   UNL     1      32.719 -13.385 -21.601  0.00  0.00    -0.000 C 
ATOM     30  C   UNL     1      31.300 -11.521 -21.014  0.00  0.00    +0.136 C 
ATOM     31  C   UNL     1      31.777 -12.805 -20.752  0.00  0.00    +0.029 C 
ATOM     32  C   UNL     1      31.258  -9.443 -22.407  0.00  0.00    +0.033 C 
ENDBRANCH  24  26
ENDBRANCH  21  24
ENDBRANCH   4  22
TORSDOF 6
ENDMDL
MODEL 2
REMARK VINA RESULT:     -12.1      0.179      9.673
REMARK  Name = 5289110
REMARK  6 active torsions:
REMARK  status: ('A' for Active; 'I' for Inactive)
REMARK    1  A    between atoms: C_3  and  C_9
REMARK    2  A    between atoms: C_4  and  C_22
REMARK    3  A    between atoms: N_8  and  C_11
REMARK    4  A    between atoms: C_11  and  C_13
REMARK    5  A    between atoms: N_21  and  C_24
REMARK    6  A    between atoms: C_24  and  C_26
REMARK                            x       y       z     vdW  Elec       q    Type
REMARK                         _______ _______ _______ _____ _____    ______ ____
ROOT
ATOM      1  N   UNL     1      34.059 -18.159 -24.558  0.00  0.00    -0.244 NA
ATOM      2  N   UNL     1      34.912 -19.782 -22.995  0.00  0.00    -0.244 NA
ATOM      3  C   UNL     1      34.571 -17.189 -23.774  0.00  0.00    +0.115 C 
ATOM      4  C   UNL     1      35.384 -18.753 -22.286  0.00  0.00    +0.115 C 
ATOM      5  C   UNL     1      35.259 -17.432 -22.602  0.00  0.00    +0.100 C 
ATOM      6  C   UNL     1      34.262 -19.414 -24.115  0.00  0.00    +0.250 C 
ENDROOT
BRANCH   3   9
ATOM      7  O   UNL     1      34.122 -15.592 -25.432  0.00  0.00    -0.269 OA
ATOM      8  N   UNL     1      34.425 -14.813 -23.270  0.00  0.00    -0.296 N 
ATOM      9  C   UNL     1      34.363 -15.827 -24.234  0.00  0.00    +0.260 C 
ATOM     10  H   UNL     1      34.620 -15.068 -22.339  0.00  0.00    +0.150 HD
BRANCH   8  11
ATOM     11  C   UNL     1      34.218 -13.413 -23.564  0.00  0.00    +0.117 C 
BRANCH  11  13
ATOM     12  F   UNL     1      30.478 -11.072 -20.080  0.00  0.00    -0.205 F 
ATOM     13  C   UNL     1      33.218 -12.786 -22.636  0.00  0.00    -0.003 C 
ATOM     14  C   UNL     1      32.715 -11.522 -22.919  0.00  0.00    -0.005 C 
ATOM     15  C   UNL     1      31.787 -10.939 -22.056  0.00  0.00    +0.005 C 
ATOM     16  C   UNL     1      32.807 -13.476 -21.501  0.00  0.00    -0.000 C 
ATOM     17  C   UNL     1      31.369 -11.625 -20.915  0.00  0.00    +0.136 C 
ATOM     18  C   UNL     1      31.879 -12.893 -20.639  0.00  0.00    +0.029 C 
ATOM     19  C   UNL     1      31.243  -9.583 -22.356  0.00  0.00    +0.033 C 
ENDBRANCH  11  13
ENDBRANCH   8  11
ENDBRANCH   3   9
BRANCH   4  22
ATOM     20  O   UNL     1      36.842 -18.318 -20.502  0.00  0.00    -0.269 OA
ATOM     21  N   UNL     1      35.859 -20.418 -20.571  0.00  0.00    -0.296 N 
ATOM     22  C   UNL     1      36.103 -19.137 -21.045  0.00  0.00    +0.260 C 
ATOM     23  H   UNL     1      35.249 -21.002 -21.078  0.00  0.00    +0.150 HD
BRANCH  21  24
ATOM     24  C   UNL     1      36.463 -20.928 -19.366  0.00  0.00    +0.117 C 
BRANCH  24  26
ATOM     25  F   UNL     1      32.777 -23.693 -16.146  0.00  0.00    -0.205 F 
ATOM     26  C   UNL     1      35.487 -21.662 -18.509  0.00  0.00    -0.003 C 
ATOM     27  C   UNL     1      35.853 -22.069 -17.226  0.00  0.00    -0.005 C 
ATOM     28  C   UNL     1      34.939 -22.755 -16.426  0.00  0.00    +0.005 C 
ATOM     29  C   UNL     1      34.208 -21.940 -18.991  0.00  0.00    -0.000 C 
ATOM     30  C   UNL     1      33.661 -23.034 -16.908  0.00  0.00    +0.136 C 
ATOM     31  C   UNL     1      33.295 -22.626 -18.191  0.00  0.00    +0.029 C 
ATOM     32  C   UNL     1      35.334 -23.189 -15.054  0.00  0.00    +0.033 C 
ENDBRANCH  24  26
ENDBRANCH  21  24
ENDBRANCH   4  22
TORSDOF 6
ENDMDL
MODEL 3
REMARK VINA RESULT:     -12.0      2.189      9.894
REMARK  Name = 5289110
REMARK  6 active torsions:
REMARK  status: ('A' for Active; 'I' for Inactive)
REMARK    1  A    between atoms: C_3  and  C_9
REMARK    2  A    between atoms: C_4  and  C_22
REMARK    3  A    between atoms: N_8  and  C_11
REMARK    4  A    between atoms: C_11  and  C_13
REMARK    5  A    between atoms: N_21  and  C_24
REMARK    6  A    between atoms: C_24  and  C_26
REMARK                            x       y       z     vdW  Elec       q    Type
REMARK                         _______ _______ _______ _____ _____    ______ ____
ROOT
ATOM      1  N   UNL     1      36.762 -18.727 -20.602  0.00  0.00    -0.244 NA
ATOM      2  N   UNL     1      36.097 -20.636 -19.290  0.00  0.00    -0.244 NA
ATOM      3  C   UNL     1      35.520 -18.700 -21.126  0.00  0.00    +0.115 C 
ATOM      4  C   UNL     1      34.895 -20.527 -19.864  0.00  0.00    +0.115 C 
ATOM      5  C   UNL     1      34.524 -19.595 -20.786  0.00  0.00    +0.100 C 
ATOM      6  C   UNL     1      36.979 -19.707 -19.704  0.00  0.00    +0.250 C 
ENDROOT
BRANCH   3   9
ATOM      7  O   UNL     1      35.151 -17.920 -23.306  0.00  0.00    -0.269 OA
ATOM      8  N   UNL     1      35.132 -16.347 -21.604  0.00  0.00    -0.296 N 
ATOM      9  C   UNL     1      35.264 -17.651 -22.097  0.00  0.00    +0.260 C 
ATOM     10  H   UNL     1      35.234 -16.203 -20.635  0.00  0.00    +0.150 HD
BRANCH   8  11
ATOM     11  C   UNL     1      34.855 -15.200 -22.438  0.00  0.00    +0.117 C 
BRANCH  11  13
ATOM     12  F   UNL     1      31.179 -11.697 -20.025  0.00  0.00    -0.205 F 
ATOM     13  C   UNL     1      33.872 -14.263 -21.796  0.00  0.00    -0.003 C 
ATOM     14  C   UNL     1      33.453 -13.129 -22.482  0.00  0.00    -0.005 C 
ATOM     15  C   UNL     1      32.541 -12.259 -21.886  0.00  0.00    +0.005 C 
ATOM     16  C   UNL     1      33.393 -14.538 -20.521  0.00  0.00    -0.000 C 
ATOM     17  C   UNL     1      32.055 -12.528 -20.606  0.00  0.00    +0.136 C 
ATOM     18  C   UNL     1      32.480 -13.668 -19.924  0.00  0.00    +0.029 C 
ATOM     19  C   UNL     1      32.086 -11.042 -22.619  0.00  0.00    +0.033 C 
ENDBRANCH  11  13
ENDBRANCH   8  11
ENDBRANCH   3   9
BRANCH   4  22
ATOM     20  O   UNL     1      32.752 -21.479 -19.836  0.00  0.00    -0.269 OA
ATOM     21  N   UNL     1      34.386 -22.530 -18.570  0.00  0.00    -0.296 N 
ATOM     22  C   UNL     1      33.907 -21.545 -19.422  0.00  0.00    +0.260 C 
ATOM     23  H   UNL     1      35.330 -22.498 -18.293  0.00  0.00    +0.150 HD
BRANCH  21  24
ATOM     24  C   UNL     1      33.556 -23.598 -18.075  0.00  0.00    +0.117 C 
BRANCH  24  26
ATOM     25  F   UNL     1      32.015 -22.798 -12.728  0.00  0.00    -0.205 F 
ATOM     26  C   UNL     1      33.144 -23.385 -16.656  0.00  0.00    -0.003 C 
ATOM     27  C   UNL     1      31.805 -23.144 -16.347  0.00  0.00    -0.005 C 
ATOM     28  C   UNL     1      31.421 -22.945 -15.021  0.00  0.00    +0.005 C 
ATOM     29  C   UNL     1      34.097 -23.429 -15.640  0.00  0.00    -0.000 C 
ATOM     30  C   UNL     1      32.375 -22.988 -14.005  0.00  0.00    +0.136 C 
ATOM     31  C   UNL     1      33.714 -23.229 -14.314  0.00  0.00    +0.029 C 
ATOM     32  C   UNL     1      29.989 -22.688 -14.694  0.00  0.00    +0.033 C 
ENDBRANCH  24  26
ENDBRANCH  21  24
ENDBRANCH   4  22
TORSDOF 6
ENDMDL
MODEL 4
REMARK VINA RESULT:     -12.0      2.190      3.424
REMARK  Name = 5289110
REMARK  6 active torsions:
REMARK  status: ('A' for Active; 'I' for Inactive)
REMARK    1  A    between atoms: C_3  and  C_9
REMARK    2  A    between atoms: C_4  and  C_22
REMARK    3  A    between atoms: N_8  and  C_11
REMARK    4  A    between atoms: C_11  and  C_13
REMARK    5  A    between atoms: N_21  and  C_24
REMARK    6  A    between atoms: C_24  and  C_26
REMARK                            x       y       z     vdW  Elec       q    Type
REMARK                         _______ _______ _______ _____ _____    ______ ____
ROOT
ATOM      1  N   UNL     1      36.098 -20.612 -19.304  0.00  0.00    -0.244 NA
ATOM      2  N   UNL     1      36.761 -18.702 -20.615  0.00  0.00    -0.244 NA
ATOM      3  C   UNL     1      34.878 -20.534 -19.875  0.00  0.00    +0.115 C 
ATOM      4  C   UNL     1      35.526 -18.706 -21.123  0.00  0.00    +0.115 C 
ATOM      5  C   UNL     1      34.529 -19.582 -20.811  0.00  0.00    +0.100 C 
ATOM      6  C   UNL     1      36.977 -19.679 -19.714  0.00  0.00    +0.250 C 
ENDROOT
BRANCH   3   9
ATOM      7  O   UNL     1      32.739 -21.495 -19.855  0.00  0.00    -0.269 OA
ATOM      8  N   UNL     1      34.375 -22.535 -18.584  0.00  0.00    -0.296 N 
ATOM      9  C   UNL     1      33.914 -21.532 -19.447  0.00  0.00    +0.260 C 
ATOM     10  H   UNL     1      35.317 -22.505 -18.300  0.00  0.00    +0.150 HD
BRANCH   8  11
ATOM     11  C   UNL     1      33.546 -23.609 -18.089  0.00  0.00    +0.117 C 
BRANCH  11  13
ATOM     12  F   UNL     1      32.011 -22.779 -12.745  0.00  0.00    -0.205 F 
ATOM     13  C   UNL     1      33.133 -23.388 -16.663  0.00  0.00    -0.003 C 
ATOM     14  C   UNL     1      31.795 -23.165 -16.360  0.00  0.00    -0.005 C 
ATOM     15  C   UNL     1      31.411 -22.960 -15.035  0.00  0.00    +0.005 C 
ATOM     16  C   UNL     1      34.094 -23.407 -15.658  0.00  0.00    -0.000 C 
ATOM     17  C   UNL     1      32.370 -22.977 -14.021  0.00  0.00    +0.136 C 
ATOM     18  C   UNL     1      33.710 -23.202 -14.333  0.00  0.00    +0.029 C 
ATOM     19  C   UNL     1      29.976 -22.722 -14.705  0.00  0.00    +0.033 C 
ENDBRANCH  11  13
ENDBRANCH   8  11
ENDBRANCH   3   9
BRANCH   4  22
ATOM     20  O   UNL     1      35.151 -17.933 -23.306  0.00  0.00    -0.269 OA
ATOM     21  N   UNL     1      35.145 -16.349 -21.612  0.00  0.00    -0.296 N 
ATOM     22  C   UNL     1      35.265 -17.635 -22.119  0.00  0.00    +0.260 C 
ATOM     23  H   UNL     1      35.253 -16.210 -20.643  0.00  0.00    +0.150 HD
BRANCH  21  24
ATOM     24  C   UNL     1      34.869 -15.208 -22.448  0.00  0.00    +0.117 C 
BRANCH  24  26
ATOM     25  F   UNL     1      31.200 -11.672 -20.073  0.00  0.00    -0.205 F 
ATOM     26  C   UNL     1      33.895 -14.268 -21.820  0.00  0.00    -0.003 C 
ATOM     27  C   UNL     1      33.484 -13.126 -22.508  0.00  0.00    -0.005 C 
ATOM     28  C   UNL     1      32.574 -12.247 -21.921  0.00  0.00    +0.005 C 
ATOM     29  C   UNL     1      33.395 -14.531 -20.545  0.00  0.00    -0.000 C 
ATOM     30  C   UNL     1      32.075 -12.511 -20.645  0.00  0.00    +0.136 C 
ATOM     31  C   UNL     1      32.486 -13.652 -19.957  0.00  0.00    +0.029 C 
ATOM     32  C   UNL     1      32.137 -11.027 -22.660  0.00  0.00    +0.033 C 
ENDBRANCH  24  26
ENDBRANCH  21  24
ENDBRANCH   4  22
TORSDOF 6
ENDMDL
MODEL 5
REMARK VINA RESULT:     -11.9      2.968     11.052
REMARK  Name = 5289110
REMARK  6 active torsions:
REMARK  status: ('A' for Active; 'I' for Inactive)
REMARK    1  A    between atoms: C_3  and  C_9
REMARK    2  A    between atoms: C_4  and  C_22
REMARK    3  A    between atoms: N_8  and  C_11
REMARK    4  A    between atoms: C_11  and  C_13
REMARK    5  A    between atoms: N_21  and  C_24
REMARK    6  A    between atoms: C_24  and  C_26
REMARK                            x       y       z     vdW  Elec       q    Type
REMARK                         _______ _______ _______ _____ _____    ______ ____
ROOT
ATOM      1  N   UNL     1      33.191 -13.931 -24.304  0.00  0.00    -0.244 NA
ATOM      2  N   UNL     1      34.482 -15.923 -23.884  0.00  0.00    -0.244 NA
ATOM      3  C   UNL     1      33.294 -13.633 -22.993  0.00  0.00    +0.115 C 
ATOM      4  C   UNL     1      34.529 -15.542 -22.605  0.00  0.00    +0.115 C 
ATOM      5  C   UNL     1      33.966 -14.418 -22.078  0.00  0.00    +0.100 C 
ATOM      6  C   UNL     1      33.799 -15.075 -24.676  0.00  0.00    +0.250 C 
ENDROOT
BRANCH   3   9
ATOM      7  O   UNL     1      32.044 -12.345 -21.484  0.00  0.00    -0.269 OA
ATOM      8  N   UNL     1      32.753 -11.301 -23.428  0.00  0.00    -0.296 N 
ATOM      9  C   UNL     1      32.646 -12.403 -22.571  0.00  0.00    +0.260 C 
ATOM     10  H   UNL     1      33.244 -11.415 -24.274  0.00  0.00    +0.150 HD
BRANCH   8  11
ATOM     11  C   UNL     1      32.184 -10.004 -23.140  0.00  0.00    +0.117 C 
BRANCH  11  13
ATOM     12  F   UNL     1      35.856  -5.852 -24.081  0.00  0.00    -0.205 F 
ATOM     13  C   UNL     1      33.162  -8.893 -23.391  0.00  0.00    -0.003 C 
ATOM     14  C   UNL     1      32.695  -7.619 -23.690  0.00  0.00    -0.005 C 
ATOM     15  C   UNL     1      33.604  -6.587 -23.923  0.00  0.00    +0.005 C 
ATOM     16  C   UNL     1      34.527  -9.150 -23.323  0.00  0.00    -0.000 C 
ATOM     17  C   UNL     1      34.975  -6.837 -23.857  0.00  0.00    +0.136 C 
ATOM     18  C   UNL     1      35.436  -8.118 -23.556  0.00  0.00    +0.029 C 
ATOM     19  C   UNL     1      33.107  -5.217 -24.243  0.00  0.00    +0.033 C 
ENDBRANCH  11  13
ENDBRANCH   8  11
ENDBRANCH   3   9
BRANCH   4  22
ATOM     20  O   UNL     1      35.304 -16.243 -20.506  0.00  0.00    -0.269 OA
ATOM     21  N   UNL     1      35.882 -17.551 -22.331  0.00  0.00    -0.296 N 
ATOM     22  C   UNL     1      35.276 -16.466 -21.714  0.00  0.00    +0.260 C 
ATOM     23  H   UNL     1      35.803 -17.644 -23.309  0.00  0.00    +0.150 HD
BRANCH  21  24
ATOM     24  C   UNL     1      36.622 -18.547 -21.599  0.00  0.00    +0.117 C 
BRANCH  24  26
ATOM     25  F   UNL     1      33.251 -22.035 -18.757  0.00  0.00    -0.205 F 
ATOM     26  C   UNL     1      35.730 -19.474 -20.843  0.00  0.00    -0.003 C 
ATOM     27  C   UNL     1      36.250 -20.260 -19.815  0.00  0.00    -0.005 C 
ATOM     28  C   UNL     1      35.416 -21.127 -19.109  0.00  0.00    +0.005 C 
ATOM     29  C   UNL     1      34.375 -19.553 -21.163  0.00  0.00    -0.000 C 
ATOM     30  C   UNL     1      34.061 -21.206 -19.430  0.00  0.00    +0.136 C 
ATOM     31  C   UNL     1      33.540 -20.419 -20.458  0.00  0.00    +0.029 C 
ATOM     32  C   UNL     1      35.976 -21.966 -18.011  0.00  0.00    +0.033 C 
ENDBRANCH  24  26
ENDBRANCH  21  24
ENDBRANCH   4  22
TORSDOF 6
ENDMDL
MODEL 6
REMARK VINA RESULT:     -11.9      2.316      3.191
REMARK  Name = 5289110
REMARK  6 active torsions:
REMARK  status: ('A' for Active; 'I' for Inactive)
REMARK    1  A    between atoms: C_3  and  C_9
REMARK    2  A    between atoms: C_4  and  C_22
REMARK    3  A    between atoms: N_8  and  C_11
REMARK    4  A    between atoms: C_11  and  C_13
REMARK    5  A    between atoms: N_21  and  C_24
REMARK    6  A    between atoms: C_24  and  C_26
REMARK                            x       y       z     vdW  Elec       q    Type
REMARK                         _______ _______ _______ _____ _____    ______ ____
ROOT
ATOM      1  N   UNL     1      34.962 -16.157 -20.228  0.00  0.00    -0.244 NA
ATOM      2  N   UNL     1      34.117 -14.058 -21.056  0.00  0.00    -0.244 NA
ATOM      3  C   UNL     1      35.107 -16.561 -21.507  0.00  0.00    +0.115 C 
ATOM      4  C   UNL     1      34.296 -14.547 -22.286  0.00  0.00    +0.115 C 
ATOM      5  C   UNL     1      34.784 -15.781 -22.599  0.00  0.00    +0.100 C 
ATOM      6  C   UNL     1      34.469 -14.913 -20.078  0.00  0.00    +0.250 C 
ENDROOT
BRANCH   3   9
ATOM      7  O   UNL     1      35.904 -18.325 -22.831  0.00  0.00    -0.269 OA
ATOM      8  N   UNL     1      35.852 -18.665 -20.538  0.00  0.00    -0.296 N 
ATOM      9  C   UNL     1      35.638 -17.900 -21.692  0.00  0.00    +0.260 C 
ATOM     10  H   UNL     1      35.619 -18.268 -19.668  0.00  0.00    +0.150 HD
BRANCH   8  11
ATOM     11  C   UNL     1      36.395 -20.004 -20.555  0.00  0.00    +0.117 C 
BRANCH  11  13
ATOM     12  F   UNL     1      34.136 -23.239 -16.549  0.00  0.00    -0.205 F 
ATOM     13  C   UNL     1      35.794 -20.867 -19.483  0.00  0.00    -0.003 C 
ATOM     14  C   UNL     1      36.556 -21.219 -18.375  0.00  0.00    -0.005 C 
ATOM     15  C   UNL     1      35.997 -22.021 -17.379  0.00  0.00    +0.005 C 
ATOM     16  C   UNL     1      34.482 -21.307 -19.611  0.00  0.00    -0.000 C 
ATOM     17  C   UNL     1      34.681 -22.467 -17.500  0.00  0.00    +0.136 C 
ATOM     18  C   UNL     1      33.923 -22.109 -18.615  0.00  0.00    +0.029 C 
ATOM     19  C   UNL     1      36.810 -22.400 -16.187  0.00  0.00    +0.033 C 
ENDBRANCH  11  13
ENDBRANCH   8  11
ENDBRANCH   3   9
BRANCH   4  22
ATOM     20  O   UNL     1      33.702 -14.070 -24.504  0.00  0.00    -0.269 OA
ATOM     21  N   UNL     1      33.794 -12.281 -23.032  0.00  0.00    -0.296 N 
ATOM     22  C   UNL     1      33.912 -13.619 -23.381  0.00  0.00    +0.260 C 
ATOM     23  H   UNL     1      33.984 -12.016 -22.102  0.00  0.00    +0.150 HD
BRANCH  21  24
ATOM     24  C   UNL     1      33.406 -11.264 -23.976  0.00  0.00    +0.117 C 
BRANCH  24  26
ATOM     25  F   UNL     1      33.265  -6.143 -21.660  0.00  0.00    -0.205 F 
ATOM     26  C   UNL     1      33.372  -9.904 -23.363  0.00  0.00    -0.003 C 
ATOM     27  C   UNL     1      34.440  -9.027 -23.549  0.00  0.00    -0.005 C 
ATOM     28  C   UNL     1      34.407  -7.756 -22.975  0.00  0.00    +0.005 C 
ATOM     29  C   UNL     1      32.270  -9.510 -22.603  0.00  0.00    -0.000 C 
ATOM     30  C   UNL     1      33.306  -7.363 -22.216  0.00  0.00    +0.136 C 
ATOM     31  C   UNL     1      32.238  -8.240 -22.029  0.00  0.00    +0.029 C 
ATOM     32  C   UNL     1      35.551  -6.820 -23.178  0.00  0.00    +0.033 C 
ENDBRANCH  24  26
ENDBRANCH  21  24
ENDBRANCH   4  22
TORSDOF 6
ENDMDL
MODEL 7
REMARK VINA RESULT:     -11.9      2.315     10.930
REMARK  Name = 5289110
REMARK  6 active torsions:
REMARK  status: ('A' for Active; 'I' for Inactive)
REMARK    1  A    between atoms: C_3  and  C_9
REMARK    2  A    between atoms: C_4  and  C_22
REMARK    3  A    between atoms: N_8  and  C_11
REMARK    4  A    between atoms: C_11  and  C_13
REMARK    5  A    between atoms: N_21  and  C_24
REMARK    6  A    between atoms: C_24  and  C_26
REMARK                            x       y       z     vdW  Elec       q    Type
REMARK                         _______ _______ _______ _____ _____    ______ ____
ROOT
ATOM      1  N   UNL     1      34.165 -14.077 -21.058  0.00  0.00    -0.244 NA
ATOM      2  N   UNL     1      34.989 -16.191 -20.248  0.00  0.00    -0.244 NA
ATOM      3  C   UNL     1      34.302 -14.546 -22.315  0.00  0.00    +0.115 C 
ATOM      4  C   UNL     1      35.090 -16.566 -21.526  0.00  0.00    +0.115 C 
ATOM      5  C   UNL     1      34.769 -15.811 -22.615  0.00  0.00    +0.100 C 
ATOM      6  C   UNL     1      34.522 -14.939 -20.088  0.00  0.00    +0.250 C 
ENDROOT
BRANCH   3   9
ATOM      7  O   UNL     1      33.694 -14.055 -24.526  0.00  0.00    -0.269 OA
ATOM      8  N   UNL     1      33.808 -12.278 -23.041  0.00  0.00    -0.296 N 
ATOM      9  C   UNL     1      33.923 -13.632 -23.378  0.00  0.00    +0.260 C 
ATOM     10  H   UNL     1      34.004 -12.011 -22.115  0.00  0.00    +0.150 HD
BRANCH   8  11
ATOM     11  C   UNL     1      33.418 -11.250 -23.980  0.00  0.00    +0.117 C 
BRANCH  11  13
ATOM     12  F   UNL     1      33.283  -6.166 -21.584  0.00  0.00    -0.205 F 
ATOM     13  C   UNL     1      33.385  -9.891 -23.342  0.00  0.00    -0.003 C 
ATOM     14  C   UNL     1      34.449  -9.017 -23.527  0.00  0.00    -0.005 C 
ATOM     15  C   UNL     1      34.418  -7.755 -22.934  0.00  0.00    +0.005 C 
ATOM     16  C   UNL     1      32.289  -9.521 -22.570  0.00  0.00    -0.000 C 
ATOM     17  C   UNL     1      33.322  -7.375 -22.158  0.00  0.00    +0.136 C 
ATOM     18  C   UNL     1      32.257  -8.258 -21.978  0.00  0.00    +0.029 C 
ATOM     19  C   UNL     1      35.557  -6.813 -23.131  0.00  0.00    +0.033 C 
ENDBRANCH  11  13
ENDBRANCH   8  11
ENDBRANCH   3   9
BRANCH   4  22
ATOM     20  O   UNL     1      35.883 -18.323 -22.862  0.00  0.00    -0.269 OA
ATOM     21  N   UNL     1      35.758 -18.710 -20.578  0.00  0.00    -0.296 N 
ATOM     22  C   UNL     1      35.605 -17.945 -21.726  0.00  0.00    +0.260 C 
ATOM     23  H   UNL     1      35.508 -18.317 -19.711  0.00  0.00    +0.150 HD
BRANCH  21  24
ATOM     24  C   UNL     1      36.270 -20.056 -20.606  0.00  0.00    +0.117 C 
BRANCH  24  26
ATOM     25  F   UNL     1      34.206 -23.209 -16.434  0.00  0.00    -0.205 F 
ATOM     26  C   UNL     1      35.725 -20.893 -19.497  0.00  0.00    -0.003 C 
ATOM     27  C   UNL     1      36.537 -21.233 -18.415  0.00  0.00    -0.005 C 
ATOM     28  C   UNL     1      36.027 -22.015 -17.379  0.00  0.00    +0.005 C 
ATOM     29  C   UNL     1      34.403 -21.335 -19.542  0.00  0.00    -0.000 C 
ATOM     30  C   UNL     1      34.705 -22.457 -17.425  0.00  0.00    +0.136 C 
ATOM     31  C   UNL     1      33.893 -22.118 -18.507  0.00  0.00    +0.029 C 
ATOM     32  C   UNL     1      36.898 -22.376 -16.223  0.00  0.00    +0.033 C 
ENDBRANCH  24  26
ENDBRANCH  21  24
ENDBRANCH   4  22
TORSDOF 6
ENDMDL
MODEL 8
REMARK VINA RESULT:     -11.9      2.969      4.219
REMARK  Name = 5289110
REMARK  6 active torsions:
REMARK  status: ('A' for Active; 'I' for Inactive)
REMARK    1  A    between atoms: C_3  and  C_9
REMARK    2  A    between atoms: C_4  and  C_22
REMARK    3  A    between atoms: N_8  and  C_11
REMARK    4  A    between atoms: C_11  and  C_13
REMARK    5  A    between atoms: N_21  and  C_24
REMARK    6  A    between atoms: C_24  and  C_26
REMARK                            x       y       z     vdW  Elec       q    Type
REMARK                         _______ _______ _______ _____ _____    ______ ____
ROOT
ATOM      1  N   UNL     1      34.422 -15.889 -23.841  0.00  0.00    -0.244 NA
ATOM      2  N   UNL     1      33.160 -13.875 -24.239  0.00  0.00    -0.244 NA
ATOM      3  C   UNL     1      34.525 -15.525 -22.546  0.00  0.00    +0.115 C 
ATOM      4  C   UNL     1      33.315 -13.601 -22.941  0.00  0.00    +0.115 C 
ATOM      5  C   UNL     1      33.979 -14.367 -22.029  0.00  0.00    +0.100 C 
ATOM      6  C   UNL     1      33.737 -15.030 -24.620  0.00  0.00    +0.250 C 
ENDROOT
BRANCH   3   9
ATOM      7  O   UNL     1      35.274 -16.275 -20.455  0.00  0.00    -0.269 OA
ATOM      8  N   UNL     1      35.922 -17.503 -22.311  0.00  0.00    -0.296 N 
ATOM      9  C   UNL     1      35.260 -16.437 -21.688  0.00  0.00    +0.260 C 
ATOM     10  H   UNL     1      35.870 -17.572 -23.292  0.00  0.00    +0.150 HD
BRANCH   8  11
ATOM     11  C   UNL     1      36.675 -18.506 -21.594  0.00  0.00    +0.117 C 
BRANCH  11  13
ATOM     12  F   UNL     1      33.318 -22.034 -18.784  0.00  0.00    -0.205 F 
ATOM     13  C   UNL     1      35.781 -19.449 -20.841  0.00  0.00    -0.003 C 
ATOM     14  C   UNL     1      36.306 -20.225 -19.816  0.00  0.00    -0.005 C 
ATOM     15  C   UNL     1      35.476 -21.100 -19.116  0.00  0.00    +0.005 C 
ATOM     16  C   UNL     1      34.435 -19.537 -21.179  0.00  0.00    -0.000 C 
ATOM     17  C   UNL     1      34.124 -21.194 -19.449  0.00  0.00    +0.136 C 
ATOM     18  C   UNL     1      33.604 -20.412 -20.480  0.00  0.00    +0.029 C 
ATOM     19  C   UNL     1      36.035 -21.934 -18.013  0.00  0.00    +0.033 C 
ENDBRANCH  11  13
ENDBRANCH   8  11
ENDBRANCH   3   9
BRANCH   4  22
ATOM     20  O   UNL     1      32.229 -12.249 -21.362  0.00  0.00    -0.269 OA
ATOM     21  N   UNL     1      32.689 -11.296 -23.426  0.00  0.00    -0.296 N 
ATOM     22  C   UNL     1      32.687 -12.329 -22.500  0.00  0.00    +0.260 C 
ATOM     23  H   UNL     1      33.081 -11.457 -24.315  0.00  0.00    +0.150 HD
BRANCH  21  24
ATOM     24  C   UNL     1      32.139  -9.995 -23.139  0.00  0.00    +0.117 C 
BRANCH  24  26
ATOM     25  F   UNL     1      35.843  -5.869 -24.067  0.00  0.00    -0.205 F 
ATOM     26  C   UNL     1      33.119  -8.898 -23.386  0.00  0.00    -0.003 C 
ATOM     27  C   UNL     1      32.668  -7.608 -23.663  0.00  0.00    -0.005 C 
ATOM     28  C   UNL     1      33.585  -6.582 -23.893  0.00  0.00    +0.005 C 
ATOM     29  C   UNL     1      34.488  -9.162 -23.338  0.00  0.00    -0.000 C 
ATOM     30  C   UNL     1      34.954  -6.848 -23.846  0.00  0.00    +0.136 C 
ATOM     31  C   UNL     1      35.405  -8.138 -23.570  0.00  0.00    +0.029 C 
ATOM     32  C   UNL     1      33.099  -5.204 -24.189  0.00  0.00    +0.033 C 
ENDBRANCH  24  26
ENDBRANCH  21  24
ENDBRANCH   4  22
TORSDOF 6
ENDMDL
MODEL 9
REMARK VINA RESULT:     -11.8      2.144      3.652
REMARK  Name = 5289110
REMARK  6 active torsions:
REMARK  status: ('A' for Active; 'I' for Inactive)
REMARK    1  A    between atoms: C_3  and  C_9
REMARK    2  A    between atoms: C_4  and  C_22
REMARK    3  A    between atoms: N_8  and  C_11
REMARK    4  A    between atoms: C_11  and  C_13
REMARK    5  A    between atoms: N_21  and  C_24
REMARK    6  A    between atoms: C_24  and  C_26
REMARK                            x       y       z     vdW  Elec       q    Type
REMARK                         _______ _______ _______ _____ _____    ______ ____
ROOT
ATOM      1  N   UNL     1      36.029 -20.641 -19.294  0.00  0.00    -0.244 NA
ATOM      2  N   UNL     1      36.670 -18.943 -20.880  0.00  0.00    -0.244 NA
ATOM      3  C   UNL     1      34.794 -20.629 -19.836  0.00  0.00    +0.115 C 
ATOM      4  C   UNL     1      35.421 -19.003 -21.349  0.00  0.00    +0.115 C 
ATOM      5  C   UNL     1      34.426 -19.814 -20.888  0.00  0.00    +0.100 C 
ATOM      6  C   UNL     1      36.904 -19.785 -19.856  0.00  0.00    +0.250 C 
ENDROOT
BRANCH   3   9
ATOM      7  O   UNL     1      32.712 -21.705 -19.759  0.00  0.00    -0.269 OA
ATOM      8  N   UNL     1      34.241 -22.241 -18.101  0.00  0.00    -0.296 N 
ATOM      9  C   UNL     1      33.834 -21.545 -19.246  0.00  0.00    +0.260 C 
ATOM     10  H   UNL     1      35.142 -22.066 -17.746  0.00  0.00    +0.150 HD
BRANCH   8  11
ATOM     11  C   UNL     1      33.410 -23.202 -17.411  0.00  0.00    +0.117 C 
BRANCH  11  13
ATOM     12  F   UNL     1      34.971 -23.885 -12.053  0.00  0.00    -0.205 F 
ATOM     13  C   UNL     1      33.830 -23.383 -15.981  0.00  0.00    -0.003 C 
ATOM     14  C   UNL     1      35.168 -23.239 -15.632  0.00  0.00    -0.005 C 
ATOM     15  C   UNL     1      35.557 -23.407 -14.303  0.00  0.00    +0.005 C 
ATOM     16  C   UNL     1      32.876 -23.695 -15.019  0.00  0.00    -0.000 C 
ATOM     17  C   UNL     1      34.606 -23.720 -13.332  0.00  0.00    +0.136 C 
ATOM     18  C   UNL     1      33.266 -23.863 -13.690  0.00  0.00    +0.029 C 
ATOM     19  C   UNL     1      36.992 -23.251 -13.924  0.00  0.00    +0.033 C 
ENDBRANCH  11  13
ENDBRANCH   8  11
ENDBRANCH   3   9
BRANCH   4  22
ATOM     20  O   UNL     1      34.628 -18.524 -23.503  0.00  0.00    -0.269 OA
ATOM     21  N   UNL     1      35.468 -16.748 -22.271  0.00  0.00    -0.296 N 
ATOM     22  C   UNL     1      35.141 -18.080 -22.478  0.00  0.00    +0.260 C 
ATOM     23  H   UNL     1      35.876 -16.488 -21.413  0.00  0.00    +0.150 HD
BRANCH  21  24
ATOM     24  C   UNL     1      35.235 -15.728 -23.262  0.00  0.00    +0.117 C 
BRANCH  24  26
ATOM     25  F   UNL     1      31.436 -11.936 -21.590  0.00  0.00    -0.205 F 
ATOM     26  C   UNL     1      34.227 -14.723 -22.815  0.00  0.00    -0.003 C 
ATOM     27  C   UNL     1      33.785 -14.719 -21.493  0.00  0.00    -0.005 C 
ATOM     28  C   UNL     1      32.842 -13.779 -21.076  0.00  0.00    +0.005 C 
ATOM     29  C   UNL     1      33.727 -13.787 -23.720  0.00  0.00    -0.000 C 
ATOM     30  C   UNL     1      32.342 -12.843 -21.981  0.00  0.00    +0.136 C 
ATOM     31  C   UNL     1      32.784 -12.848 -23.304  0.00  0.00    +0.029 C 
ATOM     32  C   UNL     1      32.372 -13.777 -19.660  0.00  0.00    +0.033 C 
ENDBRANCH  24  26
ENDBRANCH  21  24
ENDBRANCH   4  22
TORSDOF 6
ENDMDL
