MODEL 1
REMARK VINA RESULT:     -11.0      0.000      0.000
REMARK  Name = 11441375
REMARK  6 active torsions:
REMARK  status: ('A' for Active; 'I' for Inactive)
REMARK    1  A    between atoms: C_1  and  C_13
REMARK    2  A    between atoms: C_9  and  O_18
REMARK    3  A    between atoms: N_12  and  C_15
REMARK    4  A    between atoms: O_18  and  C_21
REMARK    5  A    between atoms: C_24  and  O_29
REMARK    6  A    between atoms: C_27  and  O_31
REMARK                            x       y       z     vdW  Elec       q    Type
REMARK                         _______ _______ _______ _____ _____    ______ ____
ROOT
ATOM      1  C   UNL     1      35.628 -18.375 -21.752  0.00  0.00    +0.053 C 
ATOM      2  C   UNL     1      34.955 -19.348 -20.994  0.00  0.00    +0.005 C 
ATOM      3  C   UNL     1      37.017 -18.264 -21.697  0.00  0.00    +0.005 C 
ATOM      4  C   UNL     1      35.704 -20.219 -20.168  0.00  0.00    +0.003 C 
ATOM      5  C   UNL     1      33.558 -19.473 -21.038  0.00  0.00    +0.003 C 
ATOM      6  C   UNL     1      37.752 -19.122 -20.884  0.00  0.00    +0.000 C 
ATOM      7  C   UNL     1      37.101 -20.094 -20.123  0.00  0.00    +0.000 C 
ATOM      8  C   UNL     1      35.031 -21.192 -19.410  0.00  0.00    +0.037 C 
ATOM      9  C   UNL     1      33.642 -21.304 -19.466  0.00  0.00    +0.145 C 
ATOM     10  C   UNL     1      32.907 -20.446 -20.278  0.00  0.00    +0.037 C 
ENDROOT
BRANCH   1  13
ATOM     11  O   UNL     1      34.477 -17.823 -23.721  0.00  0.00    -0.270 OA
ATOM     12  N   UNL     1      34.812 -16.121 -22.184  0.00  0.00    -0.302 N 
ATOM     13  C   UNL     1      34.926 -17.441 -22.628  0.00  0.00    +0.246 C 
ATOM     14  H   UNL     1      35.193 -15.887 -21.306  0.00  0.00    +0.150 HD
BRANCH  12  15
ATOM     15  C   UNL     1      34.168 -15.088 -22.946  0.00  0.00    +0.072 C 
ATOM     16  C   UNL     1      34.552 -13.656 -22.766  0.00  0.00    +0.021 C 
ATOM     17  C   UNL     1      33.212 -14.142 -22.297  0.00  0.00    +0.021 C 
ENDBRANCH  12  15
ENDBRANCH   1  13
BRANCH   9  18
ATOM     18  O   UNL     1      33.005 -22.253 -18.727  0.00  0.00    -0.453 OA
BRANCH  18  21
ATOM     19  N   UNL     1      34.708 -23.241 -15.077  0.00  0.00    -0.244 NA
ATOM     20  C   UNL     1      32.735 -22.838 -16.400  0.00  0.00    +0.055 C 
ATOM     21  C   UNL     1      33.550 -22.584 -17.498  0.00  0.00    +0.148 C 
ATOM     22  C   UNL     1      33.367 -23.170 -15.184  0.00  0.00    +0.087 C 
ATOM     23  C   UNL     1      31.333 -22.773 -16.475  0.00  0.00    +0.045 C 
ATOM     24  C   UNL     1      30.554 -23.034 -15.352  0.00  0.00    +0.173 C 
ATOM     25  C   UNL     1      34.923 -22.653 -17.408  0.00  0.00    +0.058 C 
ATOM     26  C   UNL     1      32.564 -23.426 -14.076  0.00  0.00    +0.059 C 
ATOM     27  C   UNL     1      31.170 -23.361 -14.150  0.00  0.00    +0.174 C 
ATOM     28  C   UNL     1      35.452 -22.985 -16.177  0.00  0.00    +0.102 C 
BRANCH  24  29
ATOM     29  O   UNL     1      29.197 -22.967 -15.441  0.00  0.00    -0.468 OA
ATOM     30  C   UNL     1      28.533 -24.067 -16.061  0.00  0.00    +0.253 C 
ENDBRANCH  24  29
BRANCH  27  31
ATOM     31  O   UNL     1      30.428 -23.622 -13.039  0.00  0.00    -0.468 OA
ATOM     32  C   UNL     1      30.394 -24.973 -12.584  0.00  0.00    +0.253 C 
ENDBRANCH  27  31
ENDBRANCH  18  21
ENDBRANCH   9  18
TORSDOF 6
ENDMDL
MODEL 2
REMARK VINA RESULT:     -10.9      4.625     11.532
REMARK  Name = 11441375
REMARK  6 active torsions:
REMARK  status: ('A' for Active; 'I' for Inactive)
REMARK    1  A    between atoms: C_1  and  C_13
REMARK    2  A    between atoms: C_9  and  O_18
REMARK    3  A    between atoms: N_12  and  C_15
REMARK    4  A    between atoms: O_18  and  C_21
REMARK    5  A    between atoms: C_24  and  O_29
REMARK    6  A    between atoms: C_27  and  O_31
REMARK                            x       y       z     vdW  Elec       q    Type
REMARK                         _______ _______ _______ _____ _____    ______ ____
ROOT
ATOM      1  C   UNL     1      35.111 -18.403 -22.286  0.00  0.00    +0.053 C 
ATOM      2  C   UNL     1      34.874 -17.029 -22.463  0.00  0.00    +0.005 C 
ATOM      3  C   UNL     1      34.877 -19.305 -23.324  0.00  0.00    +0.005 C 
ATOM      4  C   UNL     1      34.394 -16.566 -23.711  0.00  0.00    +0.003 C 
ATOM      5  C   UNL     1      35.104 -16.108 -21.430  0.00  0.00    +0.003 C 
ATOM      6  C   UNL     1      34.404 -18.849 -24.550  0.00  0.00    +0.000 C 
ATOM      7  C   UNL     1      34.163 -17.488 -24.744  0.00  0.00    +0.000 C 
ATOM      8  C   UNL     1      34.157 -15.193 -23.888  0.00  0.00    +0.037 C 
ATOM      9  C   UNL     1      34.392 -14.290 -22.851  0.00  0.00    +0.145 C 
ATOM     10  C   UNL     1      34.864 -14.747 -21.624  0.00  0.00    +0.037 C 
ENDROOT
BRANCH   1  13
ATOM     11  O   UNL     1      36.609 -18.469 -20.481  0.00  0.00    -0.270 OA
ATOM     12  N   UNL     1      34.918 -20.054 -20.506  0.00  0.00    -0.302 N 
ATOM     13  C   UNL     1      35.607 -18.957 -21.030  0.00  0.00    +0.246 C 
ATOM     14  H   UNL     1      34.131 -20.390 -20.994  0.00  0.00    +0.150 HD
BRANCH  12  15
ATOM     15  C   UNL     1      35.302 -20.716 -19.291  0.00  0.00    +0.072 C 
ATOM     16  C   UNL     1      36.456 -21.665 -19.272  0.00  0.00    +0.021 C 
ATOM     17  C   UNL     1      35.055 -22.177 -19.106  0.00  0.00    +0.021 C 
ENDBRANCH  12  15
ENDBRANCH   1  13
BRANCH   9  18
ATOM     18  O   UNL     1      34.160 -12.962 -23.038  0.00  0.00    -0.453 OA
BRANCH  18  21
ATOM     19  N   UNL     1      31.067 -11.288 -20.841  0.00  0.00    -0.244 NA
ATOM     20  C   UNL     1      32.907 -11.009 -22.372  0.00  0.00    +0.055 C 
ATOM     21  C   UNL     1      33.133 -12.380 -22.313  0.00  0.00    +0.148 C 
ATOM     22  C   UNL     1      31.842 -10.494 -21.604  0.00  0.00    +0.087 C 
ATOM     23  C   UNL     1      33.695 -10.151 -23.157  0.00  0.00    +0.045 C 
ATOM     24  C   UNL     1      33.434  -8.784 -23.186  0.00  0.00    +0.173 C 
ATOM     25  C   UNL     1      32.351 -13.209 -21.539  0.00  0.00    +0.058 C 
ATOM     26  C   UNL     1      31.603  -9.123 -21.653  0.00  0.00    +0.059 C 
ATOM     27  C   UNL     1      32.386  -8.269 -22.433  0.00  0.00    +0.174 C 
ATOM     28  C   UNL     1      31.332 -12.613 -20.823  0.00  0.00    +0.102 C 
BRANCH  24  29
ATOM     29  O   UNL     1      34.207  -7.966 -23.953  0.00  0.00    -0.468 OA
ATOM     30  C   UNL     1      35.380  -7.426 -23.346  0.00  0.00    +0.253 C 
ENDBRANCH  24  29
BRANCH  27  31
ATOM     31  O   UNL     1      32.112  -6.936 -22.447  0.00  0.00    -0.468 OA
ATOM     32  C   UNL     1      32.266  -6.228 -21.219  0.00  0.00    +0.253 C 
ENDBRANCH  27  31
ENDBRANCH  18  21
ENDBRANCH   9  18
TORSDOF 6
ENDMDL
MODEL 3
REMARK VINA RESULT:     -10.8      7.046     12.245
REMARK  Name = 11441375
REMARK  6 active torsions:
REMARK  status: ('A' for Active; 'I' for Inactive)
REMARK    1  A    between atoms: C_1  and  C_13
REMARK    2  A    between atoms: C_9  and  O_18
REMARK    3  A    between atoms: N_12  and  C_15
REMARK    4  A    between atoms: O_18  and  C_21
REMARK    5  A    between atoms: C_24  and  O_29
REMARK    6  A    between atoms: C_27  and  O_31
REMARK                            x       y       z     vdW  Elec       q    Type
REMARK                         _______ _______ _______ _____ _____    ______ ____
ROOT
ATOM      1  C   UNL     1      33.205  -6.117 -23.872  0.00  0.00    +0.053 C 
ATOM      2  C   UNL     1      32.723  -7.406 -23.587  0.00  0.00    +0.005 C 
ATOM      3  C   UNL     1      34.575  -5.875 -23.970  0.00  0.00    +0.005 C 
ATOM      4  C   UNL     1      33.645  -8.462 -23.399  0.00  0.00    +0.003 C 
ATOM      5  C   UNL     1      31.348  -7.667 -23.485  0.00  0.00    +0.003 C 
ATOM      6  C   UNL     1      35.481  -6.914 -23.785  0.00  0.00    +0.000 C 
ATOM      7  C   UNL     1      35.021  -8.201 -23.500  0.00  0.00    +0.000 C 
ATOM      8  C   UNL     1      33.164  -9.751 -23.113  0.00  0.00    +0.037 C 
ATOM      9  C   UNL     1      31.794  -9.994 -23.016  0.00  0.00    +0.145 C 
ATOM     10  C   UNL     1      30.887  -8.954 -23.201  0.00  0.00    +0.037 C 
ENDROOT
BRANCH   1  13
ATOM     11  O   UNL     1      31.938  -4.678 -25.224  0.00  0.00    -0.270 OA
ATOM     12  N   UNL     1      31.946  -4.249 -22.947  0.00  0.00    -0.302 N 
ATOM     13  C   UNL     1      32.317  -4.977 -24.080  0.00  0.00    +0.246 C 
ATOM     14  H   UNL     1      32.285  -4.542 -22.069  0.00  0.00    +0.150 HD
BRANCH  12  15
ATOM     15  C   UNL     1      31.097  -3.092 -22.999  0.00  0.00    +0.072 C 
ATOM     16  C   UNL     1      31.518  -1.807 -22.364  0.00  0.00    +0.021 C 
ATOM     17  C   UNL     1      30.392  -2.605 -21.776  0.00  0.00    +0.021 C 
ENDBRANCH  12  15
ENDBRANCH   1  13
BRANCH   9  18
ATOM     18  O   UNL     1      31.342 -11.248 -22.742  0.00  0.00    -0.453 OA
BRANCH  18  21
ATOM     19  N   UNL     1      32.997 -13.192 -19.473  0.00  0.00    -0.244 NA
ATOM     20  C   UNL     1      32.753 -13.000 -21.863  0.00  0.00    +0.055 C 
ATOM     21  C   UNL     1      31.907 -11.913 -21.666  0.00  0.00    +0.148 C 
ATOM     22  C   UNL     1      33.286 -13.623 -20.716  0.00  0.00    +0.087 C 
ATOM     23  C   UNL     1      33.077 -13.475 -23.144  0.00  0.00    +0.045 C 
ATOM     24  C   UNL     1      33.928 -14.566 -23.296  0.00  0.00    +0.173 C 
ATOM     25  C   UNL     1      31.598 -11.458 -20.403  0.00  0.00    +0.058 C 
ATOM     26  C   UNL     1      34.135 -14.711 -20.897  0.00  0.00    +0.059 C 
ATOM     27  C   UNL     1      34.458 -15.185 -22.171  0.00  0.00    +0.174 C 
ATOM     28  C   UNL     1      32.168 -12.131 -19.341  0.00  0.00    +0.102 C 
BRANCH  24  29
ATOM     29  O   UNL     1      34.233 -15.015 -24.545  0.00  0.00    -0.468 OA
ATOM     30  C   UNL     1      33.253 -14.816 -25.563  0.00  0.00    +0.253 C 
ENDBRANCH  24  29
BRANCH  27  31
ATOM     31  O   UNL     1      35.293 -16.253 -22.295  0.00  0.00    -0.468 OA
ATOM     32  C   UNL     1      35.290 -17.207 -21.235  0.00  0.00    +0.253 C 
ENDBRANCH  27  31
ENDBRANCH  18  21
ENDBRANCH   9  18
TORSDOF 6
ENDMDL
MODEL 4
REMARK VINA RESULT:     -10.8      2.173      9.319
REMARK  Name = 11441375
REMARK  6 active torsions:
REMARK  status: ('A' for Active; 'I' for Inactive)
REMARK    1  A    between atoms: C_1  and  C_13
REMARK    2  A    between atoms: C_9  and  O_18
REMARK    3  A    between atoms: N_12  and  C_15
REMARK    4  A    between atoms: O_18  and  C_21
REMARK    5  A    between atoms: C_24  and  O_29
REMARK    6  A    between atoms: C_27  and  O_31
REMARK                            x       y       z     vdW  Elec       q    Type
REMARK                         _______ _______ _______ _____ _____    ______ ____
ROOT
ATOM      1  C   UNL     1      34.780 -22.584 -17.291  0.00  0.00    +0.053 C 
ATOM      2  C   UNL     1      35.169 -21.661 -18.277  0.00  0.00    +0.005 C 
ATOM      3  C   UNL     1      35.644 -22.917 -16.248  0.00  0.00    +0.005 C 
ATOM      4  C   UNL     1      36.452 -21.069 -18.202  0.00  0.00    +0.003 C 
ATOM      5  C   UNL     1      34.312 -21.314 -19.333  0.00  0.00    +0.003 C 
ATOM      6  C   UNL     1      36.906 -22.335 -16.175  0.00  0.00    +0.000 C 
ATOM      7  C   UNL     1      37.309 -21.416 -17.146  0.00  0.00    +0.000 C 
ATOM      8  C   UNL     1      36.840 -20.147 -19.187  0.00  0.00    +0.037 C 
ATOM      9  C   UNL     1      35.976 -19.812 -20.230  0.00  0.00    +0.145 C 
ATOM     10  C   UNL     1      34.715 -20.395 -20.303  0.00  0.00    +0.037 C 
ENDROOT
BRANCH   1  13
ATOM     11  O   UNL     1      33.243 -24.169 -18.084  0.00  0.00    -0.270 OA
ATOM     12  N   UNL     1      32.516 -22.744 -16.408  0.00  0.00    -0.302 N 
ATOM     13  C   UNL     1      33.473 -23.235 -17.299  0.00  0.00    +0.246 C 
ATOM     14  H   UNL     1      32.767 -22.000 -15.813  0.00  0.00    +0.150 HD
BRANCH  12  15
ATOM     15  C   UNL     1      31.183 -23.270 -16.318  0.00  0.00    +0.072 C 
ATOM     16  C   UNL     1      30.286 -22.884 -15.187  0.00  0.00    +0.021 C 
ATOM     17  C   UNL     1      30.829 -24.280 -15.276  0.00  0.00    +0.021 C 
ENDBRANCH  12  15
ENDBRANCH   1  13
BRANCH   9  18
ATOM     18  O   UNL     1      36.366 -18.915 -21.176  0.00  0.00    -0.453 OA
BRANCH  18  21
ATOM     19  N   UNL     1      34.183 -18.821 -24.700  0.00  0.00    -0.244 NA
ATOM     20  C   UNL     1      35.123 -17.651 -22.816  0.00  0.00    +0.055 C 
ATOM     21  C   UNL     1      35.634 -18.859 -22.350  0.00  0.00    +0.148 C 
ATOM     22  C   UNL     1      34.388 -17.678 -24.019  0.00  0.00    +0.087 C 
ATOM     23  C   UNL     1      35.318 -16.440 -22.131  0.00  0.00    +0.045 C 
ATOM     24  C   UNL     1      34.789 -15.255 -22.632  0.00  0.00    +0.173 C 
ATOM     25  C   UNL     1      35.434 -20.038 -23.033  0.00  0.00    +0.058 C 
ATOM     26  C   UNL     1      33.870 -16.478 -24.497  0.00  0.00    +0.059 C 
ATOM     27  C   UNL     1      34.064 -15.273 -23.817  0.00  0.00    +0.174 C 
ATOM     28  C   UNL     1      34.703 -19.966 -24.201  0.00  0.00    +0.102 C 
BRANCH  24  29
ATOM     29  O   UNL     1      34.987 -14.089 -21.956  0.00  0.00    -0.468 OA
ATOM     30  C   UNL     1      34.520 -14.032 -20.609  0.00  0.00    +0.253 C 
ENDBRANCH  24  29
BRANCH  27  31
ATOM     31  O   UNL     1      33.538 -14.125 -24.326  0.00  0.00    -0.468 OA
ATOM     32  C   UNL     1      33.045 -14.175 -25.663  0.00  0.00    +0.253 C 
ENDBRANCH  27  31
ENDBRANCH  18  21
ENDBRANCH   9  18
TORSDOF 6
ENDMDL
MODEL 5
REMARK VINA RESULT:     -10.7      5.870     12.646
REMARK  Name = 11441375
REMARK  6 active torsions:
REMARK  status: ('A' for Active; 'I' for Inactive)
REMARK    1  A    between atoms: C_1  and  C_13
REMARK    2  A    between atoms: C_9  and  O_18
REMARK    3  A    between atoms: N_12  and  C_15
REMARK    4  A    between atoms: O_18  and  C_21
REMARK    5  A    between atoms: C_24  and  O_29
REMARK    6  A    between atoms: C_27  and  O_31
REMARK                            x       y       z     vdW  Elec       q    Type
REMARK                         _______ _______ _______ _____ _____    ______ ____
ROOT
ATOM      1  C   UNL     1      34.352 -15.399 -22.278  0.00  0.00    +0.053 C 
ATOM      2  C   UNL     1      33.485 -14.322 -22.029  0.00  0.00    +0.005 C 
ATOM      3  C   UNL     1      34.682 -15.760 -23.585  0.00  0.00    +0.005 C 
ATOM      4  C   UNL     1      32.946 -13.602 -23.121  0.00  0.00    +0.003 C 
ATOM      5  C   UNL     1      33.143 -13.946 -20.721  0.00  0.00    +0.003 C 
ATOM      6  C   UNL     1      34.152 -15.051 -24.658  0.00  0.00    +0.000 C 
ATOM      7  C   UNL     1      33.289 -13.978 -24.430  0.00  0.00    +0.000 C 
ATOM      8  C   UNL     1      32.079 -12.525 -22.872  0.00  0.00    +0.037 C 
ATOM      9  C   UNL     1      31.750 -12.163 -21.566  0.00  0.00    +0.145 C 
ATOM     10  C   UNL     1      32.280 -12.873 -20.492  0.00  0.00    +0.037 C 
ENDROOT
BRANCH   1  13
ATOM     11  O   UNL     1      34.996 -15.742 -20.048  0.00  0.00    -0.270 OA
ATOM     12  N   UNL     1      35.469 -17.438 -21.554  0.00  0.00    -0.302 N 
ATOM     13  C   UNL     1      34.949 -16.190 -21.206  0.00  0.00    +0.246 C 
ATOM     14  H   UNL     1      35.398 -17.731 -22.492  0.00  0.00    +0.150 HD
BRANCH  12  15
ATOM     15  C   UNL     1      36.104 -18.316 -20.610  0.00  0.00    +0.072 C 
ATOM     16  C   UNL     1      37.257 -19.171 -21.022  0.00  0.00    +0.021 C 
ATOM     17  C   UNL     1      35.930 -19.796 -20.707  0.00  0.00    +0.021 C 
ENDBRANCH  12  15
ENDBRANCH   1  13
BRANCH   9  18
ATOM     18  O   UNL     1      30.910 -11.116 -21.340  0.00  0.00    -0.453 OA
BRANCH  18  21
ATOM     19  N   UNL     1      32.256  -8.109 -18.822  0.00  0.00    -0.244 NA
ATOM     20  C   UNL     1      31.596  -8.822 -21.026  0.00  0.00    +0.055 C 
ATOM     21  C   UNL     1      31.360 -10.096 -20.519  0.00  0.00    +0.148 C 
ATOM     22  C   UNL     1      32.052  -7.839 -20.125  0.00  0.00    +0.087 C 
ATOM     23  C   UNL     1      31.393  -8.505 -22.380  0.00  0.00    +0.045 C 
ATOM     24  C   UNL     1      31.641  -7.217 -22.846  0.00  0.00    +0.173 C 
ATOM     25  C   UNL     1      31.563 -10.392 -19.189  0.00  0.00    +0.058 C 
ATOM     26  C   UNL     1      32.292  -6.559 -20.618  0.00  0.00    +0.059 C 
ATOM     27  C   UNL     1      32.091  -6.242 -21.964  0.00  0.00    +0.174 C 
ATOM     28  C   UNL     1      32.011  -9.365 -18.383  0.00  0.00    +0.102 C 
BRANCH  24  29
ATOM     29  O   UNL     1      31.439  -6.925 -24.161  0.00  0.00    -0.468 OA
ATOM     30  C   UNL     1      32.572  -7.011 -25.025  0.00  0.00    +0.253 C 
ENDBRANCH  24  29
BRANCH  27  31
ATOM     31  O   UNL     1      32.339  -4.976 -22.398  0.00  0.00    -0.468 OA
ATOM     32  C   UNL     1      31.393  -3.971 -22.039  0.00  0.00    +0.253 C 
ENDBRANCH  27  31
ENDBRANCH  18  21
ENDBRANCH   9  18
TORSDOF 6
ENDMDL
MODEL 6
REMARK VINA RESULT:     -10.6      2.231      3.391
REMARK  Name = 11441375
REMARK  6 active torsions:
REMARK  status: ('A' for Active; 'I' for Inactive)
REMARK    1  A    between atoms: C_1  and  C_13
REMARK    2  A    between atoms: C_9  and  O_18
REMARK    3  A    between atoms: N_12  and  C_15
REMARK    4  A    between atoms: O_18  and  C_21
REMARK    5  A    between atoms: C_24  and  O_29
REMARK    6  A    between atoms: C_27  and  O_31
REMARK                            x       y       z     vdW  Elec       q    Type
REMARK                         _______ _______ _______ _____ _____    ______ ____
ROOT
ATOM      1  C   UNL     1      35.542 -19.368 -20.552  0.00  0.00    +0.053 C 
ATOM      2  C   UNL     1      34.853 -20.391 -19.878  0.00  0.00    +0.005 C 
ATOM      3  C   UNL     1      36.932 -19.277 -20.477  0.00  0.00    +0.005 C 
ATOM      4  C   UNL     1      35.585 -21.332 -19.118  0.00  0.00    +0.003 C 
ATOM      5  C   UNL     1      33.455 -20.497 -19.944  0.00  0.00    +0.003 C 
ATOM      6  C   UNL     1      37.651 -20.204 -19.729  0.00  0.00    +0.000 C 
ATOM      7  C   UNL     1      36.983 -21.226 -19.052  0.00  0.00    +0.000 C 
ATOM      8  C   UNL     1      34.896 -22.355 -18.444  0.00  0.00    +0.037 C 
ATOM      9  C   UNL     1      33.506 -22.447 -18.520  0.00  0.00    +0.145 C 
ATOM     10  C   UNL     1      32.787 -21.520 -19.269  0.00  0.00    +0.037 C 
ENDROOT
BRANCH   1  13
ATOM     11  O   UNL     1      34.300 -18.679 -22.420  0.00  0.00    -0.270 OA
ATOM     12  N   UNL     1      34.886 -17.046 -20.884  0.00  0.00    -0.302 N 
ATOM     13  C   UNL     1      34.858 -18.360 -21.357  0.00  0.00    +0.246 C 
ATOM     14  H   UNL     1      35.347 -16.864 -20.032  0.00  0.00    +0.150 HD
BRANCH  12  15
ATOM     15  C   UNL     1      34.275 -15.947 -21.578  0.00  0.00    +0.072 C 
ATOM     16  C   UNL     1      35.035 -15.182 -22.611  0.00  0.00    +0.021 C 
ATOM     17  C   UNL     1      34.692 -14.541 -21.299  0.00  0.00    +0.021 C 
ENDBRANCH  12  15
ENDBRANCH   1  13
BRANCH   9  18
ATOM     18  O   UNL     1      32.853 -23.444 -17.864  0.00  0.00    -0.453 OA
BRANCH  18  21
ATOM     19  N   UNL     1      31.733 -22.748 -13.932  0.00  0.00    -0.244 NA
ATOM     20  C   UNL     1      33.359 -23.574 -15.506  0.00  0.00    +0.055 C 
ATOM     21  C   UNL     1      32.501 -23.222 -16.543  0.00  0.00    +0.148 C 
ATOM     22  C   UNL     1      32.927 -23.315 -14.189  0.00  0.00    +0.087 C 
ATOM     23  C   UNL     1      34.612 -24.167 -15.738  0.00  0.00    +0.045 C 
ATOM     24  C   UNL     1      35.439 -24.504 -14.671  0.00  0.00    +0.173 C 
ATOM     25  C   UNL     1      31.276 -22.641 -16.300  0.00  0.00    +0.058 C 
ATOM     26  C   UNL     1      33.775 -23.662 -13.141  0.00  0.00    +0.059 C 
ATOM     27  C   UNL     1      35.021 -24.251 -13.370  0.00  0.00    +0.174 C 
ATOM     28  C   UNL     1      30.939 -22.425 -14.979  0.00  0.00    +0.102 C 
BRANCH  24  29
ATOM     29  O   UNL     1      36.651 -25.077 -14.912  0.00  0.00    -0.468 OA
ATOM     30  C   UNL     1      36.730 -26.498 -14.801  0.00  0.00    +0.253 C 
ENDBRANCH  24  29
BRANCH  27  31
ATOM     31  O   UNL     1      35.814 -24.572 -12.312  0.00  0.00    -0.468 OA
ATOM     32  C   UNL     1      36.323 -23.492 -11.532  0.00  0.00    +0.253 C 
ENDBRANCH  27  31
ENDBRANCH  18  21
ENDBRANCH   9  18
TORSDOF 6
ENDMDL
MODEL 7
REMARK VINA RESULT:     -10.4      3.134      9.708
REMARK  Name = 11441375
REMARK  6 active torsions:
REMARK  status: ('A' for Active; 'I' for Inactive)
REMARK    1  A    between atoms: C_1  and  C_13
REMARK    2  A    between atoms: C_9  and  O_18
REMARK    3  A    between atoms: N_12  and  C_15
REMARK    4  A    between atoms: O_18  and  C_21
REMARK    5  A    between atoms: C_24  and  O_29
REMARK    6  A    between atoms: C_27  and  O_31
REMARK                            x       y       z     vdW  Elec       q    Type
REMARK                         _______ _______ _______ _____ _____    ______ ____
ROOT
ATOM      1  C   UNL     1      34.998 -22.087 -17.725  0.00  0.00    +0.053 C 
ATOM      2  C   UNL     1      35.367 -21.188 -18.739  0.00  0.00    +0.005 C 
ATOM      3  C   UNL     1      33.682 -22.541 -17.620  0.00  0.00    +0.005 C 
ATOM      4  C   UNL     1      34.388 -20.743 -19.658  0.00  0.00    +0.003 C 
ATOM      5  C   UNL     1      36.686 -20.722 -18.859  0.00  0.00    +0.003 C 
ATOM      6  C   UNL     1      32.720 -22.103 -18.525  0.00  0.00    +0.000 C 
ATOM      7  C   UNL     1      33.070 -21.209 -19.539  0.00  0.00    +0.000 C 
ATOM      8  C   UNL     1      34.758 -19.844 -20.672  0.00  0.00    +0.037 C 
ATOM      9  C   UNL     1      36.073 -19.391 -20.778  0.00  0.00    +0.145 C 
ATOM     10  C   UNL     1      37.035 -19.829 -19.873  0.00  0.00    +0.037 C 
ENDROOT
BRANCH   1  13
ATOM     11  O   UNL     1      37.167 -22.395 -16.885  0.00  0.00    -0.270 OA
ATOM     12  N   UNL     1      35.424 -23.311 -15.663  0.00  0.00    -0.302 N 
ATOM     13  C   UNL     1      35.949 -22.593 -16.740  0.00  0.00    +0.246 C 
ATOM     14  H   UNL     1      34.448 -23.431 -15.610  0.00  0.00    +0.150 HD
BRANCH  12  15
ATOM     15  C   UNL     1      36.240 -23.886 -14.629  0.00  0.00    +0.072 C 
ATOM     16  C   UNL     1      36.442 -25.363 -14.551  0.00  0.00    +0.021 C 
ATOM     17  C   UNL     1      35.622 -24.658 -13.510  0.00  0.00    +0.021 C 
ENDBRANCH  12  15
ENDBRANCH   1  13
BRANCH   9  18
ATOM     18  O   UNL     1      36.416 -18.521 -21.767  0.00  0.00    -0.453 OA
BRANCH  18  21
ATOM     19  N   UNL     1      33.810 -18.177 -24.974  0.00  0.00    -0.244 NA
ATOM     20  C   UNL     1      34.975 -17.148 -23.133  0.00  0.00    +0.055 C 
ATOM     21  C   UNL     1      35.543 -18.381 -22.833  0.00  0.00    +0.148 C 
ATOM     22  C   UNL     1      34.096 -17.089 -24.234  0.00  0.00    +0.087 C 
ATOM     23  C   UNL     1      35.251 -15.992 -22.383  0.00  0.00    +0.045 C 
ATOM     24  C   UNL     1      34.661 -14.777 -22.719  0.00  0.00    +0.173 C 
ATOM     25  C   UNL     1      35.263 -19.506 -23.577  0.00  0.00    +0.058 C 
ATOM     26  C   UNL     1      33.520 -15.861 -24.547  0.00  0.00    +0.059 C 
ATOM     27  C   UNL     1      33.793 -14.711 -23.802  0.00  0.00    +0.174 C 
ATOM     28  C   UNL     1      34.391 -19.351 -24.636  0.00  0.00    +0.102 C 
BRANCH  24  29
ATOM     29  O   UNL     1      34.939 -13.666 -21.982  0.00  0.00    -0.468 OA
ATOM     30  C   UNL     1      34.700 -13.742 -20.577  0.00  0.00    +0.253 C 
ENDBRANCH  24  29
BRANCH  27  31
ATOM     31  O   UNL     1      33.205 -13.533 -24.149  0.00  0.00    -0.468 OA
ATOM     32  C   UNL     1      32.225 -13.010 -23.255  0.00  0.00    +0.253 C 
ENDBRANCH  27  31
ENDBRANCH  18  21
ENDBRANCH   9  18
TORSDOF 6
ENDMDL
MODEL 8
REMARK VINA RESULT:     -10.2      7.255     12.489
REMARK  Name = 11441375
REMARK  6 active torsions:
REMARK  status: ('A' for Active; 'I' for Inactive)
REMARK    1  A    between atoms: C_1  and  C_13
REMARK    2  A    between atoms: C_9  and  O_18
REMARK    3  A    between atoms: N_12  and  C_15
REMARK    4  A    between atoms: O_18  and  C_21
REMARK    5  A    between atoms: C_24  and  O_29
REMARK    6  A    between atoms: C_27  and  O_31
REMARK                            x       y       z     vdW  Elec       q    Type
REMARK                         _______ _______ _______ _____ _____    ______ ____
ROOT
ATOM      1  C   UNL     1      33.490  -5.991 -24.328  0.00  0.00    +0.053 C 
ATOM      2  C   UNL     1      32.878  -7.189 -23.920  0.00  0.00    +0.005 C 
ATOM      3  C   UNL     1      34.875  -5.839 -24.257  0.00  0.00    +0.005 C 
ATOM      4  C   UNL     1      33.684  -8.246 -23.435  0.00  0.00    +0.003 C 
ATOM      5  C   UNL     1      31.486  -7.358 -23.984  0.00  0.00    +0.003 C 
ATOM      6  C   UNL     1      35.666  -6.880 -23.780  0.00  0.00    +0.000 C 
ATOM      7  C   UNL     1      35.076  -8.076 -23.370  0.00  0.00    +0.000 C 
ATOM      8  C   UNL     1      33.072  -9.443 -23.027  0.00  0.00    +0.037 C 
ATOM      9  C   UNL     1      31.687  -9.595 -23.098  0.00  0.00    +0.145 C 
ATOM     10  C   UNL     1      30.896  -8.555 -23.576  0.00  0.00    +0.037 C 
ENDROOT
BRANCH   1  13
ATOM     11  O   UNL     1      32.153  -4.082 -24.058  0.00  0.00    -0.270 OA
ATOM     12  N   UNL     1      32.667  -4.710 -26.228  0.00  0.00    -0.302 N 
ATOM     13  C   UNL     1      32.727  -4.857 -24.840  0.00  0.00    +0.246 C 
ATOM     14  H   UNL     1      33.147  -5.362 -26.790  0.00  0.00    +0.150 HD
BRANCH  12  15
ATOM     15  C   UNL     1      31.938  -3.656 -26.877  0.00  0.00    +0.072 C 
ATOM     16  C   UNL     1      31.659  -3.712 -28.343  0.00  0.00    +0.021 C 
ATOM     17  C   UNL     1      32.628  -2.705 -27.798  0.00  0.00    +0.021 C 
ENDBRANCH  12  15
ENDBRANCH   1  13
BRANCH   9  18
ATOM     18  O   UNL     1      31.110 -10.762 -22.701  0.00  0.00    -0.453 OA
BRANCH  18  21
ATOM     19  N   UNL     1      32.712 -12.656 -19.378  0.00  0.00    -0.244 NA
ATOM     20  C   UNL     1      32.491 -12.512 -21.773  0.00  0.00    +0.055 C 
ATOM     21  C   UNL     1      31.657 -11.411 -21.607  0.00  0.00    +0.148 C 
ATOM     22  C   UNL     1      33.007 -13.116 -20.608  0.00  0.00    +0.087 C 
ATOM     23  C   UNL     1      32.821 -13.019 -23.041  0.00  0.00    +0.045 C 
ATOM     24  C   UNL     1      33.659 -14.122 -23.162  0.00  0.00    +0.173 C 
ATOM     25  C   UNL     1      31.343 -10.925 -20.357  0.00  0.00    +0.058 C 
ATOM     26  C   UNL     1      33.844 -14.219 -20.759  0.00  0.00    +0.059 C 
ATOM     27  C   UNL     1      34.172 -14.724 -22.019  0.00  0.00    +0.174 C 
ATOM     28  C   UNL     1      31.895 -11.583 -19.276  0.00  0.00    +0.102 C 
BRANCH  24  29
ATOM     29  O   UNL     1      33.970 -14.602 -24.398  0.00  0.00    -0.468 OA
ATOM     30  C   UNL     1      32.980 -14.459 -25.417  0.00  0.00    +0.253 C 
ENDBRANCH  24  29
BRANCH  27  31
ATOM     31  O   UNL     1      34.995 -15.804 -22.114  0.00  0.00    -0.468 OA
ATOM     32  C   UNL     1      35.137 -16.616 -20.950  0.00  0.00    +0.253 C 
ENDBRANCH  27  31
ENDBRANCH  18  21
ENDBRANCH   9  18
TORSDOF 6
ENDMDL
MODEL 9
REMARK VINA RESULT:     -10.1      4.168      7.733
REMARK  Name = 11441375
REMARK  6 active torsions:
REMARK  status: ('A' for Active; 'I' for Inactive)
REMARK    1  A    between atoms: C_1  and  C_13
REMARK    2  A    between atoms: C_9  and  O_18
REMARK    3  A    between atoms: N_12  and  C_15
REMARK    4  A    between atoms: O_18  and  C_21
REMARK    5  A    between atoms: C_24  and  O_29
REMARK    6  A    between atoms: C_27  and  O_31
REMARK                            x       y       z     vdW  Elec       q    Type
REMARK                         _______ _______ _______ _____ _____    ______ ____
ROOT
ATOM      1  C   UNL     1      32.188 -22.866 -16.741  0.00  0.00    +0.053 C 
ATOM      2  C   UNL     1      32.759 -23.338 -15.548  0.00  0.00    +0.005 C 
ATOM      3  C   UNL     1      30.841 -22.507 -16.792  0.00  0.00    +0.005 C 
ATOM      4  C   UNL     1      31.952 -23.446 -14.391  0.00  0.00    +0.003 C 
ATOM      5  C   UNL     1      34.113 -23.703 -15.479  0.00  0.00    +0.003 C 
ATOM      6  C   UNL     1      30.048 -22.613 -15.654  0.00  0.00    +0.000 C 
ATOM      7  C   UNL     1      30.599 -23.080 -14.459  0.00  0.00    +0.000 C 
ATOM      8  C   UNL     1      32.524 -23.918 -13.197  0.00  0.00    +0.037 C 
ATOM      9  C   UNL     1      33.871 -24.276 -13.146  0.00  0.00    +0.145 C 
ATOM     10  C   UNL     1      34.664 -24.169 -14.284  0.00  0.00    +0.037 C 
ENDROOT
BRANCH   1  13
ATOM     11  O   UNL     1      33.695 -23.644 -18.362  0.00  0.00    -0.270 OA
ATOM     12  N   UNL     1      32.826 -21.518 -18.667  0.00  0.00    -0.302 N 
ATOM     13  C   UNL     1      32.955 -22.725 -17.975  0.00  0.00    +0.246 C 
ATOM     14  H   UNL     1      32.220 -20.832 -18.303  0.00  0.00    +0.150 HD
BRANCH  12  15
ATOM     15  C   UNL     1      33.534 -21.229 -19.883  0.00  0.00    +0.072 C 
ATOM     16  C   UNL     1      34.961 -20.789 -19.847  0.00  0.00    +0.021 C 
ATOM     17  C   UNL     1      33.884 -19.824 -20.247  0.00  0.00    +0.021 C 
ENDBRANCH  12  15
ENDBRANCH   1  13
BRANCH   9  18
ATOM     18  O   UNL     1      34.411 -24.729 -11.982  0.00  0.00    -0.453 OA
BRANCH  18  21
ATOM     19  N   UNL     1      38.173 -23.342 -10.923  0.00  0.00    -0.244 NA
ATOM     20  C   UNL     1      36.812 -24.875 -12.189  0.00  0.00    +0.055 C 
ATOM     21  C   UNL     1      35.678 -24.284 -11.643  0.00  0.00    +0.148 C 
ATOM     22  C   UNL     1      38.065 -24.364 -11.794  0.00  0.00    +0.087 C 
ATOM     23  C   UNL     1      36.737 -25.942 -13.101  0.00  0.00    +0.045 C 
ATOM     24  C   UNL     1      37.897 -26.505 -13.623  0.00  0.00    +0.173 C 
ATOM     25  C   UNL     1      35.767 -23.238 -10.751  0.00  0.00    +0.058 C 
ATOM     26  C   UNL     1      39.209 -24.945 -12.332  0.00  0.00    +0.059 C 
ATOM     27  C   UNL     1      39.136 -26.006 -13.238  0.00  0.00    +0.174 C 
ATOM     28  C   UNL     1      37.036 -22.805 -10.423  0.00  0.00    +0.102 C 
BRANCH  24  29
ATOM     29  O   UNL     1      37.808 -27.538 -14.506  0.00  0.00    -0.468 OA
ATOM     30  C   UNL     1      36.865 -27.403 -15.569  0.00  0.00    +0.253 C 
ENDBRANCH  24  29
BRANCH  27  31
ATOM     31  O   UNL     1      40.284 -26.541 -13.738  0.00  0.00    -0.468 OA
ATOM     32  C   UNL     1      40.779 -25.991 -14.957  0.00  0.00    +0.253 C 
ENDBRANCH  27  31
ENDBRANCH  18  21
ENDBRANCH   9  18
TORSDOF 6
ENDMDL
