MODEL 1
REMARK VINA RESULT:     -12.5      0.000      0.000
REMARK  Name = 11955716
REMARK  6 active torsions:
REMARK  status: ('A' for Active; 'I' for Inactive)
REMARK    1  A    between atoms: C_4  and  C_25
REMARK    2  A    between atoms: C_11  and  C_12
REMARK    3  A    between atoms: C_13  and  C_18
REMARK    4  A    between atoms: C_15  and  O_21
REMARK    5  A    between atoms: C_16  and  O_23
REMARK    6  A    between atoms: C_25  and  N_26
REMARK                            x       y       z     vdW  Elec       q    Type
REMARK                         _______ _______ _______ _____ _____    ______ ____
ROOT
ATOM      1  O   UNL     1      35.796 -23.745 -15.376  0.00  0.00    -0.269 OA
ATOM      2  N   UNL     1      34.542 -22.720 -17.044  0.00  0.00    -0.231 N 
ATOM      3  C   UNL     1      35.070 -21.422 -18.903  0.00  0.00    +0.016 C 
ATOM      4  C   UNL     1      34.893 -20.054 -20.848  0.00  0.00    -0.043 C 
ATOM      5  C   UNL     1      33.673 -21.498 -18.828  0.00  0.00    +0.016 C 
ATOM      6  C   UNL     1      35.693 -22.197 -17.790  0.00  0.00    +0.072 C 
ATOM      7  C   UNL     1      33.260 -22.333 -17.662  0.00  0.00    +0.072 C 
ATOM      8  C   UNL     1      35.694 -20.705 -19.907  0.00  0.00    -0.005 C 
ATOM      9  C   UNL     1      33.492 -20.129 -20.773  0.00  0.00    -0.006 C 
ATOM     10  C   UNL     1      32.872 -20.857 -19.755  0.00  0.00    +0.001 C 
ATOM     11  C   UNL     1      34.714 -23.436 -15.868  0.00  0.00    +0.259 C 
ENDROOT
BRANCH  11  12
ATOM     12  C   UNL     1      33.500 -23.844 -15.146  0.00  0.00    +0.088 C 
ATOM     13  C   UNL     1      31.093 -23.862 -14.987  0.00  0.00    +0.012 C 
ATOM     14  C   UNL     1      32.256 -23.485 -15.658  0.00  0.00    +0.006 C 
ATOM     15  C   UNL     1      33.588 -24.578 -13.966  0.00  0.00    +0.141 C 
ATOM     16  C   UNL     1      31.178 -24.598 -13.805  0.00  0.00    +0.133 C 
ATOM     17  C   UNL     1      32.425 -24.955 -13.294  0.00  0.00    +0.073 C 
BRANCH  13  18
ATOM     18  C   UNL     1      29.766 -23.470 -15.549  0.00  0.00    +0.025 C 
ATOM     19  C   UNL     1      29.059 -22.402 -14.695  0.00  0.00    +0.005 C 
ATOM     20  C   UNL     1      28.834 -24.680 -15.752  0.00  0.00    +0.005 C 
ENDBRANCH  13  18
BRANCH  15  21
ATOM     21  O   UNL     1      34.798 -24.936 -13.450  0.00  0.00    -0.505 OA
ATOM     22  H   UNL     1      34.868 -25.693 -12.903  0.00  0.00    +0.292 HD
ENDBRANCH  15  21
BRANCH  16  23
ATOM     23  O   UNL     1      30.052 -24.973 -13.137  0.00  0.00    -0.506 OA
ATOM     24  H   UNL     1      29.208 -24.805 -13.507  0.00  0.00    +0.292 HD
ENDBRANCH  16  23
ENDBRANCH  11  12
BRANCH   4  25
ATOM     25  C   UNL     1      35.532 -19.265 -21.949  0.00  0.00    -0.050 C 
BRANCH  25  26
ATOM     26  N   UNL     1      34.904 -17.956 -22.116  0.00  0.00    +0.387 N 
ATOM     27  N   UNL     1      34.970 -15.120 -22.672  0.00  0.00    +0.383 N 
ATOM     28  C   UNL     1      35.426 -16.999 -21.133  0.00  0.00    -0.100 C 
ATOM     29  C   UNL     1      35.107 -17.451 -23.479  0.00  0.00    -0.100 C 
ATOM     30  C   UNL     1      34.770 -15.625 -21.309  0.00  0.00    -0.101 C 
ATOM     31  C   UNL     1      34.449 -16.078 -23.656  0.00  0.00    -0.101 C 
ATOM     32  C   UNL     1      34.340 -13.812 -22.840  0.00  0.00    -0.101 C 
ATOM     33  H   UNL     1      33.903 -18.065 -21.959  0.00  0.00    -0.079 HD
ATOM     34  H   UNL     1      35.972 -15.010 -22.831  0.00  0.00    -0.080 HD
ENDBRANCH  25  26
ENDBRANCH   4  25
TORSDOF 6
ENDMDL
MODEL 2
REMARK VINA RESULT:     -12.4      4.033      7.911
REMARK  Name = 11955716
REMARK  6 active torsions:
REMARK  status: ('A' for Active; 'I' for Inactive)
REMARK    1  A    between atoms: C_4  and  C_25
REMARK    2  A    between atoms: C_11  and  C_12
REMARK    3  A    between atoms: C_13  and  C_18
REMARK    4  A    between atoms: C_15  and  O_21
REMARK    5  A    between atoms: C_16  and  O_23
REMARK    6  A    between atoms: C_25  and  N_26
REMARK                            x       y       z     vdW  Elec       q    Type
REMARK                         _______ _______ _______ _____ _____    ______ ____
ROOT
ATOM      1  O   UNL     1      35.277 -19.339 -23.674  0.00  0.00    -0.269 OA
ATOM      2  N   UNL     1      34.929 -17.341 -22.536  0.00  0.00    -0.231 N 
ATOM      3  C   UNL     1      34.406 -15.171 -23.194  0.00  0.00    +0.016 C 
ATOM      4  C   UNL     1      33.957 -12.829 -23.163  0.00  0.00    -0.043 C 
ATOM      5  C   UNL     1      34.583 -15.156 -21.804  0.00  0.00    +0.016 C 
ATOM      6  C   UNL     1      34.603 -16.550 -23.728  0.00  0.00    +0.072 C 
ATOM      7  C   UNL     1      34.907 -16.526 -21.308  0.00  0.00    +0.072 C 
ATOM      8  C   UNL     1      34.092 -14.016 -23.886  0.00  0.00    -0.005 C 
ATOM      9  C   UNL     1      34.135 -12.814 -21.769  0.00  0.00    -0.006 C 
ATOM     10  C   UNL     1      34.451 -13.986 -21.079  0.00  0.00    +0.001 C 
ATOM     11  C   UNL     1      35.268 -18.683 -22.635  0.00  0.00    +0.259 C 
ENDROOT
BRANCH  11  12
ATOM     12  C   UNL     1      35.663 -19.371 -21.398  0.00  0.00    +0.088 C 
ATOM     13  C   UNL     1      35.074 -20.801 -19.546  0.00  0.00    +0.012 C 
ATOM     14  C   UNL     1      34.719 -20.141 -20.723  0.00  0.00    +0.006 C 
ATOM     15  C   UNL     1      36.959 -19.256 -20.903  0.00  0.00    +0.141 C 
ATOM     16  C   UNL     1      36.372 -20.688 -19.048  0.00  0.00    +0.133 C 
ATOM     17  C   UNL     1      37.315 -19.916 -19.726  0.00  0.00    +0.073 C 
BRANCH  13  18
ATOM     18  C   UNL     1      34.052 -21.625 -18.833  0.00  0.00    +0.025 C 
ATOM     19  C   UNL     1      34.185 -23.126 -19.147  0.00  0.00    +0.005 C 
ATOM     20  C   UNL     1      32.614 -21.153 -19.120  0.00  0.00    +0.005 C 
ENDBRANCH  13  18
BRANCH  15  21
ATOM     21  O   UNL     1      37.894 -18.504 -21.550  0.00  0.00    -0.505 OA
ATOM     22  H   UNL     1      38.642 -18.917 -21.934  0.00  0.00    +0.292 HD
ENDBRANCH  15  21
BRANCH  16  23
ATOM     23  O   UNL     1      36.735 -21.325 -17.900  0.00  0.00    -0.506 OA
ATOM     24  H   UNL     1      36.109 -21.842 -17.432  0.00  0.00    +0.292 HD
ENDBRANCH  16  23
ENDBRANCH  11  12
BRANCH   4  25
ATOM     25  C   UNL     1      33.621 -11.557 -23.878  0.00  0.00    -0.050 C 
BRANCH  25  26
ATOM     26  N   UNL     1      33.277 -10.484 -22.948  0.00  0.00    +0.387 N 
ATOM     27  N   UNL     1      32.075  -7.941 -22.280  0.00  0.00    +0.383 N 
ATOM     28  C   UNL     1      33.892  -9.217 -23.365  0.00  0.00    -0.100 C 
ATOM     29  C   UNL     1      31.821 -10.334 -22.839  0.00  0.00    -0.100 C 
ATOM     30  C   UNL     1      33.530  -8.090 -22.392  0.00  0.00    -0.101 C 
ATOM     31  C   UNL     1      31.459  -9.209 -21.864  0.00  0.00    -0.101 C 
ATOM     32  C   UNL     1      31.731  -6.869 -21.348  0.00  0.00    -0.101 C 
ATOM     33  H   UNL     1      33.644 -10.733 -22.030  0.00  0.00    -0.079 HD
ATOM     34  H   UNL     1      31.706  -7.691 -23.198  0.00  0.00    -0.080 HD
ENDBRANCH  25  26
ENDBRANCH   4  25
TORSDOF 6
ENDMDL
MODEL 3
REMARK VINA RESULT:     -12.2      4.092      9.863
REMARK  Name = 11955716
REMARK  6 active torsions:
REMARK  status: ('A' for Active; 'I' for Inactive)
REMARK    1  A    between atoms: C_4  and  C_25
REMARK    2  A    between atoms: C_11  and  C_12
REMARK    3  A    between atoms: C_13  and  C_18
REMARK    4  A    between atoms: C_15  and  O_21
REMARK    5  A    between atoms: C_16  and  O_23
REMARK    6  A    between atoms: C_25  and  N_26
REMARK                            x       y       z     vdW  Elec       q    Type
REMARK                         _______ _______ _______ _____ _____    ______ ____
ROOT
ATOM      1  O   UNL     1      37.583 -18.648 -21.617  0.00  0.00    -0.269 OA
ATOM      2  N   UNL     1      35.675 -19.592 -20.682  0.00  0.00    -0.231 N 
ATOM      3  C   UNL     1      35.299 -21.192 -19.033  0.00  0.00    +0.016 C 
ATOM      4  C   UNL     1      34.232 -22.725 -17.551  0.00  0.00    -0.043 C 
ATOM      5  C   UNL     1      34.051 -20.821 -19.551  0.00  0.00    +0.016 C 
ATOM      6  C   UNL     1      36.389 -20.430 -19.711  0.00  0.00    +0.072 C 
ATOM      7  C   UNL     1      34.215 -19.780 -20.608  0.00  0.00    +0.072 C 
ATOM      8  C   UNL     1      35.405 -22.141 -18.034  0.00  0.00    -0.005 C 
ATOM      9  C   UNL     1      32.980 -22.354 -18.070  0.00  0.00    -0.006 C 
ATOM     10  C   UNL     1      32.883 -21.393 -19.079  0.00  0.00    +0.001 C 
ATOM     11  C   UNL     1      36.363 -18.787 -21.578  0.00  0.00    +0.259 C 
ENDROOT
BRANCH  11  12
ATOM     12  C   UNL     1      35.567 -18.051 -22.570  0.00  0.00    +0.088 C 
ATOM     13  C   UNL     1      34.644 -15.960 -23.345  0.00  0.00    +0.012 C 
ATOM     14  C   UNL     1      35.397 -16.677 -22.415  0.00  0.00    +0.006 C 
ATOM     15  C   UNL     1      34.987 -18.712 -23.650  0.00  0.00    +0.141 C 
ATOM     16  C   UNL     1      34.063 -16.620 -24.428  0.00  0.00    +0.133 C 
ATOM     17  C   UNL     1      34.234 -17.996 -24.581  0.00  0.00    +0.073 C 
BRANCH  13  18
ATOM     18  C   UNL     1      34.471 -14.488 -23.167  0.00  0.00    +0.025 C 
ATOM     19  C   UNL     1      34.637 -14.050 -21.701  0.00  0.00    +0.005 C 
ATOM     20  C   UNL     1      33.123 -13.984 -23.716  0.00  0.00    +0.005 C 
ENDBRANCH  13  18
BRANCH  15  21
ATOM     21  O   UNL     1      35.142 -20.056 -23.815  0.00  0.00    -0.505 OA
ATOM     22  H   UNL     1      34.463 -20.642 -23.545  0.00  0.00    +0.292 HD
ENDBRANCH  15  21
BRANCH  16  23
ATOM     23  O   UNL     1      33.323 -15.936 -25.345  0.00  0.00    -0.506 OA
ATOM     24  H   UNL     1      32.856 -15.165 -25.090  0.00  0.00    +0.292 HD
ENDBRANCH  16  23
ENDBRANCH  11  12
BRANCH   4  25
ATOM     25  C   UNL     1      34.307 -23.759 -16.471  0.00  0.00    -0.050 C 
BRANCH  25  26
ATOM     26  N   UNL     1      35.007 -23.262 -15.289  0.00  0.00    +0.387 N 
ATOM     27  N   UNL     1      36.659 -23.600 -12.941  0.00  0.00    +0.383 N 
ATOM     28  C   UNL     1      34.480 -23.888 -14.070  0.00  0.00    -0.100 C 
ATOM     29  C   UNL     1      36.452 -23.496 -15.401  0.00  0.00    -0.100 C 
ATOM     30  C   UNL     1      35.215 -23.369 -12.829  0.00  0.00    -0.101 C 
ATOM     31  C   UNL     1      37.186 -22.975 -14.161  0.00  0.00    -0.101 C 
ATOM     32  C   UNL     1      37.359 -23.101 -11.759  0.00  0.00    -0.101 C 
ATOM     33  H   UNL     1      34.848 -22.256 -15.229  0.00  0.00    -0.079 HD
ATOM     34  H   UNL     1      36.820 -24.606 -13.001  0.00  0.00    -0.080 HD
ENDBRANCH  25  26
ENDBRANCH   4  25
TORSDOF 6
ENDMDL
MODEL 4
REMARK VINA RESULT:     -11.9      3.743     10.027
REMARK  Name = 11955716
REMARK  6 active torsions:
REMARK  status: ('A' for Active; 'I' for Inactive)
REMARK    1  A    between atoms: C_4  and  C_25
REMARK    2  A    between atoms: C_11  and  C_12
REMARK    3  A    between atoms: C_13  and  C_18
REMARK    4  A    between atoms: C_15  and  O_21
REMARK    5  A    between atoms: C_16  and  O_23
REMARK    6  A    between atoms: C_25  and  N_26
REMARK                            x       y       z     vdW  Elec       q    Type
REMARK                         _______ _______ _______ _____ _____    ______ ____
ROOT
ATOM      1  O   UNL     1      37.501 -18.539 -21.829  0.00  0.00    -0.269 OA
ATOM      2  N   UNL     1      35.610 -19.474 -20.851  0.00  0.00    -0.231 N 
ATOM      3  C   UNL     1      35.264 -21.071 -19.193  0.00  0.00    +0.016 C 
ATOM      4  C   UNL     1      34.223 -22.600 -17.687  0.00  0.00    -0.043 C 
ATOM      5  C   UNL     1      34.006 -20.696 -19.683  0.00  0.00    +0.016 C 
ATOM      6  C   UNL     1      36.341 -20.315 -19.896  0.00  0.00    +0.072 C 
ATOM      7  C   UNL     1      34.151 -19.656 -20.744  0.00  0.00    +0.072 C 
ATOM      8  C   UNL     1      35.388 -22.021 -18.196  0.00  0.00    -0.005 C 
ATOM      9  C   UNL     1      32.961 -22.223 -18.178  0.00  0.00    -0.006 C 
ATOM     10  C   UNL     1      32.847 -21.263 -19.185  0.00  0.00    +0.001 C 
ATOM     11  C   UNL     1      36.281 -18.672 -21.763  0.00  0.00    +0.259 C 
ENDROOT
BRANCH  11  12
ATOM     12  C   UNL     1      35.466 -17.933 -22.737  0.00  0.00    +0.088 C 
ATOM     13  C   UNL     1      34.542 -15.838 -23.498  0.00  0.00    +0.012 C 
ATOM     14  C   UNL     1      35.312 -16.558 -22.584  0.00  0.00    +0.006 C 
ATOM     15  C   UNL     1      34.854 -18.594 -23.799  0.00  0.00    +0.141 C 
ATOM     16  C   UNL     1      33.928 -16.497 -24.563  0.00  0.00    +0.133 C 
ATOM     17  C   UNL     1      34.083 -17.875 -24.713  0.00  0.00    +0.073 C 
BRANCH  13  18
ATOM     18  C   UNL     1      34.386 -14.363 -23.322  0.00  0.00    +0.025 C 
ATOM     19  C   UNL     1      34.620 -13.917 -21.867  0.00  0.00    +0.005 C 
ATOM     20  C   UNL     1      33.018 -13.855 -23.813  0.00  0.00    +0.005 C 
ENDBRANCH  13  18
BRANCH  15  21
ATOM     21  O   UNL     1      34.993 -19.940 -23.962  0.00  0.00    -0.505 OA
ATOM     22  H   UNL     1      34.933 -20.316 -24.818  0.00  0.00    +0.292 HD
ENDBRANCH  15  21
BRANCH  16  23
ATOM     23  O   UNL     1      33.171 -15.810 -25.464  0.00  0.00    -0.506 OA
ATOM     24  H   UNL     1      33.007 -16.173 -26.312  0.00  0.00    +0.292 HD
ENDBRANCH  16  23
ENDBRANCH  11  12
BRANCH   4  25
ATOM     25  C   UNL     1      34.318 -23.634 -16.609  0.00  0.00    -0.050 C 
BRANCH  25  26
ATOM     26  N   UNL     1      33.347 -23.398 -15.542  0.00  0.00    +0.387 N 
ATOM     27  N   UNL     1      31.483 -24.279 -13.515  0.00  0.00    +0.383 N 
ATOM     28  C   UNL     1      32.035 -23.950 -15.902  0.00  0.00    -0.100 C 
ATOM     29  C   UNL     1      33.814 -23.974 -14.275  0.00  0.00    -0.100 C 
ATOM     30  C   UNL     1      31.016 -23.706 -14.783  0.00  0.00    -0.101 C 
ATOM     31  C   UNL     1      32.797 -23.728 -13.156  0.00  0.00    -0.101 C 
ATOM     32  C   UNL     1      30.513 -24.041 -12.448  0.00  0.00    -0.101 C 
ATOM     33  H   UNL     1      33.251 -22.390 -15.421  0.00  0.00    -0.079 HD
ATOM     34  H   UNL     1      31.580 -25.287 -13.634  0.00  0.00    -0.080 HD
ENDBRANCH  25  26
ENDBRANCH   4  25
TORSDOF 6
ENDMDL
MODEL 5
REMARK VINA RESULT:     -11.7      1.575      2.344
REMARK  Name = 11955716
REMARK  6 active torsions:
REMARK  status: ('A' for Active; 'I' for Inactive)
REMARK    1  A    between atoms: C_4  and  C_25
REMARK    2  A    between atoms: C_11  and  C_12
REMARK    3  A    between atoms: C_13  and  C_18
REMARK    4  A    between atoms: C_15  and  O_21
REMARK    5  A    between atoms: C_16  and  O_23
REMARK    6  A    between atoms: C_25  and  N_26
REMARK                            x       y       z     vdW  Elec       q    Type
REMARK                         _______ _______ _______ _____ _____    ______ ____
ROOT
ATOM      1  O   UNL     1      37.877 -22.122 -15.913  0.00  0.00    -0.269 OA
ATOM      2  N   UNL     1      36.303 -21.735 -17.580  0.00  0.00    -0.231 N 
ATOM      3  C   UNL     1      36.258 -20.402 -19.488  0.00  0.00    +0.016 C 
ATOM      4  C   UNL     1      35.535 -19.285 -21.467  0.00  0.00    -0.043 C 
ATOM      5  C   UNL     1      35.005 -21.020 -19.378  0.00  0.00    +0.016 C 
ATOM      6  C   UNL     1      37.146 -20.828 -18.368  0.00  0.00    +0.072 C 
ATOM      7  C   UNL     1      34.967 -21.908 -18.179  0.00  0.00    +0.072 C 
ATOM      8  C   UNL     1      36.537 -19.533 -20.527  0.00  0.00    -0.005 C 
ATOM      9  C   UNL     1      34.278 -19.904 -21.357  0.00  0.00    -0.006 C 
ATOM     10  C   UNL     1      34.006 -20.780 -20.304  0.00  0.00    +0.001 C 
ATOM     11  C   UNL     1      36.756 -22.283 -16.388  0.00  0.00    +0.259 C 
ENDROOT
BRANCH  11  12
ATOM     12  C   UNL     1      35.810 -23.110 -15.626  0.00  0.00    +0.088 C 
ATOM     13  C   UNL     1      33.532 -23.620 -15.014  0.00  0.00    +0.012 C 
ATOM     14  C   UNL     1      34.446 -22.846 -15.730  0.00  0.00    +0.006 C 
ATOM     15  C   UNL     1      36.264 -24.143 -14.811  0.00  0.00    +0.141 C 
ATOM     16  C   UNL     1      33.985 -24.656 -14.197  0.00  0.00    +0.133 C 
ATOM     17  C   UNL     1      35.351 -24.917 -14.095  0.00  0.00    +0.073 C 
BRANCH  13  18
ATOM     18  C   UNL     1      32.073 -23.326 -15.135  0.00  0.00    +0.025 C 
ATOM     19  C   UNL     1      31.705 -22.734 -16.507  0.00  0.00    +0.005 C 
ATOM     20  C   UNL     1      31.565 -22.403 -14.012  0.00  0.00    +0.005 C 
ENDBRANCH  13  18
BRANCH  15  21
ATOM     21  O   UNL     1      37.596 -24.414 -14.697  0.00  0.00    -0.505 OA
ATOM     22  H   UNL     1      37.961 -25.160 -15.131  0.00  0.00    +0.292 HD
ENDBRANCH  15  21
BRANCH  16  23
ATOM     23  O   UNL     1      33.106 -25.420 -13.491  0.00  0.00    -0.506 OA
ATOM     24  H   UNL     1      32.281 -25.064 -13.227  0.00  0.00    +0.292 HD
ENDBRANCH  16  23
ENDBRANCH  11  12
BRANCH   4  25
ATOM     25  C   UNL     1      35.799 -18.348 -22.604  0.00  0.00    -0.050 C 
BRANCH  25  26
ATOM     26  N   UNL     1      35.602 -16.952 -22.217  0.00  0.00    +0.387 N 
ATOM     27  N   UNL     1      33.955 -14.675 -21.543  0.00  0.00    +0.383 N 
ATOM     28  C   UNL     1      34.845 -16.229 -23.246  0.00  0.00    -0.100 C 
ATOM     29  C   UNL     1      34.920 -16.862 -20.921  0.00  0.00    -0.100 C 
ATOM     30  C   UNL     1      34.635 -14.766 -22.840  0.00  0.00    -0.101 C 
ATOM     31  C   UNL     1      34.712 -15.400 -20.514  0.00  0.00    -0.101 C 
ATOM     32  C   UNL     1      33.759 -13.279 -21.155  0.00  0.00    -0.101 C 
ATOM     33  H   UNL     1      36.520 -16.518 -22.128  0.00  0.00    -0.079 HD
ATOM     34  H   UNL     1      33.035 -15.109 -21.630  0.00  0.00    -0.080 HD
ENDBRANCH  25  26
ENDBRANCH   4  25
TORSDOF 6
ENDMDL
MODEL 6
REMARK VINA RESULT:     -11.6      5.817     12.035
REMARK  Name = 11955716
REMARK  6 active torsions:
REMARK  status: ('A' for Active; 'I' for Inactive)
REMARK    1  A    between atoms: C_4  and  C_25
REMARK    2  A    between atoms: C_11  and  C_12
REMARK    3  A    between atoms: C_13  and  C_18
REMARK    4  A    between atoms: C_15  and  O_21
REMARK    5  A    between atoms: C_16  and  O_23
REMARK    6  A    between atoms: C_25  and  N_26
REMARK                            x       y       z     vdW  Elec       q    Type
REMARK                         _______ _______ _______ _____ _____    ______ ____
ROOT
ATOM      1  O   UNL     1      32.334 -11.876 -19.269  0.00  0.00    -0.269 OA
ATOM      2  N   UNL     1      33.176 -13.191 -20.992  0.00  0.00    -0.231 N 
ATOM      3  C   UNL     1      34.310 -15.222 -21.075  0.00  0.00    +0.016 C 
ATOM      4  C   UNL     1      35.492 -17.138 -21.861  0.00  0.00    -0.043 C 
ATOM      5  C   UNL     1      34.211 -14.742 -22.387  0.00  0.00    +0.016 C 
ATOM      6  C   UNL     1      33.654 -14.275 -20.126  0.00  0.00    +0.072 C 
ATOM      7  C   UNL     1      33.477 -13.443 -22.412  0.00  0.00    +0.072 C 
ATOM      8  C   UNL     1      34.946 -16.417 -20.796  0.00  0.00    -0.005 C 
ATOM      9  C   UNL     1      35.393 -16.658 -23.178  0.00  0.00    -0.006 C 
ATOM     10  C   UNL     1      34.748 -15.449 -23.448  0.00  0.00    +0.001 C 
ATOM     11  C   UNL     1      32.574 -12.059 -20.459  0.00  0.00    +0.259 C 
ENDROOT
BRANCH  11  12
ATOM     12  C   UNL     1      32.207 -10.988 -21.397  0.00  0.00    +0.088 C 
ATOM     13  C   UNL     1      32.889  -9.193 -22.858  0.00  0.00    +0.012 C 
ATOM     14  C   UNL     1      33.216 -10.215 -21.967  0.00  0.00    +0.006 C 
ATOM     15  C   UNL     1      30.873 -10.745 -21.713  0.00  0.00    +0.141 C 
ATOM     16  C   UNL     1      31.553  -8.948 -23.177  0.00  0.00    +0.133 C 
ATOM     17  C   UNL     1      30.545  -9.724 -22.605  0.00  0.00    +0.073 C 
BRANCH  13  18
ATOM     18  C   UNL     1      33.980  -8.373 -23.462  0.00  0.00    +0.025 C 
ATOM     19  C   UNL     1      35.251  -9.196 -23.736  0.00  0.00    +0.005 C 
ATOM     20  C   UNL     1      34.328  -7.139 -22.609  0.00  0.00    +0.005 C 
ENDBRANCH  13  18
BRANCH  15  21
ATOM     21  O   UNL     1      29.874 -11.492 -21.163  0.00  0.00    -0.505 OA
ATOM     22  H   UNL     1      29.821 -12.409 -21.344  0.00  0.00    +0.292 HD
ENDBRANCH  15  21
BRANCH  16  23
ATOM     23  O   UNL     1      31.216  -7.954 -24.045  0.00  0.00    -0.506 OA
ATOM     24  H   UNL     1      31.311  -7.057 -23.791  0.00  0.00    +0.292 HD
ENDBRANCH  16  23
ENDBRANCH  11  12
BRANCH   4  25
ATOM     25  C   UNL     1      36.190 -18.436 -21.599  0.00  0.00    -0.050 C 
BRANCH  25  26
ATOM     26  N   UNL     1      35.524 -19.211 -20.554  0.00  0.00    +0.387 N 
ATOM     27  N   UNL     1      34.474 -21.664 -19.441  0.00  0.00    +0.383 N 
ATOM     28  C   UNL     1      34.282 -19.807 -21.061  0.00  0.00    -0.100 C 
ATOM     29  C   UNL     1      36.415 -20.254 -20.030  0.00  0.00    -0.100 C 
ATOM     30  C   UNL     1      33.584 -20.623 -19.967  0.00  0.00    -0.101 C 
ATOM     31  C   UNL     1      35.718 -21.068 -18.935  0.00  0.00    -0.101 C 
ATOM     32  C   UNL     1      33.808 -22.438 -18.395  0.00  0.00    -0.101 C 
ATOM     33  H   UNL     1      35.290 -18.576 -19.792  0.00  0.00    -0.079 HD
ATOM     34  H   UNL     1      34.710 -22.300 -20.203  0.00  0.00    -0.080 HD
ENDBRANCH  25  26
ENDBRANCH   4  25
TORSDOF 6
ENDMDL
MODEL 7
REMARK VINA RESULT:     -10.2      6.496     10.751
REMARK  Name = 11955716
REMARK  6 active torsions:
REMARK  status: ('A' for Active; 'I' for Inactive)
REMARK    1  A    between atoms: C_4  and  C_25
REMARK    2  A    between atoms: C_11  and  C_12
REMARK    3  A    between atoms: C_13  and  C_18
REMARK    4  A    between atoms: C_15  and  O_21
REMARK    5  A    between atoms: C_16  and  O_23
REMARK    6  A    between atoms: C_25  and  N_26
REMARK                            x       y       z     vdW  Elec       q    Type
REMARK                         _______ _______ _______ _____ _____    ______ ____
ROOT
ATOM      1  O   UNL     1      34.511 -14.920 -25.545  0.00  0.00    -0.269 OA
ATOM      2  N   UNL     1      33.596 -14.288 -23.502  0.00  0.00    -0.231 N 
ATOM      3  C   UNL     1      32.866 -12.266 -22.609  0.00  0.00    +0.016 C 
ATOM      4  C   UNL     1      32.033 -10.609 -21.111  0.00  0.00    -0.043 C 
ATOM      5  C   UNL     1      32.739 -13.238 -21.608  0.00  0.00    +0.016 C 
ATOM      6  C   UNL     1      33.403 -12.878 -23.860  0.00  0.00    +0.072 C 
ATOM      7  C   UNL     1      33.176 -14.571 -22.118  0.00  0.00    +0.072 C 
ATOM      8  C   UNL     1      32.517 -10.949 -22.376  0.00  0.00    -0.005 C 
ATOM      9  C   UNL     1      31.904 -11.583 -20.106  0.00  0.00    -0.006 C 
ATOM     10  C   UNL     1      32.259 -12.911 -20.352  0.00  0.00    +0.001 C 
ATOM     11  C   UNL     1      34.170 -15.183 -24.394  0.00  0.00    +0.259 C 
ENDROOT
BRANCH  11  12
ATOM     12  C   UNL     1      34.402 -16.553 -23.916  0.00  0.00    +0.088 C 
ATOM     13  C   UNL     1      35.521 -18.053 -22.392  0.00  0.00    +0.012 C 
ATOM     14  C   UNL     1      35.286 -16.759 -22.860  0.00  0.00    +0.006 C 
ATOM     15  C   UNL     1      33.752 -17.633 -24.507  0.00  0.00    +0.141 C 
ATOM     16  C   UNL     1      34.870 -19.136 -22.982  0.00  0.00    +0.133 C 
ATOM     17  C   UNL     1      33.986 -18.927 -24.040  0.00  0.00    +0.073 C 
BRANCH  13  18
ATOM     18  C   UNL     1      36.471 -18.259 -21.258  0.00  0.00    +0.025 C 
ATOM     19  C   UNL     1      37.885 -18.632 -21.737  0.00  0.00    +0.005 C 
ATOM     20  C   UNL     1      35.964 -19.308 -20.251  0.00  0.00    +0.005 C 
ENDBRANCH  13  18
BRANCH  15  21
ATOM     21  O   UNL     1      32.885 -17.449 -25.543  0.00  0.00    -0.505 OA
ATOM     22  H   UNL     1      32.065 -17.901 -25.553  0.00  0.00    +0.292 HD
ENDBRANCH  15  21
BRANCH  16  23
ATOM     23  O   UNL     1      35.088 -20.405 -22.538  0.00  0.00    -0.506 OA
ATOM     24  H   UNL     1      35.942 -20.662 -22.251  0.00  0.00    +0.292 HD
ENDBRANCH  16  23
ENDBRANCH  11  12
BRANCH   4  25
ATOM     25  C   UNL     1      31.647  -9.192 -20.819  0.00  0.00    -0.050 C 
BRANCH  25  26
ATOM     26  N   UNL     1      32.100  -8.278 -21.866  0.00  0.00    +0.387 N 
ATOM     27  N   UNL     1      32.314  -5.669 -23.091  0.00  0.00    +0.383 N 
ATOM     28  C   UNL     1      30.956  -7.661 -22.549  0.00  0.00    -0.100 C 
ATOM     29  C   UNL     1      32.982  -7.245 -21.310  0.00  0.00    -0.100 C 
ATOM     30  C   UNL     1      31.430  -6.701 -23.645  0.00  0.00    -0.101 C 
ATOM     31  C   UNL     1      33.458  -6.286 -22.407  0.00  0.00    -0.101 C 
ATOM     32  C   UNL     1      32.769  -4.756 -24.139  0.00  0.00    -0.101 C 
ATOM     33  H   UNL     1      32.630  -8.820 -22.549  0.00  0.00    -0.079 HD
ATOM     34  H   UNL     1      31.786  -5.126 -22.408  0.00  0.00    -0.080 HD
ENDBRANCH  25  26
ENDBRANCH   4  25
TORSDOF 6
ENDMDL
MODEL 8
REMARK VINA RESULT:     -10.1      8.500     14.878
REMARK  Name = 11955716
REMARK  6 active torsions:
REMARK  status: ('A' for Active; 'I' for Inactive)
REMARK    1  A    between atoms: C_4  and  C_25
REMARK    2  A    between atoms: C_11  and  C_12
REMARK    3  A    between atoms: C_13  and  C_18
REMARK    4  A    between atoms: C_15  and  O_21
REMARK    5  A    between atoms: C_16  and  O_23
REMARK    6  A    between atoms: C_25  and  N_26
REMARK                            x       y       z     vdW  Elec       q    Type
REMARK                         _______ _______ _______ _____ _____    ______ ____
ROOT
ATOM      1  O   UNL     1      35.587  -7.136 -23.352  0.00  0.00    -0.269 OA
ATOM      2  N   UNL     1      34.067  -8.883 -23.150  0.00  0.00    -0.231 N 
ATOM      3  C   UNL     1      34.070 -11.118 -23.802  0.00  0.00    +0.016 C 
ATOM      4  C   UNL     1      33.401 -13.370 -24.211  0.00  0.00    -0.043 C 
ATOM      5  C   UNL     1      32.822 -10.851 -23.223  0.00  0.00    +0.016 C 
ATOM      6  C   UNL     1      34.925  -9.895 -23.778  0.00  0.00    +0.072 C 
ATOM      7  C   UNL     1      32.755  -9.433 -22.764  0.00  0.00    +0.072 C 
ATOM      8  C   UNL     1      34.374 -12.371 -24.300  0.00  0.00    -0.005 C 
ATOM      9  C   UNL     1      32.150 -13.104 -23.631  0.00  0.00    -0.006 C 
ATOM     10  C   UNL     1      31.853 -11.834 -23.130  0.00  0.00    +0.001 C 
ATOM     11  C   UNL     1      34.485  -7.566 -23.022  0.00  0.00    +0.259 C 
ENDROOT
BRANCH  11  12
ATOM     12  C   UNL     1      33.524  -6.607 -22.460  0.00  0.00    +0.088 C 
ATOM     13  C   UNL     1      31.978  -4.786 -22.798  0.00  0.00    +0.012 C 
ATOM     14  C   UNL     1      32.893  -5.705 -23.313  0.00  0.00    +0.006 C 
ATOM     15  C   UNL     1      33.246  -6.596 -21.096  0.00  0.00    +0.141 C 
ATOM     16  C   UNL     1      31.697  -4.772 -21.432  0.00  0.00    +0.133 C 
ATOM     17  C   UNL     1      32.331  -5.677 -20.580  0.00  0.00    +0.073 C 
BRANCH  13  18
ATOM     18  C   UNL     1      31.309  -3.824 -23.724  0.00  0.00    +0.025 C 
ATOM     19  C   UNL     1      31.112  -4.407 -25.135  0.00  0.00    +0.005 C 
ATOM     20  C   UNL     1      32.052  -2.478 -23.812  0.00  0.00    +0.005 C 
ENDBRANCH  13  18
BRANCH  15  21
ATOM     21  O   UNL     1      33.856  -7.471 -20.247  0.00  0.00    -0.505 OA
ATOM     22  H   UNL     1      33.754  -8.393 -20.373  0.00  0.00    +0.292 HD
ENDBRANCH  15  21
BRANCH  16  23
ATOM     23  O   UNL     1      30.808  -3.881 -20.913  0.00  0.00    -0.506 OA
ATOM     24  H   UNL     1      30.350  -4.082 -20.121  0.00  0.00    +0.292 HD
ENDBRANCH  16  23
ENDBRANCH  11  12
BRANCH   4  25
ATOM     25  C   UNL     1      33.693 -14.740 -24.742  0.00  0.00    -0.050 C 
BRANCH  25  26
ATOM     26  N   UNL     1      33.986 -15.688 -23.669  0.00  0.00    +0.387 N 
ATOM     27  N   UNL     1      35.784 -17.270 -22.051  0.00  0.00    +0.383 N 
ATOM     28  C   UNL     1      34.628 -16.895 -24.203  0.00  0.00    -0.100 C 
ATOM     29  C   UNL     1      34.833 -15.068 -22.643  0.00  0.00    -0.100 C 
ATOM     30  C   UNL     1      34.939 -17.889 -23.079  0.00  0.00    -0.101 C 
ATOM     31  C   UNL     1      35.142 -16.062 -21.518  0.00  0.00    -0.101 C 
ATOM     32  C   UNL     1      36.075 -18.218 -20.977  0.00  0.00    -0.101 C 
ATOM     33  H   UNL     1      33.102 -15.957 -23.237  0.00  0.00    -0.079 HD
ATOM     34  H   UNL     1      36.669 -17.000 -22.481  0.00  0.00    -0.080 HD
ENDBRANCH  25  26
ENDBRANCH   4  25
TORSDOF 6
ENDMDL
MODEL 9
REMARK VINA RESULT:      -9.9      7.340     13.355
REMARK  Name = 11955716
REMARK  6 active torsions:
REMARK  status: ('A' for Active; 'I' for Inactive)
REMARK    1  A    between atoms: C_4  and  C_25
REMARK    2  A    between atoms: C_11  and  C_12
REMARK    3  A    between atoms: C_13  and  C_18
REMARK    4  A    between atoms: C_15  and  O_21
REMARK    5  A    between atoms: C_16  and  O_23
REMARK    6  A    between atoms: C_25  and  N_26
REMARK                            x       y       z     vdW  Elec       q    Type
REMARK                         _______ _______ _______ _____ _____    ______ ____
ROOT
ATOM      1  O   UNL     1      30.638 -10.570 -19.732  0.00  0.00    -0.269 OA
ATOM      2  N   UNL     1      31.986 -10.999 -21.577  0.00  0.00    -0.231 N 
ATOM      3  C   UNL     1      32.712 -12.939 -22.638  0.00  0.00    +0.016 C 
ATOM      4  C   UNL     1      33.827 -14.446 -24.112  0.00  0.00    -0.043 C 
ATOM      5  C   UNL     1      33.314 -11.855 -23.289  0.00  0.00    +0.016 C 
ATOM      6  C   UNL     1      31.835 -12.458 -21.531  0.00  0.00    +0.072 C 
ATOM      7  C   UNL     1      32.879 -10.569 -22.668  0.00  0.00    +0.072 C 
ATOM      8  C   UNL     1      32.958 -14.239 -23.038  0.00  0.00    -0.005 C 
ATOM      9  C   UNL     1      34.431 -13.359 -24.765  0.00  0.00    -0.006 C 
ATOM     10  C   UNL     1      34.175 -12.049 -24.354  0.00  0.00    +0.001 C 
ATOM     11  C   UNL     1      31.379 -10.184 -20.632  0.00  0.00    +0.259 C 
ENDROOT
BRANCH  11  12
ATOM     12  C   UNL     1      31.659  -8.743 -20.707  0.00  0.00    +0.088 C 
ATOM     13  C   UNL     1      31.727  -6.713 -22.008  0.00  0.00    +0.012 C 
ATOM     14  C   UNL     1      31.466  -8.080 -21.916  0.00  0.00    +0.006 C 
ATOM     15  C   UNL     1      32.110  -8.047 -19.589  0.00  0.00    +0.141 C 
ATOM     16  C   UNL     1      32.179  -6.012 -20.890  0.00  0.00    +0.133 C 
ATOM     17  C   UNL     1      32.371  -6.679 -19.680  0.00  0.00    +0.073 C 
BRANCH  13  18
ATOM     18  C   UNL     1      31.515  -6.014 -23.311  0.00  0.00    +0.025 C 
ATOM     19  C   UNL     1      30.637  -6.827 -24.278  0.00  0.00    +0.005 C 
ATOM     20  C   UNL     1      32.842  -5.638 -23.998  0.00  0.00    +0.005 C 
ENDBRANCH  13  18
BRANCH  15  21
ATOM     21  O   UNL     1      32.305  -8.681 -18.398  0.00  0.00    -0.505 OA
ATOM     22  H   UNL     1      31.618  -9.196 -18.024  0.00  0.00    +0.292 HD
ENDBRANCH  15  21
BRANCH  16  23
ATOM     23  O   UNL     1      32.439  -4.677 -20.962  0.00  0.00    -0.506 OA
ATOM     24  H   UNL     1      32.271  -4.126 -20.224  0.00  0.00    +0.292 HD
ENDBRANCH  16  23
ENDBRANCH  11  12
BRANCH   4  25
ATOM     25  C   UNL     1      34.120 -15.840 -24.572  0.00  0.00    -0.050 C 
BRANCH  25  26
ATOM     26  N   UNL     1      34.246 -16.769 -23.451  0.00  0.00    +0.387 N 
ATOM     27  N   UNL     1      35.686 -18.705 -21.859  0.00  0.00    +0.383 N 
ATOM     28  C   UNL     1      34.465 -18.139 -23.932  0.00  0.00    -0.100 C 
ATOM     29  C   UNL     1      35.335 -16.361 -22.556  0.00  0.00    -0.100 C 
ATOM     30  C   UNL     1      34.600 -19.113 -22.757  0.00  0.00    -0.101 C 
ATOM     31  C   UNL     1      35.468 -17.334 -21.380  0.00  0.00    -0.101 C 
ATOM     32  C   UNL     1      35.811 -19.633 -20.737  0.00  0.00    -0.101 C 
ATOM     33  H   UNL     1      33.373 -16.747 -22.925  0.00  0.00    -0.079 HD
ATOM     34  H   UNL     1      36.562 -18.726 -22.384  0.00  0.00    -0.080 HD
ENDBRANCH  25  26
ENDBRANCH   4  25
TORSDOF 6
ENDMDL
