MODEL 1
REMARK VINA RESULT:     -10.9      0.000      0.000
REMARK  Name = 443388
REMARK  13 active torsions:
REMARK  status: ('A' for Active; 'I' for Inactive)
REMARK    1  A    between atoms: C_1  and  N_22
REMARK    2  A    between atoms: C_2  and  C_9
REMARK    3  A    between atoms: N_8  and  CA_11
REMARK    4  A    between atoms: CA_11  and  C_13
REMARK    5  A    between atoms: CA_11  and  CB_16
REMARK    6  A    between atoms: C_13  and  O_14
REMARK    7  A    between atoms: CB_16  and  CG_17
REMARK    8  A    between atoms: CG_17  and  CD_19
REMARK    9  A    between atoms: CD_19  and  OE1_20
REMARK   10  A    between atoms: N_22  and  C_23
REMARK   11  A    between atoms: N_22  and  C_39
REMARK   12  A    between atoms: C_23  and  C_28
REMARK   13  A    between atoms: C_39  and  C_40
REMARK                            x       y       z     vdW  Elec       q    Type
REMARK                         _______ _______ _______ _____ _____    ______ ____
ROOT
ATOM      1  C   UNL     1      34.416 -19.876 -20.826  0.00  0.00    +0.049 C 
ATOM      2  C   UNL     1      33.654 -21.676 -18.836  0.00  0.00    +0.053 C 
ATOM      3  C   UNL     1      33.070 -20.010 -20.485  0.00  0.00    +0.015 C 
ATOM      4  C   UNL     1      35.381 -20.642 -20.172  0.00  0.00    +0.015 C 
ATOM      5  C   UNL     1      32.689 -20.910 -19.490  0.00  0.00    +0.006 C 
ATOM      6  C   UNL     1      34.999 -21.542 -19.176  0.00  0.00    +0.006 C 
ENDROOT
BRANCH   2   9
ATOM      7  O   UNL     1      33.991 -23.572 -17.498  0.00  0.00    -0.270 OA
ATOM      8  N   UNL     1      32.037 -22.372 -17.155  0.00  0.00    -0.293 N 
ATOM      9  C   ACE A   0      33.255 -22.615 -17.799  0.00  0.00    +0.246 C 
ATOM     10  H   UNL     1      31.504 -21.595 -17.444  0.00  0.00    +0.150 HD
BRANCH   8  11
ATOM     11  CA  UNL     1      31.516 -23.200 -16.091  0.00  0.00    +0.172 C 
BRANCH  11  13
ATOM     12  OXT UNL     1      29.353 -22.126 -16.402  0.00  0.00    -0.248 OA
ATOM     13  C   UNL     1      30.004 -23.132 -16.156  0.00  0.00    +0.332 C 
BRANCH  13  14
ATOM     14  O   UNL     1      29.433 -24.347 -15.943  0.00  0.00    -0.479 OA
ATOM     15  H   UNL     1      28.719 -24.431 -15.343  0.00  0.00    +0.295 HD
ENDBRANCH  13  14
ENDBRANCH  11  13
BRANCH  11  16
ATOM     16  CB  UNL     1      32.094 -22.833 -14.719  0.00  0.00    +0.043 C 
BRANCH  16  17
ATOM     17  CG  UNL     1      31.377 -23.442 -13.507  0.00  0.00    +0.112 C 
BRANCH  17  19
ATOM     18  OE2 UNL     1      30.841 -25.799 -13.810  0.00  0.00    -0.250 OA
ATOM     19  CD  UNL     1      31.582 -24.935 -13.364  0.00  0.00    +0.314 C 
BRANCH  19  20
ATOM     20  OE1 UNL     1      32.688 -25.219 -12.628  0.00  0.00    -0.480 OA
ATOM     21  HE1 UNL     1      32.742 -26.028 -12.157  0.00  0.00    +0.295 HD
ENDBRANCH  19  20
ENDBRANCH  17  19
ENDBRANCH  16  17
ENDBRANCH  11  16
ENDBRANCH   8  11
ENDBRANCH   2   9
BRANCH   1  22
ATOM     22  N   UNL     1      34.799 -18.973 -21.826  0.00  0.00    -0.292 N 
BRANCH  22  23
ATOM     23  C   UNL     1      35.780 -17.941 -21.572  0.00  0.00    +0.118 C 
BRANCH  23  28
ATOM     24  O   UNL     1      34.012 -14.851 -25.296  0.00  0.00    -0.209 OA
ATOM     25  N   UNL     1      33.420 -12.779 -21.919  0.00  0.00    -0.275 N 
ATOM     26  N   UNL     1      33.253 -12.938 -24.289  0.00  0.00    -0.302 NA
ATOM     27  N   UNL     1      32.515 -11.046 -23.118  0.00  0.00    -0.320 N 
ATOM     28  C   UNL     1      35.162 -16.585 -21.657  0.00  0.00    -0.002 C 
ATOM     29  C   UNL     1      34.801 -16.063 -22.899  0.00  0.00    +0.011 C 
ATOM     30  C   UNL     1      34.222 -14.793 -22.968  0.00  0.00    +0.108 C 
ATOM     31  C   UNL     1      34.002 -14.044 -21.805  0.00  0.00    +0.063 C 
ATOM     32  C   UNL     1      34.947 -15.846 -20.495  0.00  0.00    -0.001 C 
ATOM     33  C   UNL     1      34.367 -14.577 -20.568  0.00  0.00    +0.015 C 
ATOM     34  C   UNL     1      33.822 -14.200 -24.274  0.00  0.00    +0.208 C 
ATOM     35  C   UNL     1      33.078 -12.298 -23.162  0.00  0.00    +0.248 C 
ATOM     36  H   UNL     1      33.257 -12.236 -21.114  0.00  0.00    +0.156 HD
ATOM     37  H   UNL     1      32.397 -10.590 -22.254  0.00  0.00    +0.146 HD
ATOM     38  H   UNL     1      32.231 -10.606 -23.952  0.00  0.00    +0.146 HD
ENDBRANCH  23  28
ENDBRANCH  22  23
BRANCH  22  39
ATOM     39  C   UNL     1      34.197 -19.051 -23.157  0.00  0.00    +0.170 C 
BRANCH  39  40
ATOM     40  C   UNL     1      34.852 -20.084 -23.961  0.00  0.00    -0.056 C 
ATOM     41  C   UNL     1      35.388 -20.931 -24.624  0.00  0.00    -0.012 C 
ENDBRANCH  39  40
ENDBRANCH  22  39
ENDBRANCH   1  22
TORSDOF 13
ENDMDL
MODEL 2
REMARK VINA RESULT:     -10.7      1.893      2.631
REMARK  Name = 443388
REMARK  13 active torsions:
REMARK  status: ('A' for Active; 'I' for Inactive)
REMARK    1  A    between atoms: C_1  and  N_22
REMARK    2  A    between atoms: C_2  and  C_9
REMARK    3  A    between atoms: N_8  and  CA_11
REMARK    4  A    between atoms: CA_11  and  C_13
REMARK    5  A    between atoms: CA_11  and  CB_16
REMARK    6  A    between atoms: C_13  and  O_14
REMARK    7  A    between atoms: CB_16  and  CG_17
REMARK    8  A    between atoms: CG_17  and  CD_19
REMARK    9  A    between atoms: CD_19  and  OE1_20
REMARK   10  A    between atoms: N_22  and  C_23
REMARK   11  A    between atoms: N_22  and  C_39
REMARK   12  A    between atoms: C_23  and  C_28
REMARK   13  A    between atoms: C_39  and  C_40
REMARK                            x       y       z     vdW  Elec       q    Type
REMARK                         _______ _______ _______ _____ _____    ______ ____
ROOT
ATOM      1  C   UNL     1      34.686 -19.967 -20.681  0.00  0.00    +0.049 C 
ATOM      2  C   UNL     1      34.270 -21.965 -18.779  0.00  0.00    +0.053 C 
ATOM      3  C   UNL     1      33.389 -20.283 -20.274  0.00  0.00    +0.015 C 
ATOM      4  C   UNL     1      35.774 -20.649 -20.136  0.00  0.00    +0.015 C 
ATOM      5  C   UNL     1      33.182 -21.282 -19.323  0.00  0.00    +0.006 C 
ATOM      6  C   UNL     1      35.566 -21.648 -19.185  0.00  0.00    +0.006 C 
ENDROOT
BRANCH   2   9
ATOM      7  O   UNL     1      33.731 -24.156 -18.141  0.00  0.00    -0.270 OA
ATOM      8  N   UNL     1      34.243 -22.659 -16.446  0.00  0.00    -0.293 N 
ATOM      9  C   ACE A   0      34.052 -23.007 -17.788  0.00  0.00    +0.246 C 
ATOM     10  H   UNL     1      34.497 -21.730 -16.238  0.00  0.00    +0.150 HD
BRANCH   8  11
ATOM     11  CA  UNL     1      34.087 -23.587 -15.349  0.00  0.00    +0.172 C 
BRANCH  11  13
ATOM     12  OXT UNL     1      31.653 -23.585 -15.361  0.00  0.00    -0.248 OA
ATOM     13  C   UNL     1      32.704 -23.383 -14.769  0.00  0.00    +0.332 C 
BRANCH  13  14
ATOM     14  O   UNL     1      32.753 -22.975 -13.473  0.00  0.00    -0.479 OA
ATOM     15  H   UNL     1      33.566 -22.989 -13.008  0.00  0.00    +0.295 HD
ENDBRANCH  13  14
ENDBRANCH  11  13
BRANCH  11  16
ATOM     16  CB  UNL     1      35.215 -23.478 -14.316  0.00  0.00    +0.043 C 
BRANCH  16  17
ATOM     17  CG  UNL     1      36.570 -24.059 -14.741  0.00  0.00    +0.112 C 
BRANCH  17  19
ATOM     18  OE2 UNL     1      37.208 -21.913 -15.701  0.00  0.00    -0.250 OA
ATOM     19  CD  UNL     1      37.520 -23.032 -15.319  0.00  0.00    +0.314 C 
BRANCH  19  20
ATOM     20  OE1 UNL     1      38.786 -23.517 -15.408  0.00  0.00    -0.480 OA
ATOM     21  HE1 UNL     1      39.513 -22.926 -15.430  0.00  0.00    +0.295 HD
ENDBRANCH  19  20
ENDBRANCH  17  19
ENDBRANCH  16  17
ENDBRANCH  11  16
ENDBRANCH   8  11
ENDBRANCH   2   9
BRANCH   1  22
ATOM     22  N   UNL     1      34.896 -18.965 -21.636  0.00  0.00    -0.292 N 
BRANCH  22  23
ATOM     23  C   UNL     1      35.844 -17.897 -21.411  0.00  0.00    +0.118 C 
BRANCH  23  28
ATOM     24  O   UNL     1      34.112 -14.902 -25.229  0.00  0.00    -0.209 OA
ATOM     25  N   UNL     1      33.329 -12.820 -21.897  0.00  0.00    -0.275 N 
ATOM     26  N   UNL     1      33.254 -13.006 -24.270  0.00  0.00    -0.302 NA
ATOM     27  N   UNL     1      32.412 -11.129 -23.147  0.00  0.00    -0.320 N 
ATOM     28  C   UNL     1      35.185 -16.563 -21.533  0.00  0.00    -0.002 C 
ATOM     29  C   UNL     1      34.852 -16.065 -22.792  0.00  0.00    +0.011 C 
ATOM     30  C   UNL     1      34.235 -14.816 -22.895  0.00  0.00    +0.108 C 
ATOM     31  C   UNL     1      33.948 -14.063 -21.749  0.00  0.00    +0.063 C 
ATOM     32  C   UNL     1      34.903 -15.820 -20.386  0.00  0.00    -0.001 C 
ATOM     33  C   UNL     1      34.285 -14.573 -20.494  0.00  0.00    +0.015 C 
ATOM     34  C   UNL     1      33.863 -14.248 -24.221  0.00  0.00    +0.208 C 
ATOM     35  C   UNL     1      33.017 -12.362 -23.157  0.00  0.00    +0.248 C 
ATOM     36  H   UNL     1      33.119 -12.274 -21.105  0.00  0.00    +0.156 HD
ATOM     37  H   UNL     1      32.247 -10.669 -22.292  0.00  0.00    +0.146 HD
ATOM     38  H   UNL     1      32.143 -10.706 -23.994  0.00  0.00    +0.146 HD
ENDBRANCH  23  28
ENDBRANCH  22  23
BRANCH  22  39
ATOM     39  C   UNL     1      34.140 -18.973 -22.888  0.00  0.00    +0.170 C 
BRANCH  39  40
ATOM     40  C   UNL     1      34.722 -19.924 -23.838  0.00  0.00    -0.056 C 
ATOM     41  C   UNL     1      35.202 -20.702 -24.617  0.00  0.00    -0.012 C 
ENDBRANCH  39  40
ENDBRANCH  22  39
ENDBRANCH   1  22
TORSDOF 13
ENDMDL
MODEL 3
REMARK VINA RESULT:     -10.6      2.452      3.259
REMARK  Name = 443388
REMARK  13 active torsions:
REMARK  status: ('A' for Active; 'I' for Inactive)
REMARK    1  A    between atoms: C_1  and  N_22
REMARK    2  A    between atoms: C_2  and  C_9
REMARK    3  A    between atoms: N_8  and  CA_11
REMARK    4  A    between atoms: CA_11  and  C_13
REMARK    5  A    between atoms: CA_11  and  CB_16
REMARK    6  A    between atoms: C_13  and  O_14
REMARK    7  A    between atoms: CB_16  and  CG_17
REMARK    8  A    between atoms: CG_17  and  CD_19
REMARK    9  A    between atoms: CD_19  and  OE1_20
REMARK   10  A    between atoms: N_22  and  C_23
REMARK   11  A    between atoms: N_22  and  C_39
REMARK   12  A    between atoms: C_23  and  C_28
REMARK   13  A    between atoms: C_39  and  C_40
REMARK                            x       y       z     vdW  Elec       q    Type
REMARK                         _______ _______ _______ _____ _____    ______ ____
ROOT
ATOM      1  C   UNL     1      34.752 -19.588 -20.904  0.00  0.00    +0.049 C 
ATOM      2  C   UNL     1      34.326 -21.721 -19.158  0.00  0.00    +0.053 C 
ATOM      3  C   UNL     1      35.840 -20.265 -20.352  0.00  0.00    +0.015 C 
ATOM      4  C   UNL     1      33.452 -19.977 -20.584  0.00  0.00    +0.015 C 
ATOM      5  C   UNL     1      35.626 -21.331 -19.479  0.00  0.00    +0.006 C 
ATOM      6  C   UNL     1      33.239 -21.044 -19.711  0.00  0.00    +0.006 C 
ENDROOT
BRANCH   2   9
ATOM      7  O   UNL     1      33.837 -23.965 -18.688  0.00  0.00    -0.270 OA
ATOM      8  N   UNL     1      34.231 -22.568 -16.879  0.00  0.00    -0.293 N 
ATOM      9  C   ACE A   0      34.104 -22.833 -18.247  0.00  0.00    +0.246 C 
ATOM     10  H   UNL     1      34.444 -21.649 -16.600  0.00  0.00    +0.150 HD
BRANCH   8  11
ATOM     11  CA  UNL     1      34.064 -23.572 -15.852  0.00  0.00    +0.172 C 
BRANCH  11  13
ATOM     12  OXT UNL     1      31.643 -23.433 -15.637  0.00  0.00    -0.248 OA
ATOM     13  C   UNL     1      32.754 -23.292 -15.145  0.00  0.00    +0.332 C 
BRANCH  13  14
ATOM     14  O   UNL     1      32.947 -22.892 -13.860  0.00  0.00    -0.479 OA
ATOM     15  H   UNL     1      33.087 -23.529 -13.188  0.00  0.00    +0.295 HD
ENDBRANCH  13  14
ENDBRANCH  11  13
BRANCH  11  16
ATOM     16  CB  UNL     1      35.270 -23.661 -14.909  0.00  0.00    +0.043 C 
BRANCH  16  17
ATOM     17  CG  UNL     1      36.605 -23.168 -15.483  0.00  0.00    +0.112 C 
BRANCH  17  19
ATOM     18  OE2 UNL     1      37.787 -23.331 -13.359  0.00  0.00    -0.250 OA
ATOM     19  CD  UNL     1      37.790 -23.427 -14.578  0.00  0.00    +0.314 C 
BRANCH  19  20
ATOM     20  OE1 UNL     1      38.902 -23.747 -15.291  0.00  0.00    -0.480 OA
ATOM     21  HE1 UNL     1      39.366 -23.081 -15.760  0.00  0.00    +0.295 HD
ENDBRANCH  19  20
ENDBRANCH  17  19
ENDBRANCH  16  17
ENDBRANCH  11  16
ENDBRANCH   8  11
ENDBRANCH   2   9
BRANCH   1  22
ATOM     22  N   UNL     1      34.965 -18.516 -21.781  0.00  0.00    -0.292 N 
BRANCH  22  23
ATOM     23  C   UNL     1      35.718 -17.350 -21.374  0.00  0.00    +0.118 C 
BRANCH  23  28
ATOM     24  O   UNL     1      32.256 -14.334 -19.036  0.00  0.00    -0.209 OA
ATOM     25  N   UNL     1      32.882 -12.570 -22.578  0.00  0.00    -0.275 N 
ATOM     26  N   UNL     1      31.774 -12.614 -20.470  0.00  0.00    -0.302 NA
ATOM     27  N   UNL     1      31.388 -10.916 -22.039  0.00  0.00    -0.320 N 
ATOM     28  C   UNL     1      34.975 -16.096 -21.696  0.00  0.00    -0.002 C 
ATOM     29  C   UNL     1      34.083 -15.559 -20.768  0.00  0.00    +0.011 C 
ATOM     30  C   UNL     1      33.394 -14.384 -21.078  0.00  0.00    +0.108 C 
ATOM     31  C   UNL     1      33.591 -13.743 -22.308  0.00  0.00    +0.063 C 
ATOM     32  C   UNL     1      35.177 -15.464 -22.923  0.00  0.00    -0.001 C 
ATOM     33  C   UNL     1      34.487 -14.290 -23.229  0.00  0.00    +0.015 C 
ATOM     34  C   UNL     1      32.433 -13.778 -20.115  0.00  0.00    +0.208 C 
ATOM     35  C   UNL     1      32.010 -12.072 -21.637  0.00  0.00    +0.248 C 
ATOM     36  H   UNL     1      33.005 -12.104 -23.436  0.00  0.00    +0.156 HD
ATOM     37  H   UNL     1      31.586 -10.533 -22.923  0.00  0.00    +0.146 HD
ATOM     38  H   UNL     1      30.744 -10.471 -21.442  0.00  0.00    +0.146 HD
ENDBRANCH  23  28
ENDBRANCH  22  23
BRANCH  22  39
ATOM     39  C   UNL     1      34.412 -18.552 -23.134  0.00  0.00    +0.170 C 
BRANCH  39  40
ATOM     40  C   UNL     1      34.862 -19.751 -23.845  0.00  0.00    -0.056 C 
ATOM     41  C   UNL     1      35.227 -20.736 -24.427  0.00  0.00    -0.012 C 
ENDBRANCH  39  40
ENDBRANCH  22  39
ENDBRANCH   1  22
TORSDOF 13
ENDMDL
MODEL 4
REMARK VINA RESULT:     -10.5      4.140      5.440
REMARK  Name = 443388
REMARK  13 active torsions:
REMARK  status: ('A' for Active; 'I' for Inactive)
REMARK    1  A    between atoms: C_1  and  N_22
REMARK    2  A    between atoms: C_2  and  C_9
REMARK    3  A    between atoms: N_8  and  CA_11
REMARK    4  A    between atoms: CA_11  and  C_13
REMARK    5  A    between atoms: CA_11  and  CB_16
REMARK    6  A    between atoms: C_13  and  O_14
REMARK    7  A    between atoms: CB_16  and  CG_17
REMARK    8  A    between atoms: CG_17  and  CD_19
REMARK    9  A    between atoms: CD_19  and  OE1_20
REMARK   10  A    between atoms: N_22  and  C_23
REMARK   11  A    between atoms: N_22  and  C_39
REMARK   12  A    between atoms: C_23  and  C_28
REMARK   13  A    between atoms: C_39  and  C_40
REMARK                            x       y       z     vdW  Elec       q    Type
REMARK                         _______ _______ _______ _____ _____    ______ ____
ROOT
ATOM      1  C   UNL     1      35.793 -21.319 -18.549  0.00  0.00    +0.049 C 
ATOM      2  C   UNL     1      35.940 -22.638 -16.096  0.00  0.00    +0.053 C 
ATOM      3  C   UNL     1      36.884 -21.105 -17.706  0.00  0.00    +0.015 C 
ATOM      4  C   UNL     1      34.776 -22.193 -18.165  0.00  0.00    +0.015 C 
ATOM      5  C   UNL     1      36.957 -21.765 -16.480  0.00  0.00    +0.006 C 
ATOM      6  C   UNL     1      34.850 -22.853 -16.939  0.00  0.00    +0.006 C 
ENDROOT
BRANCH   2   9
ATOM      7  O   UNL     1      35.000 -23.836 -14.312  0.00  0.00    -0.270 OA
ATOM      8  N   UNL     1      37.276 -23.400 -14.209  0.00  0.00    -0.293 N 
ATOM      9  C   ACE A   0      36.017 -23.326 -14.816  0.00  0.00    +0.246 C 
ATOM     10  H   UNL     1      38.038 -22.974 -14.664  0.00  0.00    +0.150 HD
BRANCH   8  11
ATOM     11  CA  UNL     1      37.517 -24.068 -12.950  0.00  0.00    +0.172 C 
BRANCH  11  13
ATOM     12  OXT UNL     1      38.202 -22.425 -11.289  0.00  0.00    -0.248 OA
ATOM     13  C   UNL     1      37.311 -23.053 -11.846  0.00  0.00    +0.332 C 
BRANCH  13  14
ATOM     14  O   UNL     1      35.995 -22.879 -11.556  0.00  0.00    -0.479 OA
ATOM     15  H   UNL     1      35.700 -22.072 -11.183  0.00  0.00    +0.295 HD
ENDBRANCH  13  14
ENDBRANCH  11  13
BRANCH  11  16
ATOM     16  CB  UNL     1      38.882 -24.766 -12.903  0.00  0.00    +0.043 C 
BRANCH  16  17
ATOM     17  CG  UNL     1      38.989 -26.077 -13.692  0.00  0.00    +0.112 C 
BRANCH  17  19
ATOM     18  OE2 UNL     1      41.320 -26.784 -13.731  0.00  0.00    -0.250 OA
ATOM     19  CD  UNL     1      40.352 -26.309 -14.308  0.00  0.00    +0.314 C 
BRANCH  19  20
ATOM     20  OE1 UNL     1      40.398 -25.882 -15.598  0.00  0.00    -0.480 OA
ATOM     21  HE1 UNL     1      40.902 -26.355 -16.230  0.00  0.00    +0.295 HD
ENDBRANCH  19  20
ENDBRANCH  17  19
ENDBRANCH  16  17
ENDBRANCH  11  16
ENDBRANCH   8  11
ENDBRANCH   2   9
BRANCH   1  22
ATOM     22  N   UNL     1      35.718 -20.656 -19.781  0.00  0.00    -0.292 N 
BRANCH  22  23
ATOM     23  C   UNL     1      36.676 -19.636 -20.145  0.00  0.00    +0.118 C 
BRANCH  23  28
ATOM     24  O   UNL     1      34.700 -14.880 -20.005  0.00  0.00    -0.209 OA
ATOM     25  N   UNL     1      34.432 -15.956 -23.855  0.00  0.00    -0.275 N 
ATOM     26  N   UNL     1      34.072 -14.341 -22.142  0.00  0.00    -0.302 NA
ATOM     27  N   UNL     1      33.486 -13.933 -24.374  0.00  0.00    -0.320 N 
ATOM     28  C   UNL     1      36.087 -18.675 -21.123  0.00  0.00    -0.002 C 
ATOM     29  C   UNL     1      35.643 -17.426 -20.689  0.00  0.00    +0.011 C 
ATOM     30  C   UNL     1      35.094 -16.532 -21.612  0.00  0.00    +0.108 C 
ATOM     31  C   UNL     1      34.986 -16.879 -22.965  0.00  0.00    +0.063 C 
ATOM     32  C   UNL     1      35.983 -19.028 -22.468  0.00  0.00    -0.001 C 
ATOM     33  C   UNL     1      35.435 -18.132 -23.388  0.00  0.00    +0.015 C 
ATOM     34  C   UNL     1      34.609 -15.189 -21.189  0.00  0.00    +0.208 C 
ATOM     35  C   UNL     1      34.005 -14.734 -23.387  0.00  0.00    +0.248 C 
ATOM     36  H   UNL     1      34.346 -16.180 -24.810  0.00  0.00    +0.156 HD
ATOM     37  H   UNL     1      33.448 -14.257 -25.302  0.00  0.00    +0.146 HD
ATOM     38  H   UNL     1      33.151 -13.034 -24.152  0.00  0.00    +0.146 HD
ENDBRANCH  23  28
ENDBRANCH  22  23
BRANCH  22  39
ATOM     39  C   UNL     1      34.649 -20.978 -20.725  0.00  0.00    +0.170 C 
BRANCH  39  40
ATOM     40  C   UNL     1      33.364 -20.462 -20.248  0.00  0.00    -0.056 C 
ATOM     41  C   UNL     1      32.311 -20.036 -19.859  0.00  0.00    -0.012 C 
ENDBRANCH  39  40
ENDBRANCH  22  39
ENDBRANCH   1  22
TORSDOF 13
ENDMDL
MODEL 5
REMARK VINA RESULT:     -10.5      1.810      2.384
REMARK  Name = 443388
REMARK  13 active torsions:
REMARK  status: ('A' for Active; 'I' for Inactive)
REMARK    1  A    between atoms: C_1  and  N_22
REMARK    2  A    between atoms: C_2  and  C_9
REMARK    3  A    between atoms: N_8  and  CA_11
REMARK    4  A    between atoms: CA_11  and  C_13
REMARK    5  A    between atoms: CA_11  and  CB_16
REMARK    6  A    between atoms: C_13  and  O_14
REMARK    7  A    between atoms: CB_16  and  CG_17
REMARK    8  A    between atoms: CG_17  and  CD_19
REMARK    9  A    between atoms: CD_19  and  OE1_20
REMARK   10  A    between atoms: N_22  and  C_23
REMARK   11  A    between atoms: N_22  and  C_39
REMARK   12  A    between atoms: C_23  and  C_28
REMARK   13  A    between atoms: C_39  and  C_40
REMARK                            x       y       z     vdW  Elec       q    Type
REMARK                         _______ _______ _______ _____ _____    ______ ____
ROOT
ATOM      1  C   UNL     1      34.750 -19.639 -21.029  0.00  0.00    +0.049 C 
ATOM      2  C   UNL     1      34.194 -21.719 -19.255  0.00  0.00    +0.053 C 
ATOM      3  C   UNL     1      35.794 -20.376 -20.469  0.00  0.00    +0.015 C 
ATOM      4  C   UNL     1      33.428 -19.943 -20.703  0.00  0.00    +0.015 C 
ATOM      5  C   UNL     1      35.516 -21.415 -19.582  0.00  0.00    +0.006 C 
ATOM      6  C   UNL     1      33.151 -20.983 -19.816  0.00  0.00    +0.006 C 
ENDROOT
BRANCH   2   9
ATOM      7  O   UNL     1      33.927 -23.985 -18.716  0.00  0.00    -0.270 OA
ATOM      8  N   UNL     1      33.633 -22.450 -17.002  0.00  0.00    -0.293 N 
ATOM      9  C   ACE A   0      33.906 -22.803 -18.329  0.00  0.00    +0.246 C 
ATOM     10  H   UNL     1      33.633 -21.495 -16.765  0.00  0.00    +0.150 HD
BRANCH   8  11
ATOM     11  CA  UNL     1      33.351 -23.413 -15.962  0.00  0.00    +0.172 C 
BRANCH  11  13
ATOM     12  OXT UNL     1      31.525 -23.324 -14.354  0.00  0.00    -0.248 OA
ATOM     13  C   UNL     1      31.926 -23.186 -15.501  0.00  0.00    +0.332 C 
BRANCH  13  14
ATOM     14  O   UNL     1      31.127 -22.764 -16.516  0.00  0.00    -0.479 OA
ATOM     15  H   UNL     1      30.467 -23.334 -16.861  0.00  0.00    +0.295 HD
ENDBRANCH  13  14
ENDBRANCH  11  13
BRANCH  11  16
ATOM     16  CB  UNL     1      34.382 -23.377 -14.827  0.00  0.00    +0.043 C 
BRANCH  16  17
ATOM     17  CG  UNL     1      35.758 -22.805 -15.191  0.00  0.00    +0.112 C 
BRANCH  17  19
ATOM     18  OE2 UNL     1      37.599 -23.127 -13.629  0.00  0.00    -0.250 OA
ATOM     19  CD  UNL     1      36.915 -23.543 -14.553  0.00  0.00    +0.314 C 
BRANCH  19  20
ATOM     20  OE1 UNL     1      37.144 -24.736 -15.163  0.00  0.00    -0.480 OA
ATOM     21  HE1 UNL     1      36.928 -24.848 -16.068  0.00  0.00    +0.295 HD
ENDBRANCH  19  20
ENDBRANCH  17  19
ENDBRANCH  16  17
ENDBRANCH  11  16
ENDBRANCH   8  11
ENDBRANCH   2   9
BRANCH   1  22
ATOM     22  N   UNL     1      35.028 -18.595 -21.920  0.00  0.00    -0.292 N 
BRANCH  22  23
ATOM     23  C   UNL     1      35.865 -17.480 -21.535  0.00  0.00    +0.118 C 
BRANCH  23  28
ATOM     24  O   UNL     1      33.842 -14.226 -24.978  0.00  0.00    -0.209 OA
ATOM     25  N   UNL     1      32.876 -12.644 -21.426  0.00  0.00    -0.275 N 
ATOM     26  N   UNL     1      32.810 -12.550 -23.805  0.00  0.00    -0.302 NA
ATOM     27  N   UNL     1      31.797 -10.911 -22.470  0.00  0.00    -0.320 N 
ATOM     28  C   UNL     1      35.082 -16.210 -21.500  0.00  0.00    -0.002 C 
ATOM     29  C   UNL     1      34.699 -15.598 -22.693  0.00  0.00    +0.011 C 
ATOM     30  C   UNL     1      33.964 -14.410 -22.650  0.00  0.00    +0.108 C 
ATOM     31  C   UNL     1      33.611 -13.832 -21.424  0.00  0.00    +0.063 C 
ATOM     32  C   UNL     1      34.734 -15.642 -20.275  0.00  0.00    -0.001 C 
ATOM     33  C   UNL     1      33.999 -14.455 -20.237  0.00  0.00    +0.015 C 
ATOM     34  C   UNL     1      33.535 -13.724 -23.901  0.00  0.00    +0.208 C 
ATOM     35  C   UNL     1      32.517 -12.070 -22.624  0.00  0.00    +0.248 C 
ATOM     36  H   UNL     1      32.617 -12.221 -20.576  0.00  0.00    +0.156 HD
ATOM     37  H   UNL     1      31.592 -10.575 -21.568  0.00  0.00    +0.146 HD
ATOM     38  H   UNL     1      31.486 -10.416 -23.263  0.00  0.00    +0.146 HD
ENDBRANCH  23  28
ENDBRANCH  22  23
BRANCH  22  39
ATOM     39  C   UNL     1      34.459 -18.606 -23.267  0.00  0.00    +0.170 C 
BRANCH  39  40
ATOM     40  C   UNL     1      34.847 -19.823 -23.983  0.00  0.00    -0.056 C 
ATOM     41  C   UNL     1      35.166 -20.819 -24.572  0.00  0.00    -0.012 C 
ENDBRANCH  39  40
ENDBRANCH  22  39
ENDBRANCH   1  22
TORSDOF 13
ENDMDL
MODEL 6
REMARK VINA RESULT:     -10.4      1.398      2.613
REMARK  Name = 443388
REMARK  13 active torsions:
REMARK  status: ('A' for Active; 'I' for Inactive)
REMARK    1  A    between atoms: C_1  and  N_22
REMARK    2  A    between atoms: C_2  and  C_9
REMARK    3  A    between atoms: N_8  and  CA_11
REMARK    4  A    between atoms: CA_11  and  C_13
REMARK    5  A    between atoms: CA_11  and  CB_16
REMARK    6  A    between atoms: C_13  and  O_14
REMARK    7  A    between atoms: CB_16  and  CG_17
REMARK    8  A    between atoms: CG_17  and  CD_19
REMARK    9  A    between atoms: CD_19  and  OE1_20
REMARK   10  A    between atoms: N_22  and  C_23
REMARK   11  A    between atoms: N_22  and  C_39
REMARK   12  A    between atoms: C_23  and  C_28
REMARK   13  A    between atoms: C_39  and  C_40
REMARK                            x       y       z     vdW  Elec       q    Type
REMARK                         _______ _______ _______ _____ _____    ______ ____
ROOT
ATOM      1  C   UNL     1      34.788 -19.960 -20.699  0.00  0.00    +0.049 C 
ATOM      2  C   UNL     1      34.445 -21.811 -18.640  0.00  0.00    +0.053 C 
ATOM      3  C   UNL     1      35.902 -20.530 -20.081  0.00  0.00    +0.015 C 
ATOM      4  C   UNL     1      33.504 -20.315 -20.288  0.00  0.00    +0.015 C 
ATOM      5  C   UNL     1      35.730 -21.455 -19.051  0.00  0.00    +0.006 C 
ATOM      6  C   UNL     1      33.333 -21.241 -19.259  0.00  0.00    +0.006 C 
ENDROOT
BRANCH   2   9
ATOM      7  O   UNL     1      33.710 -23.866 -17.785  0.00  0.00    -0.270 OA
ATOM      8  N   UNL     1      34.769 -22.426 -16.308  0.00  0.00    -0.293 N 
ATOM      9  C   ACE A   0      34.268 -22.775 -17.566  0.00  0.00    +0.246 C 
ATOM     10  H   UNL     1      35.199 -21.545 -16.206  0.00  0.00    +0.150 HD
BRANCH   8  11
ATOM     11  CA  UNL     1      34.690 -23.286 -15.149  0.00  0.00    +0.172 C 
BRANCH  11  13
ATOM     12  OXT UNL     1      35.671 -25.514 -15.131  0.00  0.00    -0.248 OA
ATOM     13  C   UNL     1      35.805 -24.305 -15.257  0.00  0.00    +0.332 C 
BRANCH  13  14
ATOM     14  O   UNL     1      36.997 -23.722 -15.554  0.00  0.00    -0.479 OA
ATOM     15  H   UNL     1      37.692 -24.235 -15.917  0.00  0.00    +0.295 HD
ENDBRANCH  13  14
ENDBRANCH  11  13
BRANCH  11  16
ATOM     16  CB  UNL     1      33.300 -23.906 -14.966  0.00  0.00    +0.043 C 
BRANCH  16  17
ATOM     17  CG  UNL     1      32.172 -22.928 -14.612  0.00  0.00    +0.112 C 
BRANCH  17  19
ATOM     18  OE2 UNL     1      29.906 -23.682 -15.091  0.00  0.00    -0.250 OA
ATOM     19  CD  UNL     1      30.924 -23.107 -15.449  0.00  0.00    +0.314 C 
BRANCH  19  20
ATOM     20  OE1 UNL     1      31.076 -22.581 -16.693  0.00  0.00    -0.480 OA
ATOM     21  HE1 UNL     1      30.334 -22.500 -17.261  0.00  0.00    +0.295 HD
ENDBRANCH  19  20
ENDBRANCH  17  19
ENDBRANCH  16  17
ENDBRANCH  11  16
ENDBRANCH   8  11
ENDBRANCH   2   9
BRANCH   1  22
ATOM     22  N   UNL     1      34.960 -19.029 -21.732  0.00  0.00    -0.292 N 
BRANCH  22  23
ATOM     23  C   UNL     1      35.918 -17.952 -21.623  0.00  0.00    +0.118 C 
BRANCH  23  28
ATOM     24  O   UNL     1      34.037 -14.845 -25.277  0.00  0.00    -0.209 OA
ATOM     25  N   UNL     1      33.320 -12.899 -21.850  0.00  0.00    -0.275 N 
ATOM     26  N   UNL     1      33.180 -12.999 -24.225  0.00  0.00    -0.302 NA
ATOM     27  N   UNL     1      32.344 -11.177 -23.010  0.00  0.00    -0.320 N 
ATOM     28  C   UNL     1      35.238 -16.625 -21.676  0.00  0.00    -0.002 C 
ATOM     29  C   UNL     1      34.862 -16.085 -22.906  0.00  0.00    +0.011 C 
ATOM     30  C   UNL     1      34.225 -14.843 -22.946  0.00  0.00    +0.108 C 
ATOM     31  C   UNL     1      33.959 -14.137 -21.765  0.00  0.00    +0.063 C 
ATOM     32  C   UNL     1      34.978 -15.929 -20.496  0.00  0.00    -0.001 C 
ATOM     33  C   UNL     1      34.339 -14.688 -20.540  0.00  0.00    +0.015 C 
ATOM     34  C   UNL     1      33.808 -14.232 -24.239  0.00  0.00    +0.208 C 
ATOM     35  C   UNL     1      32.966 -12.400 -23.082  0.00  0.00    +0.248 C 
ATOM     36  H   UNL     1      33.124 -12.386 -21.032  0.00  0.00    +0.156 HD
ATOM     37  H   UNL     1      32.197 -10.752 -22.135  0.00  0.00    +0.146 HD
ATOM     38  H   UNL     1      32.046 -10.728 -23.833  0.00  0.00    +0.146 HD
ENDBRANCH  23  28
ENDBRANCH  22  23
BRANCH  22  39
ATOM     39  C   UNL     1      34.154 -19.125 -22.948  0.00  0.00    +0.170 C 
BRANCH  39  40
ATOM     40  C   UNL     1      34.776 -20.036 -23.911  0.00  0.00    -0.056 C 
ATOM     41  C   UNL     1      35.284 -20.787 -24.698  0.00  0.00    -0.012 C 
ENDBRANCH  39  40
ENDBRANCH  22  39
ENDBRANCH   1  22
TORSDOF 13
ENDMDL
MODEL 7
REMARK VINA RESULT:     -10.3      4.378     11.408
REMARK  Name = 443388
REMARK  13 active torsions:
REMARK  status: ('A' for Active; 'I' for Inactive)
REMARK    1  A    between atoms: C_1  and  N_22
REMARK    2  A    between atoms: C_2  and  C_9
REMARK    3  A    between atoms: N_8  and  CA_11
REMARK    4  A    between atoms: CA_11  and  C_13
REMARK    5  A    between atoms: CA_11  and  CB_16
REMARK    6  A    between atoms: C_13  and  O_14
REMARK    7  A    between atoms: CB_16  and  CG_17
REMARK    8  A    between atoms: CG_17  and  CD_19
REMARK    9  A    between atoms: CD_19  and  OE1_20
REMARK   10  A    between atoms: N_22  and  C_23
REMARK   11  A    between atoms: N_22  and  C_39
REMARK   12  A    between atoms: C_23  and  C_28
REMARK   13  A    between atoms: C_39  and  C_40
REMARK                            x       y       z     vdW  Elec       q    Type
REMARK                         _______ _______ _______ _____ _____    ______ ____
ROOT
ATOM      1  C   UNL     1      33.695 -23.131 -15.999  0.00  0.00    +0.049 C 
ATOM      2  C   UNL     1      34.983 -21.976 -18.188  0.00  0.00    +0.053 C 
ATOM      3  C   UNL     1      33.017 -22.985 -17.210  0.00  0.00    +0.015 C 
ATOM      4  C   UNL     1      35.016 -22.699 -15.883  0.00  0.00    +0.015 C 
ATOM      5  C   UNL     1      33.661 -22.407 -18.304  0.00  0.00    +0.006 C 
ATOM      6  C   UNL     1      35.660 -22.122 -16.978  0.00  0.00    +0.006 C 
ENDROOT
BRANCH   2   9
ATOM      7  O   UNL     1      36.825 -21.684 -19.609  0.00  0.00    -0.270 OA
ATOM      8  N   UNL     1      34.914 -20.463 -20.093  0.00  0.00    -0.293 N 
ATOM      9  C   ACE A   0      35.653 -21.373 -19.329  0.00  0.00    +0.246 C 
ATOM     10  H   UNL     1      33.991 -20.263 -19.814  0.00  0.00    +0.150 HD
BRANCH   8  11
ATOM     11  CA  UNL     1      35.432 -19.799 -21.268  0.00  0.00    +0.172 C 
BRANCH  11  13
ATOM     12  OXT UNL     1      35.740 -17.481 -20.592  0.00  0.00    -0.248 OA
ATOM     13  C   UNL     1      36.214 -18.589 -20.803  0.00  0.00    +0.332 C 
BRANCH  13  14
ATOM     14  O   UNL     1      37.527 -18.879 -20.604  0.00  0.00    -0.479 OA
ATOM     15  H   UNL     1      38.189 -18.374 -21.034  0.00  0.00    +0.295 HD
ENDBRANCH  13  14
ENDBRANCH  11  13
BRANCH  11  16
ATOM     16  CB  UNL     1      34.340 -19.475 -22.295  0.00  0.00    +0.043 C 
BRANCH  16  17
ATOM     17  CG  UNL     1      34.826 -19.208 -23.725  0.00  0.00    +0.112 C 
BRANCH  17  19
ATOM     18  OE2 UNL     1      33.804 -17.476 -25.099  0.00  0.00    -0.250 OA
ATOM     19  CD  UNL     1      34.572 -17.795 -24.203  0.00  0.00    +0.314 C 
BRANCH  19  20
ATOM     20  OE1 UNL     1      35.341 -16.895 -23.535  0.00  0.00    -0.480 OA
ATOM     21  HE1 UNL     1      35.397 -16.928 -22.601  0.00  0.00    +0.295 HD
ENDBRANCH  19  20
ENDBRANCH  17  19
ENDBRANCH  16  17
ENDBRANCH  11  16
ENDBRANCH   8  11
ENDBRANCH   2   9
BRANCH   1  22
ATOM     22  N   UNL     1      33.049 -23.710 -14.900  0.00  0.00    -0.292 N 
BRANCH  22  23
ATOM     23  C   UNL     1      33.542 -23.524 -13.553  0.00  0.00    +0.118 C 
BRANCH  23  28
ATOM     24  O   UNL     1      36.466 -27.301 -15.484  0.00  0.00    -0.209 OA
ATOM     25  N   UNL     1      38.955 -25.216 -13.138  0.00  0.00    -0.275 N 
ATOM     26  N   UNL     1      38.573 -27.036 -14.626  0.00  0.00    -0.302 NA
ATOM     27  N   UNL     1      40.676 -26.634 -13.672  0.00  0.00    -0.320 N 
ATOM     28  C   UNL     1      34.963 -23.964 -13.439  0.00  0.00    -0.002 C 
ATOM     29  C   UNL     1      35.403 -25.083 -14.146  0.00  0.00    +0.011 C 
ATOM     30  C   UNL     1      36.736 -25.487 -14.034  0.00  0.00    +0.108 C 
ATOM     31  C   UNL     1      37.631 -24.779 -13.222  0.00  0.00    +0.063 C 
ATOM     32  C   UNL     1      35.848 -23.253 -12.628  0.00  0.00    -0.001 C 
ATOM     33  C   UNL     1      37.180 -23.660 -12.520  0.00  0.00    +0.015 C 
ATOM     34  C   UNL     1      37.245 -26.676 -14.771  0.00  0.00    +0.208 C 
ATOM     35  C   UNL     1      39.350 -26.326 -13.850  0.00  0.00    +0.248 C 
ATOM     36  H   UNL     1      39.600 -24.733 -12.572  0.00  0.00    +0.156 HD
ATOM     37  H   UNL     1      41.235 -26.081 -13.081  0.00  0.00    +0.146 HD
ATOM     38  H   UNL     1      41.067 -27.410 -14.136  0.00  0.00    +0.146 HD
ENDBRANCH  23  28
ENDBRANCH  22  23
BRANCH  22  39
ATOM     39  C   UNL     1      31.857 -24.534 -15.098  0.00  0.00    +0.170 C 
BRANCH  39  40
ATOM     40  C   UNL     1      30.642 -23.758 -14.840  0.00  0.00    -0.056 C 
ATOM     41  C   UNL     1      29.648 -23.118 -14.628  0.00  0.00    -0.012 C 
ENDBRANCH  39  40
ENDBRANCH  22  39
ENDBRANCH   1  22
TORSDOF 13
ENDMDL
MODEL 8
REMARK VINA RESULT:     -10.3      1.436      2.066
REMARK  Name = 443388
REMARK  13 active torsions:
REMARK  status: ('A' for Active; 'I' for Inactive)
REMARK    1  A    between atoms: C_1  and  N_22
REMARK    2  A    between atoms: C_2  and  C_9
REMARK    3  A    between atoms: N_8  and  CA_11
REMARK    4  A    between atoms: CA_11  and  C_13
REMARK    5  A    between atoms: CA_11  and  CB_16
REMARK    6  A    between atoms: C_13  and  O_14
REMARK    7  A    between atoms: CB_16  and  CG_17
REMARK    8  A    between atoms: CG_17  and  CD_19
REMARK    9  A    between atoms: CD_19  and  OE1_20
REMARK   10  A    between atoms: N_22  and  C_23
REMARK   11  A    between atoms: N_22  and  C_39
REMARK   12  A    between atoms: C_23  and  C_28
REMARK   13  A    between atoms: C_39  and  C_40
REMARK                            x       y       z     vdW  Elec       q    Type
REMARK                         _______ _______ _______ _____ _____    ______ ____
ROOT
ATOM      1  C   UNL     1      35.124 -19.780 -20.683  0.00  0.00    +0.049 C 
ATOM      2  C   UNL     1      34.022 -21.748 -19.042  0.00  0.00    +0.053 C 
ATOM      3  C   UNL     1      35.956 -20.690 -20.031  0.00  0.00    +0.015 C 
ATOM      4  C   UNL     1      33.741 -19.854 -20.515  0.00  0.00    +0.015 C 
ATOM      5  C   UNL     1      35.405 -21.674 -19.210  0.00  0.00    +0.006 C 
ATOM      6  C   UNL     1      33.191 -20.839 -19.694  0.00  0.00    +0.006 C 
ENDROOT
BRANCH   2   9
ATOM      7  O   UNL     1      33.776 -23.967 -18.325  0.00  0.00    -0.270 OA
ATOM      8  N   UNL     1      32.549 -22.352 -17.201  0.00  0.00    -0.293 N 
ATOM      9  C   ACE A   0      33.449 -22.775 -18.185  0.00  0.00    +0.246 C 
ATOM     10  H   UNL     1      32.335 -21.393 -17.147  0.00  0.00    +0.150 HD
BRANCH   8  11
ATOM     11  CA  UNL     1      31.915 -23.248 -16.261  0.00  0.00    +0.172 C 
BRANCH  11  13
ATOM     12  OXT UNL     1      29.898 -21.932 -16.621  0.00  0.00    -0.248 OA
ATOM     13  C   UNL     1      30.422 -22.997 -16.324  0.00  0.00    +0.332 C 
BRANCH  13  14
ATOM     14  O   UNL     1      29.707 -24.118 -16.044  0.00  0.00    -0.479 OA
ATOM     15  H   UNL     1      28.893 -24.053 -15.586  0.00  0.00    +0.295 HD
ENDBRANCH  13  14
ENDBRANCH  11  13
BRANCH  11  16
ATOM     16  CB  UNL     1      32.502 -23.137 -14.849  0.00  0.00    +0.043 C 
BRANCH  16  17
ATOM     17  CG  UNL     1      31.563 -23.529 -13.701  0.00  0.00    +0.112 C 
BRANCH  17  19
ATOM     18  OE2 UNL     1      30.755 -25.825 -13.799  0.00  0.00    -0.250 OA
ATOM     19  CD  UNL     1      31.567 -25.009 -13.387  0.00  0.00    +0.314 C 
BRANCH  19  20
ATOM     20  OE1 UNL     1      32.578 -25.338 -12.539  0.00  0.00    -0.480 OA
ATOM     21  HE1 UNL     1      32.537 -25.079 -11.640  0.00  0.00    +0.295 HD
ENDBRANCH  19  20
ENDBRANCH  17  19
ENDBRANCH  16  17
ENDBRANCH  11  16
ENDBRANCH   8  11
ENDBRANCH   2   9
BRANCH   1  22
ATOM     22  N   UNL     1      35.676 -18.790 -21.506  0.00  0.00    -0.292 N 
BRANCH  22  23
ATOM     23  C   UNL     1      36.105 -17.518 -20.970  0.00  0.00    +0.118 C 
BRANCH  23  28
ATOM     24  O   UNL     1      32.441 -14.502 -18.963  0.00  0.00    -0.209 OA
ATOM     25  N   UNL     1      32.744 -13.300 -22.772  0.00  0.00    -0.275 N 
ATOM     26  N   UNL     1      31.729 -13.098 -20.628  0.00  0.00    -0.302 NA
ATOM     27  N   UNL     1      31.108 -11.730 -22.427  0.00  0.00    -0.320 N 
ATOM     28  C   UNL     1      35.224 -16.412 -21.449  0.00  0.00    -0.002 C 
ATOM     29  C   UNL     1      34.318 -15.816 -20.572  0.00  0.00    +0.011 C 
ATOM     30  C   UNL     1      33.499 -14.781 -21.030  0.00  0.00    +0.108 C 
ATOM     31  C   UNL     1      33.580 -14.338 -22.356  0.00  0.00    +0.063 C 
ATOM     32  C   UNL     1      35.312 -15.977 -22.771  0.00  0.00    -0.001 C 
ATOM     33  C   UNL     1      34.492 -14.941 -23.224  0.00  0.00    +0.015 C 
ATOM     34  C   UNL     1      32.518 -14.118 -20.126  0.00  0.00    +0.208 C 
ATOM     35  C   UNL     1      31.862 -12.738 -21.878  0.00  0.00    +0.248 C 
ATOM     36  H   UNL     1      32.785 -12.974 -23.700  0.00  0.00    +0.156 HD
ATOM     37  H   UNL     1      31.231 -11.482 -23.371  0.00  0.00    +0.146 HD
ATOM     38  H   UNL     1      30.445 -11.256 -21.875  0.00  0.00    +0.146 HD
ENDBRANCH  23  28
ENDBRANCH  22  23
BRANCH  22  39
ATOM     39  C   UNL     1      35.818 -19.025 -22.943  0.00  0.00    +0.170 C 
BRANCH  39  40
ATOM     40  C   UNL     1      34.508 -19.033 -23.598  0.00  0.00    -0.056 C 
ATOM     41  C   UNL     1      33.435 -19.041 -24.138  0.00  0.00    -0.012 C 
ENDBRANCH  39  40
ENDBRANCH  22  39
ENDBRANCH   1  22
TORSDOF 13
ENDMDL
MODEL 9
REMARK VINA RESULT:      -9.9      3.809      5.161
REMARK  Name = 443388
REMARK  13 active torsions:
REMARK  status: ('A' for Active; 'I' for Inactive)
REMARK    1  A    between atoms: C_1  and  N_22
REMARK    2  A    between atoms: C_2  and  C_9
REMARK    3  A    between atoms: N_8  and  CA_11
REMARK    4  A    between atoms: CA_11  and  C_13
REMARK    5  A    between atoms: CA_11  and  CB_16
REMARK    6  A    between atoms: C_13  and  O_14
REMARK    7  A    between atoms: CB_16  and  CG_17
REMARK    8  A    between atoms: CG_17  and  CD_19
REMARK    9  A    between atoms: CD_19  and  OE1_20
REMARK   10  A    between atoms: N_22  and  C_23
REMARK   11  A    between atoms: N_22  and  C_39
REMARK   12  A    between atoms: C_23  and  C_28
REMARK   13  A    between atoms: C_39  and  C_40
REMARK                            x       y       z     vdW  Elec       q    Type
REMARK                         _______ _______ _______ _____ _____    ______ ____
ROOT
ATOM      1  C   UNL     1      36.081 -20.909 -18.869  0.00  0.00    +0.049 C 
ATOM      2  C   UNL     1      36.565 -22.167 -16.427  0.00  0.00    +0.053 C 
ATOM      3  C   UNL     1      37.101 -20.448 -18.037  0.00  0.00    +0.015 C 
ATOM      4  C   UNL     1      35.303 -22.000 -18.480  0.00  0.00    +0.015 C 
ATOM      5  C   UNL     1      37.343 -21.077 -16.816  0.00  0.00    +0.006 C 
ATOM      6  C   UNL     1      35.545 -22.628 -17.259  0.00  0.00    +0.006 C 
ENDROOT
BRANCH   2   9
ATOM      7  O   UNL     1      36.098 -22.581 -14.167  0.00  0.00    -0.270 OA
ATOM      8  N   UNL     1      37.876 -23.736 -15.106  0.00  0.00    -0.293 N 
ATOM      9  C   ACE A   0      36.817 -22.822 -15.153  0.00  0.00    +0.246 C 
ATOM     10  H   UNL     1      38.404 -23.878 -15.925  0.00  0.00    +0.150 HD
BRANCH   8  11
ATOM     11  CA  UNL     1      38.236 -24.482 -13.922  0.00  0.00    +0.172 C 
BRANCH  11  13
ATOM     12  OXT UNL     1      40.633 -24.909 -13.909  0.00  0.00    -0.248 OA
ATOM     13  C   UNL     1      39.504 -25.250 -14.232  0.00  0.00    +0.332 C 
BRANCH  13  14
ATOM     14  O   UNL     1      39.244 -26.410 -14.892  0.00  0.00    -0.479 OA
ATOM     15  H   UNL     1      39.706 -26.613 -15.682  0.00  0.00    +0.295 HD
ENDBRANCH  13  14
ENDBRANCH  11  13
BRANCH  11  16
ATOM     16  CB  UNL     1      37.091 -25.360 -13.403  0.00  0.00    +0.043 C 
BRANCH  16  17
ATOM     17  CG  UNL     1      36.891 -25.369 -11.882  0.00  0.00    +0.112 C 
BRANCH  17  19
ATOM     18  OE2 UNL     1      37.693 -23.473 -10.579  0.00  0.00    -0.250 OA
ATOM     19  CD  UNL     1      36.823 -23.987 -11.268  0.00  0.00    +0.314 C 
BRANCH  19  20
ATOM     20  OE1 UNL     1      35.638 -23.378 -11.537  0.00  0.00    -0.480 OA
ATOM     21  HE1 UNL     1      34.938 -23.866 -11.923  0.00  0.00    +0.295 HD
ENDBRANCH  19  20
ENDBRANCH  17  19
ENDBRANCH  16  17
ENDBRANCH  11  16
ENDBRANCH   8  11
ENDBRANCH   2   9
BRANCH   1  22
ATOM     22  N   UNL     1      35.837 -20.277 -20.095  0.00  0.00    -0.292 N 
BRANCH  22  23
ATOM     23  C   UNL     1      36.664 -19.185 -20.556  0.00  0.00    +0.118 C 
BRANCH  23  28
ATOM     24  O   UNL     1      34.755 -14.426 -21.061  0.00  0.00    -0.209 OA
ATOM     25  N   UNL     1      34.018 -16.173 -24.590  0.00  0.00    -0.275 N 
ATOM     26  N   UNL     1      33.879 -14.265 -23.172  0.00  0.00    -0.302 NA
ATOM     27  N   UNL     1      33.032 -14.251 -25.357  0.00  0.00    -0.320 N 
ATOM     28  C   UNL     1      35.968 -18.399 -21.618  0.00  0.00    -0.002 C 
ATOM     29  C   UNL     1      35.590 -17.080 -21.371  0.00  0.00    +0.011 C 
ATOM     30  C   UNL     1      34.940 -16.353 -22.372  0.00  0.00    +0.108 C 
ATOM     31  C   UNL     1      34.669 -16.936 -23.617  0.00  0.00    +0.063 C 
ATOM     32  C   UNL     1      35.702 -18.987 -22.854  0.00  0.00    -0.001 C 
ATOM     33  C   UNL     1      35.053 -18.257 -23.853  0.00  0.00    +0.015 C 
ATOM     34  C   UNL     1      34.520 -14.942 -22.149  0.00  0.00    +0.208 C 
ATOM     35  C   UNL     1      33.659 -14.875 -24.308  0.00  0.00    +0.248 C 
ATOM     36  H   UNL     1      33.817 -16.564 -25.471  0.00  0.00    +0.156 HD
ATOM     37  H   UNL     1      32.880 -14.736 -26.200  0.00  0.00    +0.146 HD
ATOM     38  H   UNL     1      32.733 -13.317 -25.266  0.00  0.00    +0.146 HD
ENDBRANCH  23  28
ENDBRANCH  22  23
BRANCH  22  39
ATOM     39  C   UNL     1      34.719 -20.708 -20.935  0.00  0.00    +0.170 C 
BRANCH  39  40
ATOM     40  C   UNL     1      33.442 -20.458 -20.264  0.00  0.00    -0.056 C 
ATOM     41  C   UNL     1      32.393 -20.250 -19.717  0.00  0.00    -0.012 C 
ENDBRANCH  39  40
ENDBRANCH  22  39
ENDBRANCH   1  22
TORSDOF 13
ENDMDL
