MODEL 1
REMARK VINA RESULT:     -11.6      0.000      0.000
REMARK  Name = 445770
REMARK  5 active torsions:
REMARK  status: ('A' for Active; 'I' for Inactive)
REMARK    1  A    between atoms: N_2  and  C_17
REMARK    2  A    between atoms: C_3  and  C_5
REMARK    3  A    between atoms: C_6  and  S_11
REMARK    4  A    between atoms: S_11  and  N_14
REMARK    5  A    between atoms: C_17  and  C_23
REMARK                            x       y       z     vdW  Elec       q    Type
REMARK                         _______ _______ _______ _____ _____    ______ ____
ROOT
ATOM      1  O   UNL     1      37.430 -18.676 -21.192  0.00  0.00    -0.270 OA
ATOM      2  N   UNL     1      35.336 -17.873 -21.777  0.00  0.00    -0.297 N 
ATOM      3  C   UNL     1      36.192 -18.759 -21.114  0.00  0.00    +0.246 C 
ATOM      4  H   UNL     1      34.364 -17.997 -21.673  0.00  0.00    +0.150 HD
ENDROOT
BRANCH   3   5
ATOM      5  C   UNL     1      35.570 -19.819 -20.336  0.00  0.00    +0.053 C 
ATOM      6  C   UNL     1      34.377 -21.852 -18.843  0.00  0.00    +0.122 C 
ATOM      7  C   UNL     1      36.357 -20.662 -19.552  0.00  0.00    +0.006 C 
ATOM      8  C   UNL     1      34.186 -19.992 -20.374  0.00  0.00    +0.006 C 
ATOM      9  C   UNL     1      35.761 -21.679 -18.806  0.00  0.00    +0.020 C 
ATOM     10  C   UNL     1      33.590 -21.009 -19.627  0.00  0.00    +0.020 C 
BRANCH   6  11
ATOM     11  S   UNL     1      33.631 -23.123 -17.908  0.00  0.00    +0.057 S 
ATOM     12  O   UNL     1      33.771 -24.377 -18.636  0.00  0.00    -0.153 OA
ATOM     13  O   UNL     1      32.310 -22.673 -17.492  0.00  0.00    -0.153 OA
BRANCH  11  14
ATOM     14  N   UNL     1      34.654 -23.165 -16.540  0.00  0.00    -0.203 NA
ATOM     15  H   UNL     1      35.532 -23.621 -16.787  0.00  0.00    +0.144 HD
ATOM     16  H   UNL     1      34.199 -23.687 -15.791  0.00  0.00    +0.144 HD
ENDBRANCH  11  14
ENDBRANCH   6  11
ENDBRANCH   3   5
BRANCH   2  17
ATOM     17  C   UNL     1      35.800 -16.784 -22.608  0.00  0.00    +0.121 C 
BRANCH  17  23
ATOM     18  F   UNL     1      34.520 -15.965 -24.988  0.00  0.00    -0.202 F 
ATOM     19  F   UNL     1      35.069 -15.305 -20.319  0.00  0.00    -0.202 F 
ATOM     20  F   UNL     1      33.275 -13.254 -20.405  0.00  0.00    -0.199 F 
ATOM     21  F   UNL     1      32.724 -13.915 -25.061  0.00  0.00    -0.199 F 
ATOM     22  F   UNL     1      32.100 -12.556 -22.772  0.00  0.00    -0.199 F 
ATOM     23  C   UNL     1      34.809 -15.652 -22.653  0.00  0.00    +0.057 A 
ATOM     24  C   UNL     1      34.219 -15.306 -23.861  0.00  0.00    +0.170 A 
ATOM     25  C   UNL     1      34.498 -14.970 -21.485  0.00  0.00    +0.170 A 
ATOM     26  C   UNL     1      33.580 -13.921 -21.525  0.00  0.00    +0.197 A 
ATOM     27  C   UNL     1      33.301 -14.257 -23.901  0.00  0.00    +0.197 A 
ATOM     28  C   UNL     1      32.981 -13.564 -22.734  0.00  0.00    +0.199 A 
ENDBRANCH  17  23
ENDBRANCH   2  17
TORSDOF 5
ENDMDL
MODEL 2
REMARK VINA RESULT:     -11.6      0.030      2.338
REMARK  Name = 445770
REMARK  5 active torsions:
REMARK  status: ('A' for Active; 'I' for Inactive)
REMARK    1  A    between atoms: N_2  and  C_17
REMARK    2  A    between atoms: C_3  and  C_5
REMARK    3  A    between atoms: C_6  and  S_11
REMARK    4  A    between atoms: S_11  and  N_14
REMARK    5  A    between atoms: C_17  and  C_23
REMARK                            x       y       z     vdW  Elec       q    Type
REMARK                         _______ _______ _______ _____ _____    ______ ____
ROOT
ATOM      1  O   UNL     1      37.429 -18.676 -21.214  0.00  0.00    -0.270 OA
ATOM      2  N   UNL     1      35.335 -17.843 -21.754  0.00  0.00    -0.297 N 
ATOM      3  C   UNL     1      36.192 -18.746 -21.115  0.00  0.00    +0.246 C 
ATOM      4  H   UNL     1      34.363 -17.957 -21.634  0.00  0.00    +0.150 HD
ENDROOT
BRANCH   3   5
ATOM      5  C   UNL     1      35.572 -19.808 -20.338  0.00  0.00    +0.053 C 
ATOM      6  C   UNL     1      34.384 -21.844 -18.848  0.00  0.00    +0.122 C 
ATOM      7  C   UNL     1      34.188 -19.978 -20.370  0.00  0.00    +0.006 C 
ATOM      8  C   UNL     1      36.362 -20.655 -19.561  0.00  0.00    +0.006 C 
ATOM      9  C   UNL     1      33.594 -20.997 -19.624  0.00  0.00    +0.020 C 
ATOM     10  C   UNL     1      35.768 -21.674 -18.816  0.00  0.00    +0.020 C 
BRANCH   6  11
ATOM     11  S   UNL     1      33.640 -23.120 -17.915  0.00  0.00    +0.057 S 
ATOM     12  O   UNL     1      33.769 -24.368 -18.654  0.00  0.00    -0.153 OA
ATOM     13  O   UNL     1      32.325 -22.667 -17.484  0.00  0.00    -0.153 OA
BRANCH  11  14
ATOM     14  N   UNL     1      34.676 -23.176 -16.557  0.00  0.00    -0.203 NA
ATOM     15  H   UNL     1      35.645 -23.221 -16.870  0.00  0.00    +0.144 HD
ATOM     16  H   UNL     1      34.460 -24.002 -15.999  0.00  0.00    +0.144 HD
ENDBRANCH  11  14
ENDBRANCH   6  11
ENDBRANCH   3   5
BRANCH   2  17
ATOM     17  C   UNL     1      35.797 -16.750 -22.580  0.00  0.00    +0.121 C 
BRANCH  17  23
ATOM     18  F   UNL     1      35.049 -15.273 -20.292  0.00  0.00    -0.202 F 
ATOM     19  F   UNL     1      34.521 -15.940 -24.963  0.00  0.00    -0.202 F 
ATOM     20  F   UNL     1      32.714 -13.899 -25.043  0.00  0.00    -0.199 F 
ATOM     21  F   UNL     1      33.244 -13.232 -20.385  0.00  0.00    -0.199 F 
ATOM     22  F   UNL     1      32.074 -12.543 -22.759  0.00  0.00    -0.199 F 
ATOM     23  C   UNL     1      34.800 -15.623 -22.627  0.00  0.00    +0.057 A 
ATOM     24  C   UNL     1      34.482 -14.941 -21.460  0.00  0.00    +0.170 A 
ATOM     25  C   UNL     1      34.213 -15.281 -23.837  0.00  0.00    +0.170 A 
ATOM     26  C   UNL     1      33.289 -14.237 -23.882  0.00  0.00    +0.197 A 
ATOM     27  C   UNL     1      33.558 -13.898 -21.505  0.00  0.00    +0.197 A 
ATOM     28  C   UNL     1      32.961 -13.545 -22.715  0.00  0.00    +0.199 A 
ENDBRANCH  17  23
ENDBRANCH   2  17
TORSDOF 5
ENDMDL
MODEL 3
REMARK VINA RESULT:     -10.5      6.443     10.479
REMARK  Name = 445770
REMARK  5 active torsions:
REMARK  status: ('A' for Active; 'I' for Inactive)
REMARK    1  A    between atoms: N_2  and  C_17
REMARK    2  A    between atoms: C_3  and  C_5
REMARK    3  A    between atoms: C_6  and  S_11
REMARK    4  A    between atoms: S_11  and  N_14
REMARK    5  A    between atoms: C_17  and  C_23
REMARK                            x       y       z     vdW  Elec       q    Type
REMARK                         _______ _______ _______ _____ _____    ______ ____
ROOT
ATOM      1  O   UNL     1      33.516 -24.041 -18.246  0.00  0.00    -0.270 OA
ATOM      2  N   UNL     1      34.232 -22.842 -16.396  0.00  0.00    -0.297 N 
ATOM      3  C   UNL     1      34.039 -23.018 -17.771  0.00  0.00    +0.246 C 
ATOM      4  H   UNL     1      34.653 -22.006 -16.088  0.00  0.00    +0.150 HD
ENDROOT
BRANCH   3   5
ATOM      5  C   UNL     1      34.504 -21.952 -18.645  0.00  0.00    +0.053 C 
ATOM      6  C   UNL     1      35.398 -19.909 -20.321  0.00  0.00    +0.122 C 
ATOM      7  C   UNL     1      33.587 -21.206 -19.385  0.00  0.00    +0.006 C 
ATOM      8  C   UNL     1      35.869 -21.678 -18.743  0.00  0.00    +0.006 C 
ATOM      9  C   UNL     1      34.034 -20.185 -20.223  0.00  0.00    +0.020 C 
ATOM     10  C   UNL     1      36.315 -20.655 -19.581  0.00  0.00    +0.020 C 
BRANCH   6  11
ATOM     11  S   UNL     1      35.957 -18.630 -21.369  0.00  0.00    +0.057 S 
ATOM     12  O   UNL     1      35.485 -17.358 -20.840  0.00  0.00    -0.153 OA
ATOM     13  O   UNL     1      35.655 -18.997 -22.745  0.00  0.00    -0.153 OA
BRANCH  11  14
ATOM     14  N   UNL     1      37.647 -18.729 -21.130  0.00  0.00    -0.203 NA
ATOM     15  H   UNL     1      37.841 -18.928 -20.149  0.00  0.00    +0.144 HD
ATOM     16  H   UNL     1      38.079 -17.843 -21.390  0.00  0.00    +0.144 HD
ENDBRANCH  11  14
ENDBRANCH   6  11
ENDBRANCH   3   5
BRANCH   2  17
ATOM     17  C   UNL     1      33.845 -23.819 -15.403  0.00  0.00    +0.121 C 
BRANCH  17  23
ATOM     18  F   UNL     1      33.283 -24.585 -12.743  0.00  0.00    -0.202 F 
ATOM     19  F   UNL     1      36.588 -23.460 -15.961  0.00  0.00    -0.202 F 
ATOM     20  F   UNL     1      38.530 -23.823 -14.083  0.00  0.00    -0.199 F 
ATOM     21  F   UNL     1      35.234 -24.950 -10.875  0.00  0.00    -0.199 F 
ATOM     22  F   UNL     1      37.859 -24.568 -11.540  0.00  0.00    -0.199 F 
ATOM     23  C   UNL     1      34.919 -24.020 -14.368  0.00  0.00    +0.057 A 
ATOM     24  C   UNL     1      34.567 -24.398 -13.079  0.00  0.00    +0.170 A 
ATOM     25  C   UNL     1      36.248 -23.825 -14.717  0.00  0.00    +0.170 A 
ATOM     26  C   UNL     1      37.245 -24.011 -13.759  0.00  0.00    +0.197 A 
ATOM     27  C   UNL     1      35.563 -24.583 -12.121  0.00  0.00    +0.197 A 
ATOM     28  C   UNL     1      36.902 -24.390 -12.460  0.00  0.00    +0.199 A 
ENDBRANCH  17  23
ENDBRANCH   2  17
TORSDOF 5
ENDMDL
MODEL 4
REMARK VINA RESULT:     -10.5      6.450     10.368
REMARK  Name = 445770
REMARK  5 active torsions:
REMARK  status: ('A' for Active; 'I' for Inactive)
REMARK    1  A    between atoms: N_2  and  C_17
REMARK    2  A    between atoms: C_3  and  C_5
REMARK    3  A    between atoms: C_6  and  S_11
REMARK    4  A    between atoms: S_11  and  N_14
REMARK    5  A    between atoms: C_17  and  C_23
REMARK                            x       y       z     vdW  Elec       q    Type
REMARK                         _______ _______ _______ _____ _____    ______ ____
ROOT
ATOM      1  O   UNL     1      33.477 -24.014 -18.234  0.00  0.00    -0.270 OA
ATOM      2  N   UNL     1      34.269 -22.850 -16.392  0.00  0.00    -0.297 N 
ATOM      3  C   UNL     1      34.035 -23.008 -17.763  0.00  0.00    +0.246 C 
ATOM      4  H   UNL     1      34.717 -22.028 -16.087  0.00  0.00    +0.150 HD
ENDROOT
BRANCH   3   5
ATOM      5  C   UNL     1      34.502 -21.944 -18.638  0.00  0.00    +0.053 C 
ATOM      6  C   UNL     1      35.398 -19.904 -20.317  0.00  0.00    +0.122 C 
ATOM      7  C   UNL     1      33.585 -21.196 -19.376  0.00  0.00    +0.006 C 
ATOM      8  C   UNL     1      35.867 -21.673 -18.740  0.00  0.00    +0.006 C 
ATOM      9  C   UNL     1      34.033 -20.176 -20.216  0.00  0.00    +0.020 C 
ATOM     10  C   UNL     1      36.315 -20.652 -19.579  0.00  0.00    +0.020 C 
BRANCH   6  11
ATOM     11  S   UNL     1      35.958 -18.627 -21.367  0.00  0.00    +0.057 S 
ATOM     12  O   UNL     1      35.493 -17.353 -20.836  0.00  0.00    -0.153 OA
ATOM     13  O   UNL     1      35.650 -18.993 -22.742  0.00  0.00    -0.153 OA
BRANCH  11  14
ATOM     14  N   UNL     1      37.648 -18.733 -21.135  0.00  0.00    -0.203 NA
ATOM     15  H   UNL     1      37.920 -18.152 -20.342  0.00  0.00    +0.144 HD
ATOM     16  H   UNL     1      38.127 -18.409 -21.975  0.00  0.00    +0.144 HD
ENDBRANCH  11  14
ENDBRANCH   6  11
ENDBRANCH   3   5
BRANCH   2  17
ATOM     17  C   UNL     1      33.886 -23.829 -15.398  0.00  0.00    +0.121 C 
BRANCH  17  23
ATOM     18  F   UNL     1      36.631 -23.476 -15.963  0.00  0.00    -0.202 F 
ATOM     19  F   UNL     1      33.328 -24.589 -12.739  0.00  0.00    -0.202 F 
ATOM     20  F   UNL     1      35.282 -24.954 -10.873  0.00  0.00    -0.199 F 
ATOM     21  F   UNL     1      38.576 -23.840 -14.087  0.00  0.00    -0.199 F 
ATOM     22  F   UNL     1      37.905 -24.580 -11.541  0.00  0.00    -0.199 F 
ATOM     23  C   UNL     1      34.964 -24.030 -14.366  0.00  0.00    +0.057 A 
ATOM     24  C   UNL     1      36.293 -23.837 -14.717  0.00  0.00    +0.170 A 
ATOM     25  C   UNL     1      34.612 -24.404 -13.077  0.00  0.00    +0.170 A 
ATOM     26  C   UNL     1      35.609 -24.590 -12.119  0.00  0.00    +0.197 A 
ATOM     27  C   UNL     1      37.290 -24.024 -13.760  0.00  0.00    +0.197 A 
ATOM     28  C   UNL     1      36.948 -24.401 -12.461  0.00  0.00    +0.199 A 
ENDBRANCH  17  23
ENDBRANCH   2  17
TORSDOF 5
ENDMDL
MODEL 5
REMARK VINA RESULT:     -10.4      6.182      9.607
REMARK  Name = 445770
REMARK  5 active torsions:
REMARK  status: ('A' for Active; 'I' for Inactive)
REMARK    1  A    between atoms: N_2  and  C_17
REMARK    2  A    between atoms: C_3  and  C_5
REMARK    3  A    between atoms: C_6  and  S_11
REMARK    4  A    between atoms: S_11  and  N_14
REMARK    5  A    between atoms: C_17  and  C_23
REMARK                            x       y       z     vdW  Elec       q    Type
REMARK                         _______ _______ _______ _____ _____    ______ ____
ROOT
ATOM      1  O   UNL     1      33.769 -24.316 -18.336  0.00  0.00    -0.270 OA
ATOM      2  N   UNL     1      33.534 -22.857 -16.550  0.00  0.00    -0.297 N 
ATOM      3  C   UNL     1      33.861 -23.164 -17.876  0.00  0.00    +0.246 C 
ATOM      4  H   UNL     1      33.630 -21.923 -16.251  0.00  0.00    +0.150 HD
ENDROOT
BRANCH   3   5
ATOM      5  C   UNL     1      34.347 -22.073 -18.706  0.00  0.00    +0.053 C 
ATOM      6  C   UNL     1      35.280 -19.981 -20.297  0.00  0.00    +0.122 C 
ATOM      7  C   UNL     1      33.444 -21.284 -19.419  0.00  0.00    +0.006 C 
ATOM      8  C   UNL     1      35.716 -21.818 -18.789  0.00  0.00    +0.006 C 
ATOM      9  C   UNL     1      33.911 -20.238 -20.215  0.00  0.00    +0.020 C 
ATOM     10  C   UNL     1      36.182 -20.771 -19.585  0.00  0.00    +0.020 C 
BRANCH   6  11
ATOM     11  S   UNL     1      35.864 -18.671 -21.293  0.00  0.00    +0.057 S 
ATOM     12  O   UNL     1      35.363 -17.417 -20.748  0.00  0.00    -0.153 OA
ATOM     13  O   UNL     1      35.612 -19.005 -22.687  0.00  0.00    -0.153 OA
BRANCH  11  14
ATOM     14  N   UNL     1      37.545 -18.764 -21.000  0.00  0.00    -0.203 NA
ATOM     15  H   UNL     1      37.721 -18.681 -19.999  0.00  0.00    +0.144 HD
ATOM     16  H   UNL     1      38.018 -18.007 -21.492  0.00  0.00    +0.144 HD
ENDBRANCH  11  14
ENDBRANCH   6  11
ENDBRANCH   3   5
BRANCH   2  17
ATOM     17  C   UNL     1      33.060 -23.835 -15.596  0.00  0.00    +0.121 C 
BRANCH  17  23
ATOM     18  F   UNL     1      31.643 -25.578 -13.884  0.00  0.00    -0.202 F 
ATOM     19  F   UNL     1      31.439 -22.004 -17.003  0.00  0.00    -0.202 F 
ATOM     20  F   UNL     1      28.727 -21.929 -16.730  0.00  0.00    -0.199 F 
ATOM     21  F   UNL     1      28.932 -25.491 -13.616  0.00  0.00    -0.199 F 
ATOM     22  F   UNL     1      27.470 -23.669 -15.038  0.00  0.00    -0.199 F 
ATOM     23  C   UNL     1      31.563 -23.791 -15.446  0.00  0.00    +0.057 A 
ATOM     24  C   UNL     1      30.935 -24.681 -14.584  0.00  0.00    +0.170 A 
ATOM     25  C   UNL     1      30.831 -22.862 -16.171  0.00  0.00    +0.170 A 
ATOM     26  C   UNL     1      29.444 -22.820 -16.033  0.00  0.00    +0.197 A 
ATOM     27  C   UNL     1      29.548 -24.639 -14.446  0.00  0.00    +0.197 A 
ATOM     28  C   UNL     1      28.802 -23.709 -15.170  0.00  0.00    +0.199 A 
ENDBRANCH  17  23
ENDBRANCH   2  17
TORSDOF 5
ENDMDL
MODEL 6
REMARK VINA RESULT:     -10.4      6.141      9.469
REMARK  Name = 445770
REMARK  5 active torsions:
REMARK  status: ('A' for Active; 'I' for Inactive)
REMARK    1  A    between atoms: N_2  and  C_17
REMARK    2  A    between atoms: C_3  and  C_5
REMARK    3  A    between atoms: C_6  and  S_11
REMARK    4  A    between atoms: S_11  and  N_14
REMARK    5  A    between atoms: C_17  and  C_23
REMARK                            x       y       z     vdW  Elec       q    Type
REMARK                         _______ _______ _______ _____ _____    ______ ____
ROOT
ATOM      1  O   UNL     1      33.793 -24.264 -18.347  0.00  0.00    -0.270 OA
ATOM      2  N   UNL     1      33.710 -22.835 -16.524  0.00  0.00    -0.297 N 
ATOM      3  C   UNL     1      33.951 -23.126 -17.871  0.00  0.00    +0.246 C 
ATOM      4  H   UNL     1      33.856 -21.912 -16.213  0.00  0.00    +0.150 HD
ENDROOT
BRANCH   3   5
ATOM      5  C   UNL     1      34.428 -22.036 -18.707  0.00  0.00    +0.053 C 
ATOM      6  C   UNL     1      35.343 -19.945 -20.311  0.00  0.00    +0.122 C 
ATOM      7  C   UNL     1      33.522 -21.281 -19.453  0.00  0.00    +0.006 C 
ATOM      8  C   UNL     1      35.791 -21.746 -18.764  0.00  0.00    +0.006 C 
ATOM      9  C   UNL     1      33.980 -20.236 -20.255  0.00  0.00    +0.020 C 
ATOM     10  C   UNL     1      36.248 -20.699 -19.565  0.00  0.00    +0.020 C 
BRANCH   6  11
ATOM     11  S   UNL     1      35.915 -18.635 -21.314  0.00  0.00    +0.057 S 
ATOM     12  O   UNL     1      35.436 -17.379 -20.753  0.00  0.00    -0.153 OA
ATOM     13  O   UNL     1      35.631 -18.962 -22.704  0.00  0.00    -0.153 OA
BRANCH  11  14
ATOM     14  N   UNL     1      37.601 -18.742 -21.057  0.00  0.00    -0.203 NA
ATOM     15  H   UNL     1      38.091 -18.262 -21.811  0.00  0.00    +0.144 HD
ATOM     16  H   UNL     1      37.881 -19.723 -21.040  0.00  0.00    +0.144 HD
ENDBRANCH  11  14
ENDBRANCH   6  11
ENDBRANCH   3   5
BRANCH   2  17
ATOM     17  C   UNL     1      33.257 -23.816 -15.562  0.00  0.00    +0.121 C 
BRANCH  17  23
ATOM     18  F   UNL     1      31.589 -22.060 -17.016  0.00  0.00    -0.202 F 
ATOM     19  F   UNL     1      31.892 -25.501 -13.758  0.00  0.00    -0.202 F 
ATOM     20  F   UNL     1      29.184 -25.435 -13.446  0.00  0.00    -0.199 F 
ATOM     21  F   UNL     1      28.882 -22.006 -16.698  0.00  0.00    -0.199 F 
ATOM     22  F   UNL     1      27.675 -23.691 -14.913  0.00  0.00    -0.199 F 
ATOM     23  C   UNL     1      31.762 -23.781 -15.390  0.00  0.00    +0.057 A 
ATOM     24  C   UNL     1      31.006 -22.891 -16.140  0.00  0.00    +0.170 A 
ATOM     25  C   UNL     1      31.161 -24.642 -14.482  0.00  0.00    +0.170 A 
ATOM     26  C   UNL     1      29.775 -24.611 -14.320  0.00  0.00    +0.197 A 
ATOM     27  C   UNL     1      29.622 -22.860 -15.978  0.00  0.00    +0.197 A 
ATOM     28  C   UNL     1      29.005 -23.720 -15.069  0.00  0.00    +0.199 A 
ENDBRANCH  17  23
ENDBRANCH   2  17
TORSDOF 5
ENDMDL
MODEL 7
REMARK VINA RESULT:     -10.2      6.462     10.404
REMARK  Name = 445770
REMARK  5 active torsions:
REMARK  status: ('A' for Active; 'I' for Inactive)
REMARK    1  A    between atoms: N_2  and  C_17
REMARK    2  A    between atoms: C_3  and  C_5
REMARK    3  A    between atoms: C_6  and  S_11
REMARK    4  A    between atoms: S_11  and  N_14
REMARK    5  A    between atoms: C_17  and  C_23
REMARK                            x       y       z     vdW  Elec       q    Type
REMARK                         _______ _______ _______ _____ _____    ______ ____
ROOT
ATOM      1  O   UNL     1      33.699 -24.106 -18.328  0.00  0.00    -0.270 OA
ATOM      2  N   UNL     1      34.697 -23.051 -16.521  0.00  0.00    -0.297 N 
ATOM      3  C   UNL     1      34.305 -23.125 -17.863  0.00  0.00    +0.246 C 
ATOM      4  H   UNL     1      35.175 -22.244 -16.219  0.00  0.00    +0.150 HD
ENDROOT
BRANCH   3   5
ATOM      5  C   UNL     1      34.661 -22.003 -18.718  0.00  0.00    +0.053 C 
ATOM      6  C   UNL     1      35.345 -19.853 -20.358  0.00  0.00    +0.122 C 
ATOM      7  C   UNL     1      35.996 -21.619 -18.843  0.00  0.00    +0.006 C 
ATOM      8  C   UNL     1      33.668 -21.313 -19.412  0.00  0.00    +0.006 C 
ATOM      9  C   UNL     1      36.337 -20.543 -19.663  0.00  0.00    +0.020 C 
ATOM     10  C   UNL     1      34.010 -20.237 -20.233  0.00  0.00    +0.020 C 
BRANCH   6  11
ATOM     11  S   UNL     1      35.772 -18.508 -21.385  0.00  0.00    +0.057 S 
ATOM     12  O   UNL     1      37.199 -18.575 -21.666  0.00  0.00    -0.153 OA
ATOM     13  O   UNL     1      35.204 -17.295 -20.815  0.00  0.00    -0.153 OA
BRANCH  11  14
ATOM     14  N   UNL     1      34.913 -18.901 -22.810  0.00  0.00    -0.203 NA
ATOM     15  H   UNL     1      34.054 -18.353 -22.851  0.00  0.00    +0.144 HD
ATOM     16  H   UNL     1      34.683 -19.894 -22.804  0.00  0.00    +0.144 HD
ENDBRANCH  11  14
ENDBRANCH   6  11
ENDBRANCH   3   5
BRANCH   2  17
ATOM     17  C   UNL     1      34.438 -24.094 -15.554  0.00  0.00    +0.121 C 
BRANCH  17  23
ATOM     18  F   UNL     1      35.786 -26.573 -15.434  0.00  0.00    -0.202 F 
ATOM     19  F   UNL     1      35.498 -22.103 -13.857  0.00  0.00    -0.202 F 
ATOM     20  F   UNL     1      37.645 -22.544 -12.236  0.00  0.00    -0.199 F 
ATOM     21  F   UNL     1      37.934 -27.001 -13.811  0.00  0.00    -0.199 F 
ATOM     22  F   UNL     1      38.867 -24.989 -12.210  0.00  0.00    -0.199 F 
ATOM     23  C   UNL     1      35.624 -24.335 -14.659  0.00  0.00    +0.057 A 
ATOM     24  C   UNL     1      36.236 -25.581 -14.654  0.00  0.00    +0.170 A 
ATOM     25  C   UNL     1      36.090 -23.306 -13.851  0.00  0.00    +0.170 A 
ATOM     26  C   UNL     1      37.189 -23.528 -13.021  0.00  0.00    +0.197 A 
ATOM     27  C   UNL     1      37.334 -25.803 -13.823  0.00  0.00    +0.197 A 
ATOM     28  C   UNL     1      37.812 -24.777 -13.007  0.00  0.00    +0.199 A 
ENDBRANCH  17  23
ENDBRANCH   2  17
TORSDOF 5
ENDMDL
MODEL 8
REMARK VINA RESULT:     -10.2      6.462     10.500
REMARK  Name = 445770
REMARK  5 active torsions:
REMARK  status: ('A' for Active; 'I' for Inactive)
REMARK    1  A    between atoms: N_2  and  C_17
REMARK    2  A    between atoms: C_3  and  C_5
REMARK    3  A    between atoms: C_6  and  S_11
REMARK    4  A    between atoms: S_11  and  N_14
REMARK    5  A    between atoms: C_17  and  C_23
REMARK                            x       y       z     vdW  Elec       q    Type
REMARK                         _______ _______ _______ _____ _____    ______ ____
ROOT
ATOM      1  O   UNL     1      33.695 -24.103 -18.305  0.00  0.00    -0.270 OA
ATOM      2  N   UNL     1      34.672 -23.025 -16.501  0.00  0.00    -0.297 N 
ATOM      3  C   UNL     1      34.290 -23.113 -17.844  0.00  0.00    +0.246 C 
ATOM      4  H   UNL     1      35.142 -22.212 -16.203  0.00  0.00    +0.150 HD
ENDROOT
BRANCH   3   5
ATOM      5  C   UNL     1      34.644 -21.997 -18.707  0.00  0.00    +0.053 C 
ATOM      6  C   UNL     1      35.322 -19.856 -20.361  0.00  0.00    +0.122 C 
ATOM      7  C   UNL     1      35.981 -21.626 -18.854  0.00  0.00    +0.006 C 
ATOM      8  C   UNL     1      33.646 -21.298 -19.386  0.00  0.00    +0.006 C 
ATOM      9  C   UNL     1      36.319 -20.555 -19.681  0.00  0.00    +0.020 C 
ATOM     10  C   UNL     1      33.986 -20.227 -20.214  0.00  0.00    +0.020 C 
BRANCH   6  11
ATOM     11  S   UNL     1      35.747 -18.517 -21.398  0.00  0.00    +0.057 S 
ATOM     12  O   UNL     1      37.163 -18.613 -21.722  0.00  0.00    -0.153 OA
ATOM     13  O   UNL     1      35.222 -17.294 -20.807  0.00  0.00    -0.153 OA
BRANCH  11  14
ATOM     14  N   UNL     1      34.837 -18.887 -22.796  0.00  0.00    -0.203 NA
ATOM     15  H   UNL     1      35.021 -19.850 -23.076  0.00  0.00    +0.144 HD
ATOM     16  H   UNL     1      35.104 -18.256 -23.552  0.00  0.00    +0.144 HD
ENDBRANCH  11  14
ENDBRANCH   6  11
ENDBRANCH   3   5
BRANCH   2  17
ATOM     17  C   UNL     1      34.414 -24.061 -15.526  0.00  0.00    +0.121 C 
BRANCH  17  23
ATOM     18  F   UNL     1      35.550 -22.088 -13.855  0.00  0.00    -0.202 F 
ATOM     19  F   UNL     1      35.713 -26.564 -15.431  0.00  0.00    -0.202 F 
ATOM     20  F   UNL     1      37.888 -27.032 -13.854  0.00  0.00    -0.199 F 
ATOM     21  F   UNL     1      37.722 -22.569 -12.279  0.00  0.00    -0.199 F 
ATOM     22  F   UNL     1      38.894 -25.040 -12.276  0.00  0.00    -0.199 F 
ATOM     23  C   UNL     1      35.614 -24.322 -14.655  0.00  0.00    +0.057 A 
ATOM     24  C   UNL     1      36.117 -23.302 -13.859  0.00  0.00    +0.170 A 
ATOM     25  C   UNL     1      36.200 -25.580 -14.661  0.00  0.00    +0.170 A 
ATOM     26  C   UNL     1      37.312 -25.823 -13.855  0.00  0.00    +0.197 A 
ATOM     27  C   UNL     1      37.229 -23.545 -13.053  0.00  0.00    +0.197 A 
ATOM     28  C   UNL     1      37.827 -24.806 -13.050  0.00  0.00    +0.199 A 
ENDBRANCH  17  23
ENDBRANCH   2  17
TORSDOF 5
ENDMDL
MODEL 9
REMARK VINA RESULT:      -9.9      4.989      7.280
REMARK  Name = 445770
REMARK  5 active torsions:
REMARK  status: ('A' for Active; 'I' for Inactive)
REMARK    1  A    between atoms: N_2  and  C_17
REMARK    2  A    between atoms: C_3  and  C_5
REMARK    3  A    between atoms: C_6  and  S_11
REMARK    4  A    between atoms: S_11  and  N_14
REMARK    5  A    between atoms: C_17  and  C_23
REMARK                            x       y       z     vdW  Elec       q    Type
REMARK                         _______ _______ _______ _____ _____    ______ ____
ROOT
ATOM      1  O   UNL     1      32.549 -23.506 -15.798  0.00  0.00    -0.270 OA
ATOM      2  N   UNL     1      34.337 -22.739 -17.057  0.00  0.00    -0.297 N 
ATOM      3  C   UNL     1      33.764 -23.263 -15.893  0.00  0.00    +0.246 C 
ATOM      4  H   UNL     1      35.307 -22.569 -17.064  0.00  0.00    +0.150 HD
ENDROOT
BRANCH   3   5
ATOM      5  C   UNL     1      34.654 -23.493 -14.766  0.00  0.00    +0.053 C 
ATOM      6  C   UNL     1      36.360 -23.934 -12.603  0.00  0.00    +0.122 C 
ATOM      7  C   UNL     1      36.000 -23.139 -14.856  0.00  0.00    +0.006 C 
ATOM      8  C   UNL     1      34.160 -24.068 -13.594  0.00  0.00    +0.006 C 
ATOM      9  C   UNL     1      36.853 -23.360 -13.775  0.00  0.00    +0.020 C 
ATOM     10  C   UNL     1      35.014 -24.288 -12.512  0.00  0.00    +0.020 C 
BRANCH   6  11
ATOM     11  S   UNL     1      37.427 -24.209 -11.249  0.00  0.00    +0.057 S 
ATOM     12  O   UNL     1      38.347 -23.085 -11.149  0.00  0.00    -0.153 OA
ATOM     13  O   UNL     1      37.950 -25.565 -11.344  0.00  0.00    -0.153 OA
BRANCH  11  14
ATOM     14  N   UNL     1      36.325 -24.134  -9.945  0.00  0.00    -0.203 NA
ATOM     15  H   UNL     1      36.114 -23.159  -9.734  0.00  0.00    +0.144 HD
ATOM     16  H   UNL     1      36.738 -24.578  -9.125  0.00  0.00    +0.144 HD
ENDBRANCH  11  14
ENDBRANCH   6  11
ENDBRANCH   3   5
BRANCH   2  17
ATOM     17  C   UNL     1      33.582 -22.434 -18.252  0.00  0.00    +0.121 C 
BRANCH  17  23
ATOM     18  F   UNL     1      32.304 -20.955 -20.291  0.00  0.00    -0.202 F 
ATOM     19  F   UNL     1      36.358 -21.980 -18.043  0.00  0.00    -0.202 F 
ATOM     20  F   UNL     1      37.693 -20.255 -19.680  0.00  0.00    -0.199 F 
ATOM     21  F   UNL     1      33.648 -19.230 -21.918  0.00  0.00    -0.199 F 
ATOM     22  F   UNL     1      36.344 -18.878 -21.616  0.00  0.00    -0.199 F 
ATOM     23  C   UNL     1      34.320 -21.481 -19.154  0.00  0.00    +0.057 A 
ATOM     24  C   UNL     1      33.624 -20.787 -20.135  0.00  0.00    +0.170 A 
ATOM     25  C   UNL     1      35.688 -21.309 -18.991  0.00  0.00    +0.170 A 
ATOM     26  C   UNL     1      36.374 -20.427 -19.825  0.00  0.00    +0.197 A 
ATOM     27  C   UNL     1      34.310 -19.906 -20.969  0.00  0.00    +0.197 A 
ATOM     28  C   UNL     1      35.685 -19.725 -20.815  0.00  0.00    +0.199 A 
ENDBRANCH  17  23
ENDBRANCH   2  17
TORSDOF 5
ENDMDL
