MODEL 1
REMARK VINA RESULT:     -10.4      0.000      0.000
REMARK  Name = 59657596
REMARK  4 active torsions:
REMARK  status: ('A' for Active; 'I' for Inactive)
REMARK    1  A    between atoms: C_13  and  C_19
REMARK    2  A    between atoms: N_18  and  C_27
REMARK    3  A    between atoms: C_27  and  C_28
REMARK    4  A    between atoms: C_28  and  N_29
REMARK                            x       y       z     vdW  Elec       q    Type
REMARK                         _______ _______ _______ _____ _____    ______ ____
ROOT
ATOM      1  O   UNL     1      34.960 -20.510 -22.134  0.00  0.00    -0.350 OA
ATOM      2  O   UNL     1      32.359 -22.480 -17.469  0.00  0.00    -0.270 OA
ATOM      3  N   UNL     1      33.985 -21.835 -19.019  0.00  0.00    -0.276 N 
ATOM      4  C   UNL     1      34.668 -19.758 -20.921  0.00  0.00    +0.115 C 
ATOM      5  C   UNL     1      33.210 -20.037 -20.507  0.00  0.00    +0.053 C 
ATOM      6  C   UNL     1      35.650 -20.214 -19.830  0.00  0.00    +0.053 C 
ATOM      7  C   UNL     1      34.868 -18.334 -21.336  0.00  0.00    +0.001 C 
ATOM      8  C   UNL     1      35.390 -21.661 -19.409  0.00  0.00    +0.096 C 
ATOM      9  C   UNL     1      33.018 -21.487 -20.059  0.00  0.00    +0.096 C 
ATOM     10  C   UNL     1      35.020 -18.274 -22.716  0.00  0.00    +0.005 C 
ATOM     11  C   UNL     1      34.925 -19.637 -23.286  0.00  0.00    +0.169 C 
ATOM     12  C   UNL     1      34.896 -17.181 -20.568  0.00  0.00    -0.002 C 
ATOM     13  C   UNL     1      33.534 -22.313 -17.788  0.00  0.00    +0.250 C 
ATOM     14  C   UNL     1      35.201 -17.068 -23.370  0.00  0.00    -0.002 C 
ATOM     15  C   UNL     1      35.085 -15.957 -21.213  0.00  0.00    -0.000 C 
ATOM     16  C   UNL     1      35.237 -15.901 -22.605  0.00  0.00    -0.000 C 
ENDROOT
BRANCH  13  19
ATOM     17 CL   UNL     1      34.726 -24.637 -11.200  0.00  0.00    -0.082 Cl
ATOM     18  N   UNL     1      36.509 -22.907 -15.786  0.00  0.00    -0.288 N 
ATOM     19  C   UNL     1      34.535 -22.639 -16.764  0.00  0.00    +0.070 C 
ATOM     20  C   UNL     1      34.316 -23.124 -15.444  0.00  0.00    +0.019 C 
ATOM     21  C   UNL     1      35.894 -22.516 -16.944  0.00  0.00    +0.070 C 
ATOM     22  C   UNL     1      35.571 -23.285 -14.852  0.00  0.00    +0.053 C 
ATOM     23  C   UNL     1      33.166 -23.444 -14.694  0.00  0.00    +0.002 C 
ATOM     24  C   UNL     1      35.734 -23.750 -13.543  0.00  0.00    +0.026 C 
ATOM     25  C   UNL     1      33.315 -23.911 -13.383  0.00  0.00    +0.011 C 
ATOM     26  C   UNL     1      34.580 -24.060 -12.818  0.00  0.00    +0.059 C 
BRANCH  18  27
ATOM     27  C   UNL     1      37.943 -22.917 -15.589  0.00  0.00    +0.073 C 
BRANCH  27  28
ATOM     28  C   UNL     1      38.346 -23.857 -14.453  0.00  0.00    -0.055 C 
BRANCH  28  29
ATOM     29  N   UNL     1      38.801 -25.134 -14.991  0.00  0.00    +0.385 N 
ATOM     30  C   UNL     1      37.950 -26.226 -14.516  0.00  0.00    -0.101 C 
ATOM     31  C   UNL     1      40.196 -25.381 -14.624  0.00  0.00    -0.101 C 
ATOM     32  H   UNL     1      38.736 -25.092 -16.008  0.00  0.00    -0.080 HD
ENDBRANCH  28  29
ENDBRANCH  27  28
ENDBRANCH  18  27
ENDBRANCH  13  19
TORSDOF 4
ENDMDL
MODEL 2
REMARK VINA RESULT:     -10.1     10.810     16.325
REMARK  Name = 59657596
REMARK  4 active torsions:
REMARK  status: ('A' for Active; 'I' for Inactive)
REMARK    1  A    between atoms: C_13  and  C_19
REMARK    2  A    between atoms: N_18  and  C_27
REMARK    3  A    between atoms: C_27  and  C_28
REMARK    4  A    between atoms: C_28  and  N_29
REMARK                            x       y       z     vdW  Elec       q    Type
REMARK                         _______ _______ _______ _____ _____    ______ ____
ROOT
ATOM      1  O   UNL     1      34.009 -12.539 -21.684  0.00  0.00    -0.350 OA
ATOM      2  O   UNL     1      29.898  -8.735 -22.704  0.00  0.00    -0.270 OA
ATOM      3  N   UNL     1      31.970  -9.811 -22.582  0.00  0.00    -0.276 N 
ATOM      4  C   UNL     1      33.261 -12.383 -22.924  0.00  0.00    +0.115 C 
ATOM      5  C   UNL     1      31.763 -12.261 -22.585  0.00  0.00    +0.053 C 
ATOM      6  C   UNL     1      33.772 -11.117 -23.631  0.00  0.00    +0.053 C 
ATOM      7  C   UNL     1      33.562 -13.640 -23.676  0.00  0.00    +0.001 C 
ATOM      8  C   UNL     1      33.413  -9.853 -22.850  0.00  0.00    +0.096 C 
ATOM      9  C   UNL     1      31.456 -10.961 -21.839  0.00  0.00    +0.096 C 
ATOM     10  C   UNL     1      34.221 -14.531 -22.837  0.00  0.00    +0.005 C 
ATOM     11  C   UNL     1      34.385 -13.923 -21.497  0.00  0.00    +0.169 C 
ATOM     12  C   UNL     1      33.267 -13.985 -24.986  0.00  0.00    -0.002 C 
ATOM     13  C   UNL     1      31.102  -8.781 -22.949  0.00  0.00    +0.250 C 
ATOM     14  C   UNL     1      34.602 -15.788 -23.274  0.00  0.00    -0.002 C 
ATOM     15  C   UNL     1      33.651 -15.247 -25.444  0.00  0.00    -0.000 C 
ATOM     16  C   UNL     1      34.315 -16.143 -24.593  0.00  0.00    -0.000 C 
ENDROOT
BRANCH  13  19
ATOM     17 CL   UNL     1      32.215  -1.786 -23.168  0.00  0.00    -0.082 Cl
ATOM     18  N   UNL     1      32.651  -6.513 -25.329  0.00  0.00    -0.288 N 
ATOM     19  C   UNL     1      31.653  -7.649 -23.706  0.00  0.00    +0.070 C 
ATOM     20  C   UNL     1      31.663  -6.273 -23.344  0.00  0.00    +0.019 C 
ATOM     21  C   UNL     1      32.267  -7.764 -24.931  0.00  0.00    +0.070 C 
ATOM     22  C   UNL     1      32.296  -5.582 -24.379  0.00  0.00    +0.053 C 
ATOM     23  C   UNL     1      31.195  -5.546 -22.230  0.00  0.00    +0.002 C 
ATOM     24  C   UNL     1      32.483  -4.195 -24.358  0.00  0.00    +0.026 C 
ATOM     25  C   UNL     1      31.376  -4.159 -22.195  0.00  0.00    +0.011 C 
ATOM     26  C   UNL     1      32.010  -3.496 -23.244  0.00  0.00    +0.059 C 
BRANCH  18  27
ATOM     27  C   UNL     1      33.332  -6.227 -26.573  0.00  0.00    +0.073 C 
BRANCH  27  28
ATOM     28  C   UNL     1      34.806  -5.894 -26.343  0.00  0.00    -0.055 C 
BRANCH  28  29
ATOM     29  N   UNL     1      35.551  -6.010 -27.591  0.00  0.00    +0.385 N 
ATOM     30  C   UNL     1      36.466  -4.878 -27.752  0.00  0.00    -0.101 C 
ATOM     31  C   UNL     1      34.637  -6.090 -28.731  0.00  0.00    -0.101 C 
ATOM     32  H   UNL     1      36.101  -6.869 -27.555  0.00  0.00    -0.080 HD
ENDBRANCH  28  29
ENDBRANCH  27  28
ENDBRANCH  18  27
ENDBRANCH  13  19
TORSDOF 4
ENDMDL
MODEL 3
REMARK VINA RESULT:      -9.7     10.632     15.116
REMARK  Name = 59657596
REMARK  4 active torsions:
REMARK  status: ('A' for Active; 'I' for Inactive)
REMARK    1  A    between atoms: C_13  and  C_19
REMARK    2  A    between atoms: N_18  and  C_27
REMARK    3  A    between atoms: C_27  and  C_28
REMARK    4  A    between atoms: C_28  and  N_29
REMARK                            x       y       z     vdW  Elec       q    Type
REMARK                         _______ _______ _______ _____ _____    ______ ____
ROOT
ATOM      1  O   UNL     1      30.104  -4.303 -24.116  0.00  0.00    -0.350 OA
ATOM      2  O   UNL     1      32.546  -7.405 -20.015  0.00  0.00    -0.270 OA
ATOM      3  N   UNL     1      31.503  -6.747 -22.001  0.00  0.00    -0.276 N 
ATOM      4  C   UNL     1      31.507  -4.687 -24.039  0.00  0.00    +0.115 C 
ATOM      5  C   UNL     1      32.014  -4.420 -22.608  0.00  0.00    +0.053 C 
ATOM      6  C   UNL     1      31.612  -6.180 -24.393  0.00  0.00    +0.053 C 
ATOM      7  C   UNL     1      32.170  -3.796 -25.041  0.00  0.00    +0.001 C 
ATOM      8  C   UNL     1      30.955  -7.057 -23.327  0.00  0.00    +0.096 C 
ATOM      9  C   UNL     1      31.352  -5.352 -21.592  0.00  0.00    +0.096 C 
ATOM     10  C   UNL     1      31.266  -2.830 -25.467  0.00  0.00    +0.005 C 
ATOM     11  C   UNL     1      29.971  -3.023 -24.776  0.00  0.00    +0.169 C 
ATOM     12  C   UNL     1      33.468  -3.816 -25.527  0.00  0.00    -0.002 C 
ATOM     13  C   UNL     1      32.108  -7.660 -21.135  0.00  0.00    +0.250 C 
ATOM     14  C   UNL     1      31.625  -1.859 -26.385  0.00  0.00    -0.002 C 
ATOM     15  C   UNL     1      33.844  -2.847 -26.459  0.00  0.00    -0.000 C 
ATOM     16  C   UNL     1      32.928  -1.875 -26.886  0.00  0.00    -0.000 C 
ENDROOT
BRANCH  13  19
ATOM     17 CL   UNL     1      32.130 -14.508 -19.314  0.00  0.00    -0.082 Cl
ATOM     18  N   UNL     1      32.571 -10.783 -22.937  0.00  0.00    -0.288 N 
ATOM     19  C   UNL     1      32.255  -9.050 -21.587  0.00  0.00    +0.070 C 
ATOM     20  C   UNL     1      32.179 -10.239 -20.810  0.00  0.00    +0.019 C 
ATOM     21  C   UNL     1      32.497  -9.417 -22.891  0.00  0.00    +0.070 C 
ATOM     22  C   UNL     1      32.380 -11.312 -21.681  0.00  0.00    +0.053 C 
ATOM     23  C   UNL     1      31.956 -10.507 -19.443  0.00  0.00    +0.002 C 
ATOM     24  C   UNL     1      32.372 -12.644 -21.253  0.00  0.00    +0.026 C 
ATOM     25  C   UNL     1      31.944 -11.835 -19.001  0.00  0.00    +0.011 C 
ATOM     26  C   UNL     1      32.149 -12.885 -19.893  0.00  0.00    +0.059 C 
BRANCH  18  27
ATOM     27  C   UNL     1      32.817 -11.545 -24.142  0.00  0.00    +0.073 C 
BRANCH  27  28
ATOM     28  C   UNL     1      34.009 -12.486 -23.978  0.00  0.00    -0.055 C 
BRANCH  28  29
ATOM     29  N   UNL     1      33.557 -13.872 -23.938  0.00  0.00    +0.385 N 
ATOM     30  C   UNL     1      34.523 -14.709 -23.224  0.00  0.00    -0.101 C 
ATOM     31  C   UNL     1      33.346 -14.385 -25.293  0.00  0.00    -0.101 C 
ATOM     32  H   UNL     1      32.669 -13.903 -23.437  0.00  0.00    -0.080 HD
ENDBRANCH  28  29
ENDBRANCH  27  28
ENDBRANCH  18  27
ENDBRANCH  13  19
TORSDOF 4
ENDMDL
MODEL 4
REMARK VINA RESULT:      -9.6     10.642     15.435
REMARK  Name = 59657596
REMARK  4 active torsions:
REMARK  status: ('A' for Active; 'I' for Inactive)
REMARK    1  A    between atoms: C_13  and  C_19
REMARK    2  A    between atoms: N_18  and  C_27
REMARK    3  A    between atoms: C_27  and  C_28
REMARK    4  A    between atoms: C_28  and  N_29
REMARK                            x       y       z     vdW  Elec       q    Type
REMARK                         _______ _______ _______ _____ _____    ______ ____
ROOT
ATOM      1  O   UNL     1      33.087  -3.964 -25.412  0.00  0.00    -0.350 OA
ATOM      2  O   UNL     1      35.980  -8.436 -23.398  0.00  0.00    -0.270 OA
ATOM      3  N   UNL     1      34.261  -6.967 -23.991  0.00  0.00    -0.276 N 
ATOM      4  C   UNL     1      33.349  -5.215 -26.113  0.00  0.00    +0.115 C 
ATOM      5  C   UNL     1      34.836  -5.577 -25.937  0.00  0.00    +0.053 C 
ATOM      6  C   UNL     1      32.441  -6.298 -25.507  0.00  0.00    +0.053 C 
ATOM      7  C   UNL     1      33.017  -4.895 -27.536  0.00  0.00    +0.001 C 
ATOM      8  C   UNL     1      32.835  -6.621 -24.066  0.00  0.00    +0.096 C 
ATOM      9  C   UNL     1      35.164  -5.929 -24.485  0.00  0.00    +0.096 C 
ATOM     10  C   UNL     1      32.821  -3.525 -27.665  0.00  0.00    +0.005 C 
ATOM     11  C   UNL     1      33.016  -2.869 -26.352  0.00  0.00    +0.169 C 
ATOM     12  C   UNL     1      32.913  -5.734 -28.634  0.00  0.00    -0.002 C 
ATOM     13  C   UNL     1      34.785  -8.156 -23.481  0.00  0.00    +0.250 C 
ATOM     14  C   UNL     1      32.519  -2.952 -28.888  0.00  0.00    -0.002 C 
ATOM     15  C   UNL     1      32.602  -5.172 -29.873  0.00  0.00    -0.000 C 
ATOM     16  C   UNL     1      32.406  -3.789 -30.000  0.00  0.00    -0.000 C 
ENDROOT
BRANCH  13  19
ATOM     17 CL   UNL     1      30.135 -10.072 -18.490  0.00  0.00    -0.082 Cl
ATOM     18  N   UNL     1      32.675 -11.064 -22.936  0.00  0.00    -0.288 N 
ATOM     19  C   UNL     1      33.845  -9.180 -23.009  0.00  0.00    +0.070 C 
ATOM     20  C   UNL     1      33.036  -9.156 -21.838  0.00  0.00    +0.019 C 
ATOM     21  C   UNL     1      33.601 -10.366 -23.662  0.00  0.00    +0.070 C 
ATOM     22  C   UNL     1      32.311 -10.350 -21.817  0.00  0.00    +0.053 C 
ATOM     23  C   UNL     1      32.849  -8.230 -20.792  0.00  0.00    +0.002 C 
ATOM     24  C   UNL     1      31.406 -10.665 -20.797  0.00  0.00    +0.026 C 
ATOM     25  C   UNL     1      31.946  -8.532 -19.766  0.00  0.00    +0.011 C 
ATOM     26  C   UNL     1      31.238  -9.732 -19.770  0.00  0.00    +0.059 C 
BRANCH  18  27
ATOM     27  C   UNL     1      32.162 -12.366 -23.306  0.00  0.00    +0.073 C 
BRANCH  27  28
ATOM     28  C   UNL     1      32.925 -13.489 -22.604  0.00  0.00    -0.055 C 
BRANCH  28  29
ATOM     29  N   UNL     1      33.939 -14.043 -23.494  0.00  0.00    +0.385 N 
ATOM     30  C   UNL     1      33.346 -14.425 -24.777  0.00  0.00    -0.101 C 
ATOM     31  C   UNL     1      34.594 -15.196 -22.875  0.00  0.00    -0.101 C 
ATOM     32  H   UNL     1      34.641 -13.323 -23.663  0.00  0.00    -0.080 HD
ENDBRANCH  28  29
ENDBRANCH  27  28
ENDBRANCH  18  27
ENDBRANCH  13  19
TORSDOF 4
ENDMDL
MODEL 5
REMARK VINA RESULT:      -9.4      3.793      7.430
REMARK  Name = 59657596
REMARK  4 active torsions:
REMARK  status: ('A' for Active; 'I' for Inactive)
REMARK    1  A    between atoms: C_13  and  C_19
REMARK    2  A    between atoms: N_18  and  C_27
REMARK    3  A    between atoms: C_27  and  C_28
REMARK    4  A    between atoms: C_28  and  N_29
REMARK                            x       y       z     vdW  Elec       q    Type
REMARK                         _______ _______ _______ _____ _____    ______ ____
ROOT
ATOM      1  O   UNL     1      30.558 -25.823 -14.529  0.00  0.00    -0.350 OA
ATOM      2  O   UNL     1      34.702 -23.453 -11.427  0.00  0.00    -0.270 OA
ATOM      3  N   UNL     1      33.513 -24.484 -13.155  0.00  0.00    -0.276 N 
ATOM      4  C   UNL     1      30.985 -24.430 -14.571  0.00  0.00    +0.115 C 
ATOM      5  C   UNL     1      31.121 -23.912 -13.126  0.00  0.00    +0.053 C 
ATOM      6  C   UNL     1      32.331 -24.367 -15.311  0.00  0.00    +0.053 C 
ATOM      7  C   UNL     1      29.876 -23.747 -15.307  0.00  0.00    +0.001 C 
ATOM      8  C   UNL     1      33.444 -25.045 -14.511  0.00  0.00    +0.096 C 
ATOM      9  C   UNL     1      32.273 -24.596 -12.388  0.00  0.00    +0.096 C 
ATOM     10  C   UNL     1      28.809 -24.626 -15.451  0.00  0.00    +0.005 C 
ATOM     11  C   UNL     1      29.147 -25.923 -14.822  0.00  0.00    +0.169 C 
ATOM     12  C   UNL     1      29.799 -22.451 -15.794  0.00  0.00    -0.002 C 
ATOM     13  C   UNL     1      34.639 -23.901 -12.570  0.00  0.00    +0.250 C 
ATOM     14  C   UNL     1      27.638 -24.243 -16.081  0.00  0.00    -0.002 C 
ATOM     15  C   UNL     1      28.626 -22.052 -16.438  0.00  0.00    -0.000 C 
ATOM     16  C   UNL     1      27.553 -22.942 -16.581  0.00  0.00    -0.000 C 
ENDROOT
BRANCH  13  19
ATOM     17 CL   UNL     1      41.078 -26.524 -13.941  0.00  0.00    -0.082 Cl
ATOM     18  N   UNL     1      37.303 -23.052 -14.891  0.00  0.00    -0.288 N 
ATOM     19  C   UNL     1      35.861 -23.794 -13.378  0.00  0.00    +0.070 C 
ATOM     20  C   UNL     1      37.026 -24.609 -13.319  0.00  0.00    +0.019 C 
ATOM     21  C   UNL     1      36.062 -22.847 -14.354  0.00  0.00    +0.070 C 
ATOM     22  C   UNL     1      37.916 -24.121 -14.279  0.00  0.00    +0.053 C 
ATOM     23  C   UNL     1      37.411 -25.718 -12.538  0.00  0.00    +0.002 C 
ATOM     24  C   UNL     1      39.176 -24.689 -14.498  0.00  0.00    +0.026 C 
ATOM     25  C   UNL     1      38.668 -26.296 -12.747  0.00  0.00    +0.011 C 
ATOM     26  C   UNL     1      39.536 -25.787 -13.712  0.00  0.00    +0.059 C 
BRANCH  18  27
ATOM     27  C   UNL     1      37.875 -22.249 -15.951  0.00  0.00    +0.073 C 
BRANCH  27  28
ATOM     28  C   UNL     1      36.824 -21.355 -16.607  0.00  0.00    -0.055 C 
BRANCH  28  29
ATOM     29  N   UNL     1      36.319 -21.978 -17.825  0.00  0.00    +0.385 N 
ATOM     30  C   UNL     1      36.468 -21.075 -18.967  0.00  0.00    -0.101 C 
ATOM     31  C   UNL     1      34.916 -22.363 -17.662  0.00  0.00    -0.101 C 
ATOM     32  H   UNL     1      36.867 -22.820 -18.003  0.00  0.00    -0.080 HD
ENDBRANCH  28  29
ENDBRANCH  27  28
ENDBRANCH  18  27
ENDBRANCH  13  19
TORSDOF 4
ENDMDL
MODEL 6
REMARK VINA RESULT:      -9.2      9.894     15.248
REMARK  Name = 59657596
REMARK  4 active torsions:
REMARK  status: ('A' for Active; 'I' for Inactive)
REMARK    1  A    between atoms: C_13  and  C_19
REMARK    2  A    between atoms: N_18  and  C_27
REMARK    3  A    between atoms: C_27  and  C_28
REMARK    4  A    between atoms: C_28  and  N_29
REMARK                            x       y       z     vdW  Elec       q    Type
REMARK                         _______ _______ _______ _____ _____    ______ ____
ROOT
ATOM      1  O   UNL     1      34.499 -13.850 -21.151  0.00  0.00    -0.350 OA
ATOM      2  O   UNL     1      30.116 -10.292 -20.420  0.00  0.00    -0.270 OA
ATOM      3  N   UNL     1      32.213 -11.177 -20.948  0.00  0.00    -0.276 N 
ATOM      4  C   UNL     1      33.517 -13.467 -22.157  0.00  0.00    +0.115 C 
ATOM      5  C   UNL     1      32.110 -13.564 -21.534  0.00  0.00    +0.053 C 
ATOM      6  C   UNL     1      33.827 -12.027 -22.600  0.00  0.00    +0.053 C 
ATOM      7  C   UNL     1      33.716 -14.474 -23.244  0.00  0.00    +0.001 C 
ATOM      8  C   UNL     1      33.576 -11.025 -21.472  0.00  0.00    +0.096 C 
ATOM      9  C   UNL     1      31.903 -12.514 -20.441  0.00  0.00    +0.096 C 
ATOM     10  C   UNL     1      34.562 -15.479 -22.790  0.00  0.00    +0.005 C 
ATOM     11  C   UNL     1      34.961 -15.199 -21.392  0.00  0.00    +0.169 C 
ATOM     12  C   UNL     1      33.184 -14.518 -24.523  0.00  0.00    -0.002 C 
ATOM     13  C   UNL     1      31.249 -10.171 -20.880  0.00  0.00    +0.250 C 
ATOM     14  C   UNL     1      34.901 -16.555 -23.592  0.00  0.00    -0.002 C 
ATOM     15  C   UNL     1      33.523 -15.593 -25.347  0.00  0.00    -0.000 C 
ATOM     16  C   UNL     1      34.376 -16.605 -24.885  0.00  0.00    -0.000 C 
ENDROOT
BRANCH  13  19
ATOM     17 CL   UNL     1      32.895  -6.334 -26.606  0.00  0.00    -0.082 Cl
ATOM     18  N   UNL     1      32.033  -6.671 -21.473  0.00  0.00    -0.288 N 
ATOM     19  C   UNL     1      31.594  -8.846 -21.412  0.00  0.00    +0.070 C 
ATOM     20  C   UNL     1      31.874  -8.486 -22.760  0.00  0.00    +0.019 C 
ATOM     21  C   UNL     1      31.700  -7.709 -20.645  0.00  0.00    +0.070 C 
ATOM     22  C   UNL     1      32.145  -7.116 -22.771  0.00  0.00    +0.053 C 
ATOM     23  C   UNL     1      31.921  -9.197 -23.976  0.00  0.00    +0.002 C 
ATOM     24  C   UNL     1      32.465  -6.419 -23.941  0.00  0.00    +0.026 C 
ATOM     25  C   UNL     1      32.239  -8.513 -25.155  0.00  0.00    +0.011 C 
ATOM     26  C   UNL     1      32.506  -7.145 -25.135  0.00  0.00    +0.059 C 
BRANCH  18  27
ATOM     27  C   UNL     1      32.234  -5.308 -21.031  0.00  0.00    +0.073 C 
BRANCH  27  28
ATOM     28  C   UNL     1      30.955  -4.481 -21.163  0.00  0.00    -0.055 C 
BRANCH  28  29
ATOM     29  N   UNL     1      31.278  -3.110 -21.541  0.00  0.00    +0.385 N 
ATOM     30  C   UNL     1      30.056  -2.341 -21.784  0.00  0.00    -0.101 C 
ATOM     31  C   UNL     1      32.134  -3.090 -22.728  0.00  0.00    -0.101 C 
ATOM     32  H   UNL     1      31.785  -2.678 -20.769  0.00  0.00    -0.080 HD
ENDBRANCH  28  29
ENDBRANCH  27  28
ENDBRANCH  18  27
ENDBRANCH  13  19
TORSDOF 4
ENDMDL
MODEL 7
REMARK VINA RESULT:      -8.8      3.910      8.630
REMARK  Name = 59657596
REMARK  4 active torsions:
REMARK  status: ('A' for Active; 'I' for Inactive)
REMARK    1  A    between atoms: C_13  and  C_19
REMARK    2  A    between atoms: N_18  and  C_27
REMARK    3  A    between atoms: C_27  and  C_28
REMARK    4  A    between atoms: C_28  and  N_29
REMARK                            x       y       z     vdW  Elec       q    Type
REMARK                         _______ _______ _______ _____ _____    ______ ____
ROOT
ATOM      1  O   UNL     1      37.367 -23.415 -12.215  0.00  0.00    -0.350 OA
ATOM      2  O   UNL     1      31.986 -25.181 -12.791  0.00  0.00    -0.270 OA
ATOM      3  N   UNL     1      34.013 -24.055 -13.082  0.00  0.00    -0.276 N 
ATOM      4  C   UNL     1      36.885 -24.442 -13.129  0.00  0.00    +0.115 C 
ATOM      5  C   UNL     1      35.947 -25.389 -12.355  0.00  0.00    +0.053 C 
ATOM      6  C   UNL     1      36.141 -23.745 -14.279  0.00  0.00    +0.053 C 
ATOM      7  C   UNL     1      38.136 -25.134 -13.570  0.00  0.00    +0.001 C 
ATOM      8  C   UNL     1      34.851 -23.082 -13.794  0.00  0.00    +0.096 C 
ATOM      9  C   UNL     1      34.658 -24.684 -11.930  0.00  0.00    +0.096 C 
ATOM     10  C   UNL     1      39.201 -24.698 -12.791  0.00  0.00    +0.005 C 
ATOM     11  C   UNL     1      38.720 -23.709 -11.800  0.00  0.00    +0.169 C 
ATOM     12  C   UNL     1      38.324 -26.084 -14.561  0.00  0.00    -0.002 C 
ATOM     13  C   UNL     1      32.695 -24.384 -13.402  0.00  0.00    +0.250 C 
ATOM     14  C   UNL     1      40.480 -25.194 -12.974  0.00  0.00    -0.002 C 
ATOM     15  C   UNL     1      39.610 -26.589 -14.763  0.00  0.00    -0.000 C 
ATOM     16  C   UNL     1      40.681 -26.147 -13.975  0.00  0.00    -0.000 C 
ENDROOT
BRANCH  13  19
ATOM     17 CL   UNL     1      26.718 -22.212 -16.528  0.00  0.00    -0.082 Cl
ATOM     18  N   UNL     1      31.906 -22.746 -16.549  0.00  0.00    -0.288 N 
ATOM     19  C   UNL     1      32.087 -23.742 -14.574  0.00  0.00    +0.070 C 
ATOM     20  C   UNL     1      30.709 -23.478 -14.815  0.00  0.00    +0.019 C 
ATOM     21  C   UNL     1      32.797 -23.280 -15.658  0.00  0.00    +0.070 C 
ATOM     22  C   UNL     1      30.623 -22.853 -16.061  0.00  0.00    +0.053 C 
ATOM     23  C   UNL     1      29.523 -23.711 -14.089  0.00  0.00    +0.002 C 
ATOM     24  C   UNL     1      29.406 -22.448 -16.621  0.00  0.00    +0.026 C 
ATOM     25  C   UNL     1      28.299 -23.311 -14.637  0.00  0.00    +0.011 C 
ATOM     26  C   UNL     1      28.243 -22.690 -15.883  0.00  0.00    +0.059 C 
BRANCH  18  27
ATOM     27  C   UNL     1      32.276 -22.158 -17.819  0.00  0.00    +0.073 C 
BRANCH  27  28
ATOM     28  C   UNL     1      33.727 -22.475 -18.182  0.00  0.00    -0.055 C 
BRANCH  28  29
ATOM     29  N   UNL     1      34.102 -21.782 -19.409  0.00  0.00    +0.385 N 
ATOM     30  C   UNL     1      35.474 -21.279 -19.318  0.00  0.00    -0.101 C 
ATOM     31  C   UNL     1      33.176 -20.682 -19.684  0.00  0.00    -0.101 C 
ATOM     32  H   UNL     1      34.052 -22.449 -20.179  0.00  0.00    -0.080 HD
ENDBRANCH  28  29
ENDBRANCH  27  28
ENDBRANCH  18  27
ENDBRANCH  13  19
TORSDOF 4
ENDMDL
MODEL 8
REMARK VINA RESULT:      -8.6     11.153     15.749
REMARK  Name = 59657596
REMARK  4 active torsions:
REMARK  status: ('A' for Active; 'I' for Inactive)
REMARK    1  A    between atoms: C_13  and  C_19
REMARK    2  A    between atoms: N_18  and  C_27
REMARK    3  A    between atoms: C_27  and  C_28
REMARK    4  A    between atoms: C_28  and  N_29
REMARK                            x       y       z     vdW  Elec       q    Type
REMARK                         _______ _______ _______ _____ _____    ______ ____
ROOT
ATOM      1  O   UNL     1      32.831  -5.158 -27.600  0.00  0.00    -0.350 OA
ATOM      2  O   UNL     1      31.063  -5.559 -22.203  0.00  0.00    -0.270 OA
ATOM      3  N   UNL     1      31.855  -6.074 -24.341  0.00  0.00    -0.276 N 
ATOM      4  C   UNL     1      33.673  -5.171 -26.410  0.00  0.00    +0.115 C 
ATOM      5  C   UNL     1      33.074  -4.203 -25.372  0.00  0.00    +0.053 C 
ATOM      6  C   UNL     1      33.708  -6.610 -25.869  0.00  0.00    +0.053 C 
ATOM      7  C   UNL     1      34.999  -4.698 -26.914  0.00  0.00    +0.001 C 
ATOM      8  C   UNL     1      32.344  -7.042 -25.331  0.00  0.00    +0.096 C 
ATOM      9  C   UNL     1      31.730  -4.705 -24.840  0.00  0.00    +0.096 C 
ATOM     10  C   UNL     1      34.856  -4.229 -28.215  0.00  0.00    +0.005 C 
ATOM     11  C   UNL     1      33.442  -4.358 -28.637  0.00  0.00    +0.169 C 
ATOM     12  C   UNL     1      36.230  -4.664 -26.279  0.00  0.00    -0.002 C 
ATOM     13  C   UNL     1      31.494  -6.365 -23.024  0.00  0.00    +0.250 C 
ATOM     14  C   UNL     1      35.930  -3.711 -28.918  0.00  0.00    -0.002 C 
ATOM     15  C   UNL     1      37.325  -4.151 -26.978  0.00  0.00    -0.000 C 
ATOM     16  C   UNL     1      37.176  -3.678 -28.289  0.00  0.00    -0.000 C 
ENDROOT
BRANCH  13  19
ATOM     17 CL   UNL     1      31.830 -10.724 -17.447  0.00  0.00    -0.082 Cl
ATOM     18  N   UNL     1      31.916  -9.951 -22.605  0.00  0.00    -0.288 N 
ATOM     19  C   UNL     1      31.647  -7.749 -22.556  0.00  0.00    +0.070 C 
ATOM     20  C   UNL     1      31.658  -8.226 -21.215  0.00  0.00    +0.019 C 
ATOM     21  C   UNL     1      31.808  -8.833 -23.387  0.00  0.00    +0.070 C 
ATOM     22  C   UNL     1      31.828  -9.611 -21.274  0.00  0.00    +0.053 C 
ATOM     23  C   UNL     1      31.538  -7.610 -19.952  0.00  0.00    +0.002 C 
ATOM     24  C   UNL     1      31.886 -10.414 -20.130  0.00  0.00    +0.026 C 
ATOM     25  C   UNL     1      31.594  -8.401 -18.799  0.00  0.00    +0.011 C 
ATOM     26  C   UNL     1      31.765  -9.781 -18.889  0.00  0.00    +0.059 C 
BRANCH  18  27
ATOM     27  C   UNL     1      32.098 -11.291 -23.120  0.00  0.00    +0.073 C 
BRANCH  27  28
ATOM     28  C   UNL     1      33.567 -11.583 -23.419  0.00  0.00    -0.055 C 
BRANCH  28  29
ATOM     29  N   UNL     1      33.850 -13.001 -23.229  0.00  0.00    +0.385 N 
ATOM     30  C   UNL     1      33.165 -13.804 -24.244  0.00  0.00    -0.101 C 
ATOM     31  C   UNL     1      33.449 -13.431 -21.888  0.00  0.00    -0.101 C 
ATOM     32  H   UNL     1      34.855 -13.142 -23.328  0.00  0.00    -0.080 HD
ENDBRANCH  28  29
ENDBRANCH  27  28
ENDBRANCH  18  27
ENDBRANCH  13  19
TORSDOF 4
ENDMDL
MODEL 9
REMARK VINA RESULT:      -8.5     14.314     19.363
REMARK  Name = 59657596
REMARK  4 active torsions:
REMARK  status: ('A' for Active; 'I' for Inactive)
REMARK    1  A    between atoms: C_13  and  C_19
REMARK    2  A    between atoms: N_18  and  C_27
REMARK    3  A    between atoms: C_27  and  C_28
REMARK    4  A    between atoms: C_28  and  N_29
REMARK                            x       y       z     vdW  Elec       q    Type
REMARK                         _______ _______ _______ _____ _____    ______ ____
ROOT
ATOM      1  O   UNL     1      32.390  -6.266 -22.365  0.00  0.00    -0.350 OA
ATOM      2  O   UNL     1      32.436  -4.403 -27.744  0.00  0.00    -0.270 OA
ATOM      3  N   UNL     1      33.092  -5.054 -25.597  0.00  0.00    -0.276 N 
ATOM      4  C   UNL     1      32.648  -7.064 -23.557  0.00  0.00    +0.115 C 
ATOM      5  C   UNL     1      31.581  -6.727 -24.616  0.00  0.00    +0.053 C 
ATOM      6  C   UNL     1      34.059  -6.719 -24.064  0.00  0.00    +0.053 C 
ATOM      7  C   UNL     1      32.526  -8.472 -23.069  0.00  0.00    +0.001 C 
ATOM      8  C   UNL     1      34.132  -5.284 -24.587  0.00  0.00    +0.096 C 
ATOM      9  C   UNL     1      31.727  -5.294 -25.130  0.00  0.00    +0.096 C 
ATOM     10  C   UNL     1      32.007  -8.469 -21.780  0.00  0.00    +0.005 C 
ATOM     11  C   UNL     1      31.754  -7.075 -21.349  0.00  0.00    +0.169 C 
ATOM     12  C   UNL     1      32.827  -9.664 -23.709  0.00  0.00    -0.002 C 
ATOM     13  C   UNL     1      33.309  -4.617 -26.905  0.00  0.00    +0.250 C 
ATOM     14  C   UNL     1      31.771  -9.647 -21.093  0.00  0.00    -0.002 C 
ATOM     15  C   UNL     1      32.602 -10.861 -23.027  0.00  0.00    -0.000 C 
ATOM     16  C   UNL     1      32.077 -10.853 -21.727  0.00  0.00    -0.000 C 
ENDROOT
BRANCH  13  19
ATOM     17 CL   UNL     1      39.045  -7.397 -30.000  0.00  0.00    -0.082 Cl
ATOM     18  N   UNL     1      36.634  -3.383 -27.703  0.00  0.00    -0.288 N 
ATOM     19  C   UNL     1      34.694  -4.400 -27.341  0.00  0.00    +0.070 C 
ATOM     20  C   UNL     1      35.567  -5.321 -27.987  0.00  0.00    +0.019 C 
ATOM     21  C   UNL     1      35.379  -3.218 -27.181  0.00  0.00    +0.070 C 
ATOM     22  C   UNL     1      36.776  -4.658 -28.203  0.00  0.00    +0.053 C 
ATOM     23  C   UNL     1      35.442  -6.660 -28.410  0.00  0.00    +0.002 C 
ATOM     24  C   UNL     1      37.872  -5.269 -28.822  0.00  0.00    +0.026 C 
ATOM     25  C   UNL     1      36.529  -7.284 -29.031  0.00  0.00    +0.011 C 
ATOM     26  C   UNL     1      37.725  -6.597 -29.233  0.00  0.00    +0.059 C 
BRANCH  18  27
ATOM     27  C   UNL     1      37.652  -2.355 -27.719  0.00  0.00    +0.073 C 
BRANCH  27  28
ATOM     28  C   UNL     1      38.657  -2.542 -26.583  0.00  0.00    -0.055 C 
BRANCH  28  29
ATOM     29  N   UNL     1      40.016  -2.569 -27.111  0.00  0.00    +0.385 N 
ATOM     30  C   UNL     1      40.016  -2.291 -28.549  0.00  0.00    -0.101 C 
ATOM     31  C   UNL     1      40.647  -3.863 -26.845  0.00  0.00    -0.101 C 
ATOM     32  H   UNL     1      40.555  -1.842 -26.640  0.00  0.00    -0.080 HD
ENDBRANCH  28  29
ENDBRANCH  27  28
ENDBRANCH  18  27
ENDBRANCH  13  19
TORSDOF 4
ENDMDL
