MODEL 1
REMARK VINA RESULT:     -11.6      0.000      0.000
REMARK  Name = 448841
REMARK  3 active torsions:
REMARK  status: ('A' for Active; 'I' for Inactive)
REMARK    1  A    between atoms: C_1  and  C_17
REMARK    2  A    between atoms: C_9  and  C_13
REMARK    3  A    between atoms: C_18  and  C_20
REMARK                            x       y       z     vdW  Elec       q    Type
REMARK                         _______ _______ _______ _____ _____    ______ ____
ROOT
ATOM      1  C   UNL     1      35.498 -20.947 -19.598  0.00  0.00    -0.022 C 
ATOM      2  C   UNL     1      36.426 -21.214 -18.592  0.00  0.00    -0.004 C 
ATOM      3  C   UNL     1      34.193 -21.419 -19.485  0.00  0.00    -0.004 C 
ATOM      4  C   UNL     1      36.062 -21.957 -17.458  0.00  0.00    -0.000 C 
ATOM      5  C   UNL     1      33.813 -22.159 -18.365  0.00  0.00    -0.000 C 
ATOM      6  C   UNL     1      34.735 -22.437 -17.342  0.00  0.00    +0.000 C 
ATOM      7  C   UNL     1      36.983 -22.236 -16.436  0.00  0.00    +0.000 C 
ATOM      8  C   UNL     1      34.369 -23.180 -16.209  0.00  0.00    +0.003 C 
ATOM      9  C   UNL     1      35.298 -23.447 -15.202  0.00  0.00    +0.031 C 
ATOM     10  C   UNL     1      36.602 -22.975 -15.316  0.00  0.00    +0.003 C 
ENDROOT
BRANCH   9  13
ATOM     11  N   UNL     1      34.203 -23.632 -12.981  0.00  0.00    -0.343 N 
ATOM     12  N   UNL     1      35.213 -25.500 -13.956  0.00  0.00    -0.285 NA
ATOM     13  C   UNL     1      34.904 -24.218 -14.035  0.00  0.00    +0.117 C 
ATOM     14  H   UNL     1      33.946 -24.172 -12.200  0.00  0.00    +0.144 HD
ATOM     15  H   UNL     1      33.966 -22.677 -13.019  0.00  0.00    +0.144 HD
ATOM     16  H   UNL     1      34.946 -26.024 -13.166  0.00  0.00    +0.188 HD
ENDBRANCH   9  13
BRANCH   1  17
ATOM     17  C   UNL     1      35.903 -20.157 -20.795  0.00  0.00    +0.027 C 
ATOM     18  C   UNL     1      35.586 -18.695 -20.848  0.00  0.00    +0.027 C 
ATOM     19  C   UNL     1      37.004 -19.151 -20.668  0.00  0.00    +0.009 C 
BRANCH  18  20
ATOM     20  C   UNL     1      35.176 -18.088 -22.139  0.00  0.00    -0.022 C 
ATOM     21  C   UNL     1      35.313 -16.712 -22.344  0.00  0.00    -0.004 C 
ATOM     22  C   UNL     1      34.648 -18.887 -23.157  0.00  0.00    -0.004 C 
ATOM     23  C   UNL     1      34.925 -16.140 -23.556  0.00  0.00    -0.000 C 
ATOM     24  C   UNL     1      34.260 -18.316 -24.369  0.00  0.00    -0.000 C 
ATOM     25  C   UNL     1      34.399 -16.943 -24.568  0.00  0.00    -0.000 C 
ENDBRANCH  18  20
ENDBRANCH   1  17
TORSDOF 3
ENDMDL
MODEL 2
REMARK VINA RESULT:     -11.3      5.778      9.687
REMARK  Name = 448841
REMARK  3 active torsions:
REMARK  status: ('A' for Active; 'I' for Inactive)
REMARK    1  A    between atoms: C_1  and  C_17
REMARK    2  A    between atoms: C_9  and  C_13
REMARK    3  A    between atoms: C_18  and  C_20
REMARK                            x       y       z     vdW  Elec       q    Type
REMARK                         _______ _______ _______ _____ _____    ______ ____
ROOT
ATOM      1  C   UNL     1      34.994 -16.364 -21.463  0.00  0.00    -0.022 C 
ATOM      2  C   UNL     1      34.235 -15.551 -20.622  0.00  0.00    -0.004 C 
ATOM      3  C   UNL     1      35.195 -15.999 -22.791  0.00  0.00    -0.004 C 
ATOM      4  C   UNL     1      33.666 -14.359 -21.100  0.00  0.00    -0.000 C 
ATOM      5  C   UNL     1      34.637 -14.817 -23.282  0.00  0.00    -0.000 C 
ATOM      6  C   UNL     1      33.870 -13.986 -22.450  0.00  0.00    +0.000 C 
ATOM      7  C   UNL     1      32.898 -13.528 -20.268  0.00  0.00    +0.000 C 
ATOM      8  C   UNL     1      33.302 -12.795 -22.928  0.00  0.00    +0.003 C 
ATOM      9  C   UNL     1      32.542 -11.980 -22.087  0.00  0.00    +0.031 C 
ATOM     10  C   UNL     1      32.342 -12.347 -20.759  0.00  0.00    +0.003 C 
ENDROOT
BRANCH   9  13
ATOM     11  N   UNL     1      32.581 -10.020 -23.610  0.00  0.00    -0.343 N 
ATOM     12  N   UNL     1      30.825 -10.300 -22.094  0.00  0.00    -0.285 NA
ATOM     13  C   UNL     1      31.961 -10.749 -22.597  0.00  0.00    +0.117 C 
ATOM     14  H   UNL     1      32.170  -9.189 -23.940  0.00  0.00    +0.144 HD
ATOM     15  H   UNL     1      33.430 -10.336 -23.996  0.00  0.00    +0.144 HD
ATOM     16  H   UNL     1      30.430  -9.466 -22.439  0.00  0.00    +0.188 HD
ENDBRANCH   9  13
BRANCH   1  17
ATOM     17  C   UNL     1      35.589 -17.626 -20.940  0.00  0.00    +0.027 C 
ATOM     18  C   UNL     1      35.017 -18.940 -21.374  0.00  0.00    +0.027 C 
ATOM     19  C   UNL     1      36.366 -18.506 -21.869  0.00  0.00    +0.009 C 
BRANCH  18  20
ATOM     20  C   UNL     1      34.925 -20.050 -20.393  0.00  0.00    -0.022 C 
ATOM     21  C   UNL     1      33.678 -20.573 -20.039  0.00  0.00    -0.004 C 
ATOM     22  C   UNL     1      36.083 -20.579 -19.817  0.00  0.00    -0.004 C 
ATOM     23  C   UNL     1      33.590 -21.615 -19.115  0.00  0.00    -0.000 C 
ATOM     24  C   UNL     1      35.996 -21.620 -18.893  0.00  0.00    -0.000 C 
ATOM     25  C   UNL     1      34.749 -22.138 -18.543  0.00  0.00    -0.000 C 
ENDBRANCH  18  20
ENDBRANCH   1  17
TORSDOF 3
ENDMDL
MODEL 3
REMARK VINA RESULT:     -11.3      1.058      2.203
REMARK  Name = 448841
REMARK  3 active torsions:
REMARK  status: ('A' for Active; 'I' for Inactive)
REMARK    1  A    between atoms: C_1  and  C_17
REMARK    2  A    between atoms: C_9  and  C_13
REMARK    3  A    between atoms: C_18  and  C_20
REMARK                            x       y       z     vdW  Elec       q    Type
REMARK                         _______ _______ _______ _____ _____    ______ ____
ROOT
ATOM      1  C   UNL     1      34.802 -20.207 -20.533  0.00  0.00    -0.022 C 
ATOM      2  C   UNL     1      33.796 -20.892 -19.851  0.00  0.00    -0.004 C 
ATOM      3  C   UNL     1      36.113 -20.249 -20.066  0.00  0.00    -0.004 C 
ATOM      4  C   UNL     1      34.089 -21.629 -18.692  0.00  0.00    -0.000 C 
ATOM      5  C   UNL     1      36.422 -20.977 -18.915  0.00  0.00    -0.000 C 
ATOM      6  C   UNL     1      35.422 -21.672 -18.217  0.00  0.00    +0.000 C 
ATOM      7  C   UNL     1      33.089 -22.323 -17.993  0.00  0.00    +0.000 C 
ATOM      8  C   UNL     1      35.715 -22.408 -17.058  0.00  0.00    +0.003 C 
ATOM      9  C   UNL     1      34.708 -23.094 -16.376  0.00  0.00    +0.031 C 
ATOM     10  C   UNL     1      33.398 -23.051 -16.843  0.00  0.00    +0.003 C 
ENDROOT
BRANCH   9  13
ATOM     11  N   UNL     1      34.683 -23.386 -13.911  0.00  0.00    -0.343 N 
ATOM     12  N   UNL     1      35.663 -25.007 -15.279  0.00  0.00    -0.285 NA
ATOM     13  C   UNL     1      35.028 -23.852 -15.178  0.00  0.00    +0.117 C 
ATOM     14  H   UNL     1      34.910 -23.916 -13.113  0.00  0.00    +0.144 HD
ATOM     15  H   UNL     1      34.213 -22.527 -13.814  0.00  0.00    +0.144 HD
ATOM     16  H   UNL     1      35.880 -25.522 -14.469  0.00  0.00    +0.188 HD
ENDBRANCH   9  13
BRANCH   1  17
ATOM     17  C   UNL     1      34.474 -19.430 -21.760  0.00  0.00    +0.027 C 
ATOM     18  C   UNL     1      35.486 -18.475 -22.314  0.00  0.00    +0.027 C 
ATOM     19  C   UNL     1      35.181 -19.753 -23.040  0.00  0.00    +0.009 C 
BRANCH  18  20
ATOM     20  C   UNL     1      35.028 -17.185 -22.889  0.00  0.00    -0.022 C 
ATOM     21  C   UNL     1      35.046 -16.023 -22.112  0.00  0.00    -0.004 C 
ATOM     22  C   UNL     1      34.575 -17.124 -24.210  0.00  0.00    -0.004 C 
ATOM     23  C   UNL     1      34.614 -14.811 -22.650  0.00  0.00    -0.000 C 
ATOM     24  C   UNL     1      34.142 -15.913 -24.749  0.00  0.00    -0.000 C 
ATOM     25  C   UNL     1      34.162 -14.756 -23.969  0.00  0.00    -0.000 C 
ENDBRANCH  18  20
ENDBRANCH   1  17
TORSDOF 3
ENDMDL
MODEL 4
REMARK VINA RESULT:     -11.3      1.200      1.734
REMARK  Name = 448841
REMARK  3 active torsions:
REMARK  status: ('A' for Active; 'I' for Inactive)
REMARK    1  A    between atoms: C_1  and  C_17
REMARK    2  A    between atoms: C_9  and  C_13
REMARK    3  A    between atoms: C_18  and  C_20
REMARK                            x       y       z     vdW  Elec       q    Type
REMARK                         _______ _______ _______ _____ _____    ______ ____
ROOT
ATOM      1  C   UNL     1      34.829 -19.976 -20.751  0.00  0.00    -0.022 C 
ATOM      2  C   UNL     1      35.829 -20.352 -19.854  0.00  0.00    -0.004 C 
ATOM      3  C   UNL     1      33.531 -20.451 -20.587  0.00  0.00    -0.004 C 
ATOM      4  C   UNL     1      35.543 -21.209 -18.778  0.00  0.00    -0.000 C 
ATOM      5  C   UNL     1      33.229 -21.304 -19.523  0.00  0.00    -0.000 C 
ATOM      6  C   UNL     1      34.222 -21.692 -18.610  0.00  0.00    +0.000 C 
ATOM      7  C   UNL     1      36.537 -21.597 -17.866  0.00  0.00    +0.000 C 
ATOM      8  C   UNL     1      33.936 -22.548 -17.536  0.00  0.00    +0.003 C 
ATOM      9  C   UNL     1      34.936 -22.924 -16.638  0.00  0.00    +0.031 C 
ATOM     10  C   UNL     1      36.234 -22.449 -16.803  0.00  0.00    +0.003 C 
ENDROOT
BRANCH   9  13
ATOM     11  N   UNL     1      33.379 -23.774 -14.900  0.00  0.00    -0.343 N 
ATOM     12  N   UNL     1      35.528 -24.672 -15.099  0.00  0.00    -0.285 NA
ATOM     13  C   UNL     1      34.622 -23.811 -15.530  0.00  0.00    +0.117 C 
ATOM     14  H   UNL     1      33.189 -24.384 -14.151  0.00  0.00    +0.144 HD
ATOM     15  H   UNL     1      32.693 -23.138 -15.204  0.00  0.00    +0.144 HD
ATOM     16  H   UNL     1      35.317 -25.274 -14.349  0.00  0.00    +0.188 HD
ENDBRANCH   9  13
BRANCH   1  17
ATOM     17  C   UNL     1      35.151 -19.067 -21.886  0.00  0.00    +0.027 C 
ATOM     18  C   UNL     1      35.456 -17.628 -21.608  0.00  0.00    +0.027 C 
ATOM     19  C   UNL     1      36.551 -18.559 -22.041  0.00  0.00    +0.009 C 
BRANCH  18  20
ATOM     20  C   UNL     1      34.971 -16.588 -22.549  0.00  0.00    -0.022 C 
ATOM     21  C   UNL     1      34.823 -15.265 -22.120  0.00  0.00    -0.004 C 
ATOM     22  C   UNL     1      34.657 -16.924 -23.869  0.00  0.00    -0.004 C 
ATOM     23  C   UNL     1      34.364 -14.288 -23.004  0.00  0.00    -0.000 C 
ATOM     24  C   UNL     1      34.198 -15.947 -24.753  0.00  0.00    -0.000 C 
ATOM     25  C   UNL     1      34.052 -14.629 -24.320  0.00  0.00    -0.000 C 
ENDBRANCH  18  20
ENDBRANCH   1  17
TORSDOF 3
ENDMDL
MODEL 5
REMARK VINA RESULT:     -11.1      0.982      2.210
REMARK  Name = 448841
REMARK  3 active torsions:
REMARK  status: ('A' for Active; 'I' for Inactive)
REMARK    1  A    between atoms: C_1  and  C_17
REMARK    2  A    between atoms: C_9  and  C_13
REMARK    3  A    between atoms: C_18  and  C_20
REMARK                            x       y       z     vdW  Elec       q    Type
REMARK                         _______ _______ _______ _____ _____    ______ ____
ROOT
ATOM      1  C   UNL     1      35.767 -21.137 -19.239  0.00  0.00    -0.022 C 
ATOM      2  C   UNL     1      34.473 -21.598 -18.999  0.00  0.00    -0.004 C 
ATOM      3  C   UNL     1      36.763 -21.326 -18.284  0.00  0.00    -0.004 C 
ATOM      4  C   UNL     1      34.157 -22.256 -17.800  0.00  0.00    -0.000 C 
ATOM      5  C   UNL     1      36.465 -21.978 -17.086  0.00  0.00    -0.000 C 
ATOM      6  C   UNL     1      35.168 -22.449 -16.828  0.00  0.00    +0.000 C 
ATOM      7  C   UNL     1      32.859 -22.726 -17.542  0.00  0.00    +0.000 C 
ATOM      8  C   UNL     1      34.853 -23.106 -15.629  0.00  0.00    +0.003 C 
ATOM      9  C   UNL     1      33.557 -23.568 -15.389  0.00  0.00    +0.031 C 
ATOM     10  C   UNL     1      32.563 -23.378 -16.344  0.00  0.00    +0.003 C 
ENDROOT
BRANCH   9  13
ATOM     11  N   UNL     1      34.209 -24.992 -13.462  0.00  0.00    -0.343 N 
ATOM     12  N   UNL     1      32.029 -24.169 -13.635  0.00  0.00    -0.285 NA
ATOM     13  C   UNL     1      33.247 -24.248 -14.142  0.00  0.00    +0.117 C 
ATOM     14  H   UNL     1      33.977 -25.444 -12.619  0.00  0.00    +0.144 HD
ATOM     15  H   UNL     1      35.121 -25.066 -13.825  0.00  0.00    +0.144 HD
ATOM     16  H   UNL     1      31.817 -24.628 -12.790  0.00  0.00    +0.188 HD
ENDBRANCH   9  13
BRANCH   1  17
ATOM     17  C   UNL     1      36.086 -20.440 -20.516  0.00  0.00    +0.027 C 
ATOM     18  C   UNL     1      35.737 -18.993 -20.668  0.00  0.00    +0.027 C 
ATOM     19  C   UNL     1      37.172 -19.410 -20.536  0.00  0.00    +0.009 C 
BRANCH  18  20
ATOM     20  C   UNL     1      35.240 -18.498 -21.976  0.00  0.00    -0.022 C 
ATOM     21  C   UNL     1      34.646 -19.381 -22.882  0.00  0.00    -0.004 C 
ATOM     22  C   UNL     1      35.365 -17.147 -22.312  0.00  0.00    -0.004 C 
ATOM     23  C   UNL     1      34.181 -18.918 -24.113  0.00  0.00    -0.000 C 
ATOM     24  C   UNL     1      34.900 -16.683 -23.542  0.00  0.00    -0.000 C 
ATOM     25  C   UNL     1      34.308 -17.568 -24.443  0.00  0.00    -0.000 C 
ENDBRANCH  18  20
ENDBRANCH   1  17
TORSDOF 3
ENDMDL
MODEL 6
REMARK VINA RESULT:     -11.0      3.796      8.627
REMARK  Name = 448841
REMARK  3 active torsions:
REMARK  status: ('A' for Active; 'I' for Inactive)
REMARK    1  A    between atoms: C_1  and  C_17
REMARK    2  A    between atoms: C_9  and  C_13
REMARK    3  A    between atoms: C_18  and  C_20
REMARK                            x       y       z     vdW  Elec       q    Type
REMARK                         _______ _______ _______ _____ _____    ______ ____
ROOT
ATOM      1  C   UNL     1      34.487 -22.625 -17.337  0.00  0.00    -0.022 C 
ATOM      2  C   UNL     1      35.620 -21.995 -17.852  0.00  0.00    -0.004 C 
ATOM      3  C   UNL     1      33.246 -22.429 -17.936  0.00  0.00    -0.004 C 
ATOM      4  C   UNL     1      35.526 -21.159 -18.976  0.00  0.00    -0.000 C 
ATOM      5  C   UNL     1      33.135 -21.600 -19.054  0.00  0.00    -0.000 C 
ATOM      6  C   UNL     1      34.264 -20.958 -19.587  0.00  0.00    +0.000 C 
ATOM      7  C   UNL     1      36.655 -20.516 -19.509  0.00  0.00    +0.000 C 
ATOM      8  C   UNL     1      34.169 -20.122 -20.710  0.00  0.00    +0.003 C 
ATOM      9  C   UNL     1      35.302 -19.492 -21.227  0.00  0.00    +0.031 C 
ATOM     10  C   UNL     1      36.543 -19.689 -20.626  0.00  0.00    +0.003 C 
ENDROOT
BRANCH   9  13
ATOM     11  N   UNL     1      35.818 -17.387 -22.439  0.00  0.00    -0.343 N 
ATOM     12  N   UNL     1      34.471 -19.018 -23.431  0.00  0.00    -0.285 NA
ATOM     13  C   UNL     1      35.188 -18.630 -22.391  0.00  0.00    +0.117 C 
ATOM     14  H   UNL     1      35.726 -16.819 -23.237  0.00  0.00    +0.144 HD
ATOM     15  H   UNL     1      36.354 -17.078 -21.673  0.00  0.00    +0.144 HD
ATOM     16  H   UNL     1      34.393 -18.436 -24.221  0.00  0.00    +0.188 HD
ENDBRANCH   9  13
BRANCH   1  17
ATOM     17  C   UNL     1      34.605 -23.509 -16.143  0.00  0.00    +0.027 C 
ATOM     18  C   UNL     1      35.474 -23.083 -15.000  0.00  0.00    +0.027 C 
ATOM     19  C   UNL     1      33.980 -23.079 -14.852  0.00  0.00    +0.009 C 
BRANCH  18  20
ATOM     20  C   UNL     1      36.274 -24.104 -14.278  0.00  0.00    -0.022 C 
ATOM     21  C   UNL     1      37.063 -23.734 -13.184  0.00  0.00    -0.004 C 
ATOM     22  C   UNL     1      36.245 -25.440 -14.686  0.00  0.00    -0.004 C 
ATOM     23  C   UNL     1      37.817 -24.692 -12.506  0.00  0.00    -0.000 C 
ATOM     24  C   UNL     1      36.999 -26.398 -14.009  0.00  0.00    -0.000 C 
ATOM     25  C   UNL     1      37.785 -26.024 -12.919  0.00  0.00    -0.000 C 
ENDBRANCH  18  20
ENDBRANCH   1  17
TORSDOF 3
ENDMDL
MODEL 7
REMARK VINA RESULT:     -10.8      1.316      2.231
REMARK  Name = 448841
REMARK  3 active torsions:
REMARK  status: ('A' for Active; 'I' for Inactive)
REMARK    1  A    between atoms: C_1  and  C_17
REMARK    2  A    between atoms: C_9  and  C_13
REMARK    3  A    between atoms: C_18  and  C_20
REMARK                            x       y       z     vdW  Elec       q    Type
REMARK                         _______ _______ _______ _____ _____    ______ ____
ROOT
ATOM      1  C   UNL     1      35.422 -21.521 -18.897  0.00  0.00    -0.022 C 
ATOM      2  C   UNL     1      34.103 -21.889 -18.633  0.00  0.00    -0.004 C 
ATOM      3  C   UNL     1      36.403 -21.699 -17.925  0.00  0.00    -0.004 C 
ATOM      4  C   UNL     1      33.747 -22.441 -17.391  0.00  0.00    -0.000 C 
ATOM      5  C   UNL     1      36.067 -22.246 -16.686  0.00  0.00    -0.000 C 
ATOM      6  C   UNL     1      34.744 -22.622 -16.403  0.00  0.00    +0.000 C 
ATOM      7  C   UNL     1      32.424 -22.816 -17.108  0.00  0.00    +0.000 C 
ATOM      8  C   UNL     1      34.389 -23.173 -15.162  0.00  0.00    +0.003 C 
ATOM      9  C   UNL     1      33.069 -23.542 -14.897  0.00  0.00    +0.031 C 
ATOM     10  C   UNL     1      32.089 -23.363 -15.870  0.00  0.00    +0.003 C 
ENDROOT
BRANCH   9  13
ATOM     11  N   UNL     1      32.182 -25.395 -13.503  0.00  0.00    -0.343 N 
ATOM     12  N   UNL     1      32.901 -23.408 -12.504  0.00  0.00    -0.285 NA
ATOM     13  C   UNL     1      32.718 -24.112 -13.607  0.00  0.00    +0.117 C 
ATOM     14  H   UNL     1      31.951 -25.761 -12.619  0.00  0.00    +0.144 HD
ATOM     15  H   UNL     1      32.035 -25.934 -14.313  0.00  0.00    +0.144 HD
ATOM     16  H   UNL     1      32.663 -23.793 -11.630  0.00  0.00    +0.188 HD
ENDBRANCH   9  13
BRANCH   1  17
ATOM     17  C   UNL     1      35.782 -20.937 -20.219  0.00  0.00    +0.027 C 
ATOM     18  C   UNL     1      35.889 -19.450 -20.358  0.00  0.00    +0.027 C 
ATOM     19  C   UNL     1      37.126 -20.299 -20.395  0.00  0.00    +0.009 C 
BRANCH  18  20
ATOM     20  C   UNL     1      35.414 -18.801 -21.605  0.00  0.00    -0.022 C 
ATOM     21  C   UNL     1      35.534 -17.417 -21.768  0.00  0.00    -0.004 C 
ATOM     22  C   UNL     1      34.844 -19.568 -22.625  0.00  0.00    -0.004 C 
ATOM     23  C   UNL     1      35.086 -16.806 -22.940  0.00  0.00    -0.000 C 
ATOM     24  C   UNL     1      34.396 -18.958 -23.796  0.00  0.00    -0.000 C 
ATOM     25  C   UNL     1      34.517 -17.577 -23.953  0.00  0.00    -0.000 C 
ENDBRANCH  18  20
ENDBRANCH   1  17
TORSDOF 3
ENDMDL
MODEL 8
REMARK VINA RESULT:     -10.8      5.860      9.946
REMARK  Name = 448841
REMARK  3 active torsions:
REMARK  status: ('A' for Active; 'I' for Inactive)
REMARK    1  A    between atoms: C_1  and  C_17
REMARK    2  A    between atoms: C_9  and  C_13
REMARK    3  A    between atoms: C_18  and  C_20
REMARK                            x       y       z     vdW  Elec       q    Type
REMARK                         _______ _______ _______ _____ _____    ______ ____
ROOT
ATOM      1  C   UNL     1      34.908 -16.120 -21.302  0.00  0.00    -0.022 C 
ATOM      2  C   UNL     1      34.721 -15.569 -22.570  0.00  0.00    -0.004 C 
ATOM      3  C   UNL     1      34.514 -15.413 -20.170  0.00  0.00    -0.004 C 
ATOM      4  C   UNL     1      34.136 -14.301 -22.722  0.00  0.00    -0.000 C 
ATOM      5  C   UNL     1      33.930 -14.152 -20.302  0.00  0.00    -0.000 C 
ATOM      6  C   UNL     1      33.734 -13.582 -21.570  0.00  0.00    +0.000 C 
ATOM      7  C   UNL     1      33.940 -13.731 -23.990  0.00  0.00    +0.000 C 
ATOM      8  C   UNL     1      33.150 -12.315 -21.721  0.00  0.00    +0.003 C 
ATOM      9  C   UNL     1      32.962 -11.763 -22.990  0.00  0.00    +0.031 C 
ATOM     10  C   UNL     1      33.357 -12.471 -24.121  0.00  0.00    +0.003 C 
ENDROOT
BRANCH   9  13
ATOM     11  N   UNL     1      31.164 -10.129 -22.479  0.00  0.00    -0.343 N 
ATOM     12  N   UNL     1      32.931  -9.534 -23.888  0.00  0.00    -0.285 NA
ATOM     13  C   UNL     1      32.355 -10.450 -23.129  0.00  0.00    +0.117 C 
ATOM     14  H   UNL     1      30.770  -9.233 -22.588  0.00  0.00    +0.144 HD
ATOM     15  H   UNL     1      30.717 -10.798 -21.912  0.00  0.00    +0.144 HD
ATOM     16  H   UNL     1      32.521  -8.645 -23.983  0.00  0.00    +0.188 HD
ENDBRANCH   9  13
BRANCH   1  17
ATOM     17  C   UNL     1      35.530 -17.466 -21.160  0.00  0.00    +0.027 C 
ATOM     18  C   UNL     1      34.681 -18.687 -21.329  0.00  0.00    +0.027 C 
ATOM     19  C   UNL     1      35.697 -18.326 -22.374  0.00  0.00    +0.009 C 
BRANCH  18  20
ATOM     20  C   UNL     1      34.921 -19.864 -20.458  0.00  0.00    -0.022 C 
ATOM     21  C   UNL     1      36.223 -20.206 -20.079  0.00  0.00    -0.004 C 
ATOM     22  C   UNL     1      33.847 -20.641 -20.012  0.00  0.00    -0.004 C 
ATOM     23  C   UNL     1      36.449 -21.314 -19.262  0.00  0.00    -0.000 C 
ATOM     24  C   UNL     1      34.072 -21.749 -19.196  0.00  0.00    -0.000 C 
ATOM     25  C   UNL     1      35.373 -22.085 -18.821  0.00  0.00    -0.000 C 
ENDBRANCH  18  20
ENDBRANCH   1  17
TORSDOF 3
ENDMDL
MODEL 9
REMARK VINA RESULT:     -10.6      8.942     12.849
REMARK  Name = 448841
REMARK  3 active torsions:
REMARK  status: ('A' for Active; 'I' for Inactive)
REMARK    1  A    between atoms: C_1  and  C_17
REMARK    2  A    between atoms: C_9  and  C_13
REMARK    3  A    between atoms: C_18  and  C_20
REMARK                            x       y       z     vdW  Elec       q    Type
REMARK                         _______ _______ _______ _____ _____    ______ ____
ROOT
ATOM      1  C   UNL     1      32.104 -11.746 -20.834  0.00  0.00    -0.022 C 
ATOM      2  C   UNL     1      31.924 -10.941 -21.959  0.00  0.00    -0.004 C 
ATOM      3  C   UNL     1      32.089 -11.179 -19.562  0.00  0.00    -0.004 C 
ATOM      4  C   UNL     1      31.725  -9.557 -21.827  0.00  0.00    -0.000 C 
ATOM      5  C   UNL     1      31.892  -9.805 -19.413  0.00  0.00    -0.000 C 
ATOM      6  C   UNL     1      31.709  -8.980 -20.534  0.00  0.00    +0.000 C 
ATOM      7  C   UNL     1      31.543  -8.732 -22.948  0.00  0.00    +0.000 C 
ATOM      8  C   UNL     1      31.511  -7.597 -20.401  0.00  0.00    +0.003 C 
ATOM      9  C   UNL     1      31.330  -6.792 -21.527  0.00  0.00    +0.031 C 
ATOM     10  C   UNL     1      31.346  -7.360 -22.798  0.00  0.00    +0.003 C 
ENDROOT
BRANCH   9  13
ATOM     11  N   UNL     1      32.154  -4.523 -20.944  0.00  0.00    -0.343 N 
ATOM     12  N   UNL     1      29.943  -4.833 -21.637  0.00  0.00    -0.285 NA
ATOM     13  C   UNL     1      31.125  -5.361 -21.373  0.00  0.00    +0.117 C 
ATOM     14  H   UNL     1      31.993  -3.557 -20.846  0.00  0.00    +0.144 HD
ATOM     15  H   UNL     1      33.041  -4.898 -20.739  0.00  0.00    +0.144 HD
ATOM     16  H   UNL     1      29.803  -3.864 -21.533  0.00  0.00    +0.188 HD
ENDBRANCH   9  13
BRANCH   1  17
ATOM     17  C   UNL     1      32.314 -13.212 -20.992  0.00  0.00    +0.027 C 
ATOM     18  C   UNL     1      33.593 -13.824 -20.513  0.00  0.00    +0.027 C 
ATOM     19  C   UNL     1      32.312 -14.086 -19.776  0.00  0.00    +0.009 C 
BRANCH  18  20
ATOM     20  C   UNL     1      34.215 -14.917 -21.301  0.00  0.00    -0.022 C 
ATOM     21  C   UNL     1      34.213 -14.867 -22.698  0.00  0.00    -0.004 C 
ATOM     22  C   UNL     1      34.807 -16.005 -20.652  0.00  0.00    -0.004 C 
ATOM     23  C   UNL     1      34.795 -15.895 -23.440  0.00  0.00    -0.000 C 
ATOM     24  C   UNL     1      35.389 -17.033 -21.392  0.00  0.00    -0.000 C 
ATOM     25  C   UNL     1      35.383 -16.978 -22.786  0.00  0.00    -0.000 C 
ENDBRANCH  18  20
ENDBRANCH   1  17
TORSDOF 3
ENDMDL
