MODEL 1
REMARK VINA RESULT:     -11.4      0.000      0.000
REMARK  Name = 11234049
REMARK  5 active torsions:
REMARK  status: ('A' for Active; 'I' for Inactive)
REMARK    1  A    between atoms: C_2  and  N_10
REMARK    2  A    between atoms: C_5  and  C_18
REMARK    3  A    between atoms: C_11  and  C_14
REMARK    4  A    between atoms: C_14  and  O_15
REMARK    5  A    between atoms: C_22  and  C_27
REMARK                            x       y       z     vdW  Elec       q    Type
REMARK                         _______ _______ _______ _____ _____    ______ ____
ROOT
ATOM      1  F   UNL     1      33.384 -22.870 -17.756  0.00  0.00    -0.204 F 
ATOM      2  C   UNL     1      36.054 -23.408 -15.343  0.00  0.00    +0.059 C 
ATOM      3  C   UNL     1      34.819 -23.503 -15.992  0.00  0.00    +0.045 C 
ATOM      4  C   UNL     1      37.043 -22.567 -15.864  0.00  0.00    +0.015 C 
ATOM      5  C   UNL     1      35.565 -21.928 -17.664  0.00  0.00    +0.029 C 
ATOM      6  C   UNL     1      34.574 -22.765 -17.149  0.00  0.00    +0.141 C 
ATOM      7  C   UNL     1      36.799 -21.830 -17.022  0.00  0.00    +0.004 C 
ENDROOT
BRANCH   2  10
ATOM      8  O   UNL     1      36.795 -25.849 -12.744  0.00  0.00    -0.434 OA
ATOM      9  O   UNL     1      36.797 -26.332 -14.960  0.00  0.00    -0.226 OA
ATOM     10  N   UNL     1      36.303 -24.161 -14.160  0.00  0.00    -0.221 N 
ATOM     11  C   UNL     1      36.770 -24.656 -11.949  0.00  0.00    +0.220 C 
ATOM     12  C   UNL     1      36.113 -23.624 -12.839  0.00  0.00    +0.148 C 
ATOM     13  C   UNL     1      36.651 -25.507 -14.071  0.00  0.00    +0.409 C 
BRANCH  11  14
ATOM     14  C   UNL     1      38.196 -24.292 -11.560  0.00  0.00    +0.183 C 
BRANCH  14  15
ATOM     15  O   UNL     1      38.227 -22.931 -11.169  0.00  0.00    -0.378 OA
ATOM     16  H   UNL     1      39.040 -22.518 -11.500  0.00  0.00    +0.211 HD
ENDBRANCH  14  15
ENDBRANCH  11  14
ENDBRANCH   2  10
BRANCH   5  18
ATOM     17  N   UNL     1      36.177 -19.740 -20.621  0.00  0.00    -0.234 NA
ATOM     18  C   UNL     1      35.317 -21.159 -18.866  0.00  0.00    +0.021 C 
ATOM     19  C   UNL     1      34.045 -21.090 -19.418  0.00  0.00    +0.004 C 
ATOM     20  C   UNL     1      36.340 -20.474 -19.496  0.00  0.00    +0.100 C 
ATOM     21  C   UNL     1      33.836 -20.345 -20.573  0.00  0.00    +0.029 C 
ATOM     22  C   UNL     1      34.925 -19.694 -21.130  0.00  0.00    +0.146 C 
BRANCH  22  27
ATOM     23  N   UNL     1      35.137 -17.630 -22.413  0.00  0.00    -0.105 NA
ATOM     24  N   UNL     1      34.782 -17.394 -23.683  0.00  0.00    -0.113 N 
ATOM     25  N   UNL     1      34.224 -19.417 -23.462  0.00  0.00    -0.085 NA
ATOM     26  N   UNL     1      34.237 -18.425 -24.344  0.00  0.00    -0.018 NA
ATOM     27  C   UNL     1      34.768 -18.909 -22.321  0.00  0.00    +0.092 C 
ATOM     28  C   UNL     1      34.973 -16.108 -24.302  0.00  0.00    +0.163 C 
ENDBRANCH  22  27
ENDBRANCH   5  18
TORSDOF 5
ENDMDL
MODEL 2
REMARK VINA RESULT:     -10.8      4.791     10.054
REMARK  Name = 11234049
REMARK  5 active torsions:
REMARK  status: ('A' for Active; 'I' for Inactive)
REMARK    1  A    between atoms: C_2  and  N_10
REMARK    2  A    between atoms: C_5  and  C_18
REMARK    3  A    between atoms: C_11  and  C_14
REMARK    4  A    between atoms: C_14  and  O_15
REMARK    5  A    between atoms: C_22  and  C_27
REMARK                            x       y       z     vdW  Elec       q    Type
REMARK                         _______ _______ _______ _____ _____    ______ ____
ROOT
ATOM      1  F   UNL     1      33.213 -21.102 -19.603  0.00  0.00    -0.204 F 
ATOM      2  C   UNL     1      35.166 -18.940 -21.782  0.00  0.00    +0.059 C 
ATOM      3  C   UNL     1      34.085 -19.640 -21.238  0.00  0.00    +0.045 C 
ATOM      4  C   UNL     1      36.426 -19.046 -21.185  0.00  0.00    +0.015 C 
ATOM      5  C   UNL     1      35.522 -20.540 -19.517  0.00  0.00    +0.029 C 
ATOM      6  C   UNL     1      34.262 -20.438 -20.109  0.00  0.00    +0.141 C 
ATOM      7  C   UNL     1      36.603 -19.843 -20.055  0.00  0.00    +0.004 C 
ENDROOT
BRANCH   2  10
ATOM      8  O   UNL     1      34.385 -17.397 -24.987  0.00  0.00    -0.434 OA
ATOM      9  O   UNL     1      33.799 -19.518 -24.437  0.00  0.00    -0.226 OA
ATOM     10  N   UNL     1      34.985 -18.125 -22.936  0.00  0.00    -0.221 N 
ATOM     11  C   UNL     1      34.879 -16.248 -24.285  0.00  0.00    +0.220 C 
ATOM     12  C   UNL     1      35.576 -16.821 -23.070  0.00  0.00    +0.148 C 
ATOM     13  C   UNL     1      34.333 -18.465 -24.119  0.00  0.00    +0.409 C 
BRANCH  11  14
ATOM     14  C   UNL     1      33.704 -15.345 -23.932  0.00  0.00    +0.183 C 
BRANCH  14  15
ATOM     15  O   UNL     1      32.973 -15.069 -25.114  0.00  0.00    -0.378 OA
ATOM     16  H   UNL     1      33.210 -14.189 -25.442  0.00  0.00    +0.211 HD
ENDBRANCH  14  15
ENDBRANCH  11  14
ENDBRANCH   2  10
BRANCH   5  18
ATOM     17  N   UNL     1      34.896 -23.137 -16.916  0.00  0.00    -0.234 NA
ATOM     18  C   UNL     1      35.711 -21.368 -18.344  0.00  0.00    +0.021 C 
ATOM     19  C   UNL     1      36.832 -21.218 -17.539  0.00  0.00    +0.004 C 
ATOM     20  C   UNL     1      34.780 -22.331 -17.996  0.00  0.00    +0.100 C 
ATOM     21  C   UNL     1      36.986 -22.027 -16.418  0.00  0.00    +0.029 C 
ATOM     22  C   UNL     1      35.999 -22.962 -16.153  0.00  0.00    +0.146 C 
BRANCH  22  27
ATOM     23  N   UNL     1      36.895 -24.899 -14.972  0.00  0.00    -0.105 NA
ATOM     24  N   UNL     1      36.624 -25.321 -13.729  0.00  0.00    -0.113 N 
ATOM     25  N   UNL     1      35.401 -23.607 -13.865  0.00  0.00    -0.085 NA
ATOM     26  N   UNL     1      35.743 -24.585 -13.036  0.00  0.00    -0.018 NA
ATOM     27  C   UNL     1      36.106 -23.824 -15.010  0.00  0.00    +0.092 C 
ATOM     28  C   UNL     1      37.240 -26.496 -13.171  0.00  0.00    +0.163 C 
ENDBRANCH  22  27
ENDBRANCH   5  18
TORSDOF 5
ENDMDL
MODEL 3
REMARK VINA RESULT:     -10.6      1.092      1.809
REMARK  Name = 11234049
REMARK  5 active torsions:
REMARK  status: ('A' for Active; 'I' for Inactive)
REMARK    1  A    between atoms: C_2  and  N_10
REMARK    2  A    between atoms: C_5  and  C_18
REMARK    3  A    between atoms: C_11  and  C_14
REMARK    4  A    between atoms: C_14  and  O_15
REMARK    5  A    between atoms: C_22  and  C_27
REMARK                            x       y       z     vdW  Elec       q    Type
REMARK                         _______ _______ _______ _____ _____    ______ ____
ROOT
ATOM      1  F   UNL     1      33.512 -22.537 -18.052  0.00  0.00    -0.204 F 
ATOM      2  C   UNL     1      36.103 -23.198 -15.584  0.00  0.00    +0.059 C 
ATOM      3  C   UNL     1      34.879 -23.237 -16.259  0.00  0.00    +0.045 C 
ATOM      4  C   UNL     1      37.140 -22.403 -16.082  0.00  0.00    +0.015 C 
ATOM      5  C   UNL     1      35.731 -21.695 -17.912  0.00  0.00    +0.029 C 
ATOM      6  C   UNL     1      34.693 -22.487 -17.420  0.00  0.00    +0.141 C 
ATOM      7  C   UNL     1      36.954 -21.654 -17.243  0.00  0.00    +0.004 C 
ENDROOT
BRANCH   2  10
ATOM      8  O   UNL     1      35.924 -25.060 -12.460  0.00  0.00    -0.434 OA
ATOM      9  O   UNL     1      34.135 -24.062 -13.432  0.00  0.00    -0.226 OA
ATOM     10  N   UNL     1      36.293 -23.964 -14.398  0.00  0.00    -0.221 N 
ATOM     11  C   UNL     1      37.264 -25.387 -12.854  0.00  0.00    +0.220 C 
ATOM     12  C   UNL     1      37.589 -24.388 -13.943  0.00  0.00    +0.148 C 
ATOM     13  C   UNL     1      35.328 -24.327 -13.462  0.00  0.00    +0.409 C 
BRANCH  11  14
ATOM     14  C   UNL     1      37.297 -26.831 -13.335  0.00  0.00    +0.183 C 
BRANCH  14  15
ATOM     15  O   UNL     1      38.074 -26.897 -14.518  0.00  0.00    -0.378 OA
ATOM     16  H   UNL     1      37.946 -26.087 -15.034  0.00  0.00    +0.211 HD
ENDBRANCH  14  15
ENDBRANCH  11  14
ENDBRANCH   2  10
BRANCH   5  18
ATOM     17  N   UNL     1      34.061 -20.130 -20.855  0.00  0.00    -0.234 NA
ATOM     18  C   UNL     1      35.543 -20.914 -19.117  0.00  0.00    +0.021 C 
ATOM     19  C   UNL     1      36.600 -20.219 -19.689  0.00  0.00    +0.004 C 
ATOM     20  C   UNL     1      34.305 -20.840 -19.730  0.00  0.00    +0.100 C 
ATOM     21  C   UNL     1      36.389 -19.478 -20.846  0.00  0.00    +0.029 C 
ATOM     22  C   UNL     1      35.113 -19.466 -21.385  0.00  0.00    +0.146 C 
BRANCH  22  27
ATOM     23  N   UNL     1      35.061 -17.408 -22.693  0.00  0.00    -0.105 NA
ATOM     24  N   UNL     1      34.647 -17.229 -23.955  0.00  0.00    -0.113 N 
ATOM     25  N   UNL     1      34.322 -19.298 -23.699  0.00  0.00    -0.085 NA
ATOM     26  N   UNL     1      34.200 -18.322 -24.590  0.00  0.00    -0.018 NA
ATOM     27  C   UNL     1      34.838 -18.719 -22.579  0.00  0.00    +0.092 C 
ATOM     28  C   UNL     1      34.679 -15.938 -24.592  0.00  0.00    +0.163 C 
ENDBRANCH  22  27
ENDBRANCH   5  18
TORSDOF 5
ENDMDL
MODEL 4
REMARK VINA RESULT:     -10.3      8.646     13.464
REMARK  Name = 11234049
REMARK  5 active torsions:
REMARK  status: ('A' for Active; 'I' for Inactive)
REMARK    1  A    between atoms: C_2  and  N_10
REMARK    2  A    between atoms: C_5  and  C_18
REMARK    3  A    between atoms: C_11  and  C_14
REMARK    4  A    between atoms: C_14  and  O_15
REMARK    5  A    between atoms: C_22  and  C_27
REMARK                            x       y       z     vdW  Elec       q    Type
REMARK                         _______ _______ _______ _____ _____    ______ ____
ROOT
ATOM      1  F   UNL     1      31.857 -13.352 -20.806  0.00  0.00    -0.204 F 
ATOM      2  C   UNL     1      32.584 -10.526 -22.980  0.00  0.00    +0.059 C 
ATOM      3  C   UNL     1      31.957 -11.334 -22.026  0.00  0.00    +0.045 C 
ATOM      4  C   UNL     1      33.734 -10.989 -23.626  0.00  0.00    +0.015 C 
ATOM      5  C   UNL     1      33.622 -13.049 -22.371  0.00  0.00    +0.029 C 
ATOM      6  C   UNL     1      32.474 -12.593 -21.722  0.00  0.00    +0.141 C 
ATOM      7  C   UNL     1      34.253 -12.247 -23.322  0.00  0.00    +0.004 C 
ENDROOT
BRANCH   2  10
ATOM      8  O   UNL     1      31.168  -7.174 -23.105  0.00  0.00    -0.434 OA
ATOM      9  O   UNL     1      31.550  -8.305 -21.178  0.00  0.00    -0.226 OA
ATOM     10  N   UNL     1      32.054  -9.241 -23.291  0.00  0.00    -0.221 N 
ATOM     11  C   UNL     1      31.542  -7.325 -24.482  0.00  0.00    +0.220 C 
ATOM     12  C   UNL     1      31.805  -8.806 -24.639  0.00  0.00    +0.148 C 
ATOM     13  C   UNL     1      31.608  -8.270 -22.398  0.00  0.00    +0.409 C 
BRANCH  11  14
ATOM     14  C   UNL     1      32.768  -6.465 -24.756  0.00  0.00    +0.183 C 
BRANCH  14  15
ATOM     15  O   UNL     1      32.704  -5.309 -23.938  0.00  0.00    -0.378 OA
ATOM     16  H   UNL     1      32.090  -5.467 -23.205  0.00  0.00    +0.211 HD
ENDBRANCH  14  15
ENDBRANCH  11  14
ENDBRANCH   2  10
BRANCH   5  18
ATOM     17  N   UNL     1      34.858 -15.954 -20.387  0.00  0.00    -0.234 NA
ATOM     18  C   UNL     1      34.164 -14.356 -22.059  0.00  0.00    +0.021 C 
ATOM     19  C   UNL     1      34.501 -15.248 -23.068  0.00  0.00    +0.004 C 
ATOM     20  C   UNL     1      34.358 -14.750 -20.747  0.00  0.00    +0.100 C 
ATOM     21  C   UNL     1      35.019 -16.495 -22.737  0.00  0.00    +0.029 C 
ATOM     22  C   UNL     1      35.177 -16.797 -21.394  0.00  0.00    +0.146 C 
BRANCH  22  27
ATOM     23  N   UNL     1      34.947 -19.087 -20.588  0.00  0.00    -0.105 NA
ATOM     24  N   UNL     1      35.907 -19.990 -20.348  0.00  0.00    -0.113 N 
ATOM     25  N   UNL     1      37.043 -18.337 -21.001  0.00  0.00    -0.085 NA
ATOM     26  N   UNL     1      37.165 -19.588 -20.579  0.00  0.00    -0.018 NA
ATOM     27  C   UNL     1      35.707 -18.069 -20.995  0.00  0.00    +0.092 C 
ATOM     28  C   UNL     1      35.607 -21.314 -19.868  0.00  0.00    +0.163 C 
ENDBRANCH  22  27
ENDBRANCH   5  18
TORSDOF 5
ENDMDL
MODEL 5
REMARK VINA RESULT:     -10.0      9.499     14.390
REMARK  Name = 11234049
REMARK  5 active torsions:
REMARK  status: ('A' for Active; 'I' for Inactive)
REMARK    1  A    between atoms: C_2  and  N_10
REMARK    2  A    between atoms: C_5  and  C_18
REMARK    3  A    between atoms: C_11  and  C_14
REMARK    4  A    between atoms: C_14  and  O_15
REMARK    5  A    between atoms: C_22  and  C_27
REMARK                            x       y       z     vdW  Elec       q    Type
REMARK                         _______ _______ _______ _____ _____    ______ ____
ROOT
ATOM      1  F   UNL     1      34.884 -11.144 -24.130  0.00  0.00    -0.204 F 
ATOM      2  C   UNL     1      31.993  -9.241 -23.003  0.00  0.00    +0.059 C 
ATOM      3  C   UNL     1      33.198  -9.567 -23.635  0.00  0.00    +0.045 C 
ATOM      4  C   UNL     1      31.324 -10.213 -22.252  0.00  0.00    +0.015 C 
ATOM      5  C   UNL     1      33.056 -11.817 -22.766  0.00  0.00    +0.029 C 
ATOM      6  C   UNL     1      33.728 -10.851 -23.517  0.00  0.00    +0.141 C 
ATOM      7  C   UNL     1      31.854 -11.498 -22.135  0.00  0.00    +0.004 C 
ENDROOT
BRANCH   2  10
ATOM      8  O   UNL     1      30.741  -5.841 -22.648  0.00  0.00    -0.434 OA
ATOM      9  O   UNL     1      31.599  -7.050 -20.931  0.00  0.00    -0.226 OA
ATOM     10  N   UNL     1      31.453  -7.929 -23.123  0.00  0.00    -0.221 N 
ATOM     11  C   UNL     1      30.709  -5.957 -24.077  0.00  0.00    +0.220 C 
ATOM     12  C   UNL     1      30.855  -7.440 -24.336  0.00  0.00    +0.148 C 
ATOM     13  C   UNL     1      31.315  -6.975 -22.118  0.00  0.00    +0.409 C 
BRANCH  11  14
ATOM     14  C   UNL     1      31.845  -5.131 -24.664  0.00  0.00    +0.183 C 
BRANCH  14  15
ATOM     15  O   UNL     1      32.563  -5.935 -25.583  0.00  0.00    -0.378 OA
ATOM     16  H   UNL     1      32.108  -6.785 -25.693  0.00  0.00    +0.211 HD
ENDBRANCH  14  15
ENDBRANCH  11  14
ENDBRANCH   2  10
BRANCH   5  18
ATOM     17  N   UNL     1      34.562 -14.863 -21.232  0.00  0.00    -0.234 NA
ATOM     18  C   UNL     1      33.602 -13.152 -22.640  0.00  0.00    +0.021 C 
ATOM     19  C   UNL     1      33.696 -13.991 -23.743  0.00  0.00    +0.004 C 
ATOM     20  C   UNL     1      34.044 -13.628 -21.418  0.00  0.00    +0.100 C 
ATOM     21  C   UNL     1      34.225 -15.268 -23.591  0.00  0.00    +0.029 C 
ATOM     22  C   UNL     1      34.640 -15.652 -22.327  0.00  0.00    +0.146 C 
BRANCH  22  27
ATOM     23  N   UNL     1      35.652 -17.377 -20.931  0.00  0.00    -0.105 NA
ATOM     24  N   UNL     1      36.039 -18.613 -21.276  0.00  0.00    -0.113 N 
ATOM     25  N   UNL     1      35.298 -17.880 -23.110  0.00  0.00    -0.085 NA
ATOM     26  N   UNL     1      35.848 -18.954 -22.559  0.00  0.00    -0.018 NA
ATOM     27  C   UNL     1      35.195 -16.958 -22.112  0.00  0.00    +0.092 C 
ATOM     28  C   UNL     1      36.628 -19.521 -20.327  0.00  0.00    +0.163 C 
ENDBRANCH  22  27
ENDBRANCH   5  18
TORSDOF 5
ENDMDL
MODEL 6
REMARK VINA RESULT:     -10.0      1.514      2.104
REMARK  Name = 11234049
REMARK  5 active torsions:
REMARK  status: ('A' for Active; 'I' for Inactive)
REMARK    1  A    between atoms: C_2  and  N_10
REMARK    2  A    between atoms: C_5  and  C_18
REMARK    3  A    between atoms: C_11  and  C_14
REMARK    4  A    between atoms: C_14  and  O_15
REMARK    5  A    between atoms: C_22  and  C_27
REMARK                            x       y       z     vdW  Elec       q    Type
REMARK                         _______ _______ _______ _____ _____    ______ ____
ROOT
ATOM      1  F   UNL     1      33.952 -23.119 -16.653  0.00  0.00    -0.204 F 
ATOM      2  C   UNL     1      36.612 -23.364 -14.181  0.00  0.00    +0.059 C 
ATOM      3  C   UNL     1      35.385 -23.551 -14.828  0.00  0.00    +0.045 C 
ATOM      4  C   UNL     1      37.584 -22.550 -14.769  0.00  0.00    +0.015 C 
ATOM      5  C   UNL     1      36.109 -22.116 -16.632  0.00  0.00    +0.029 C 
ATOM      6  C   UNL     1      35.134 -22.928 -16.049  0.00  0.00    +0.141 C 
ATOM      7  C   UNL     1      37.333 -21.928 -15.992  0.00  0.00    +0.004 C 
ENDROOT
BRANCH   2  10
ATOM      8  O   UNL     1      37.604 -24.421 -10.840  0.00  0.00    -0.434 OA
ATOM      9  O   UNL     1      38.160 -22.416 -11.741  0.00  0.00    -0.226 OA
ATOM     10  N   UNL     1      36.868 -23.999 -12.932  0.00  0.00    -0.221 N 
ATOM     11  C   UNL     1      36.690 -25.478 -11.162  0.00  0.00    +0.220 C 
ATOM     12  C   UNL     1      36.487 -25.359 -12.656  0.00  0.00    +0.148 C 
ATOM     13  C   UNL     1      37.585 -23.488 -11.853  0.00  0.00    +0.409 C 
BRANCH  11  14
ATOM     14  C   UNL     1      35.407 -25.280 -10.365  0.00  0.00    +0.183 C 
BRANCH  14  15
ATOM     15  O   UNL     1      35.708 -24.528  -9.202  0.00  0.00    -0.378 OA
ATOM     16  H   UNL     1      36.670 -24.482  -9.087  0.00  0.00    +0.211 HD
ENDBRANCH  14  15
ENDBRANCH  11  14
ENDBRANCH   2  10
BRANCH   5  18
ATOM     17  N   UNL     1      36.628 -20.014 -19.667  0.00  0.00    -0.234 NA
ATOM     18  C   UNL     1      35.853 -21.467 -17.901  0.00  0.00    +0.021 C 
ATOM     19  C   UNL     1      34.648 -21.651 -18.565  0.00  0.00    +0.004 C 
ATOM     20  C   UNL     1      36.803 -20.648 -18.485  0.00  0.00    +0.100 C 
ATOM     21  C   UNL     1      34.431 -21.016 -19.783  0.00  0.00    +0.029 C 
ATOM     22  C   UNL     1      35.443 -20.215 -20.286  0.00  0.00    +0.146 C 
BRANCH  22  27
ATOM     23  N   UNL     1      34.268 -19.783 -22.380  0.00  0.00    -0.105 NA
ATOM     24  N   UNL     1      34.576 -18.909 -23.347  0.00  0.00    -0.113 N 
ATOM     25  N   UNL     1      36.136 -18.571 -21.967  0.00  0.00    -0.085 NA
ATOM     26  N   UNL     1      35.676 -18.169 -23.145  0.00  0.00    -0.018 NA
ATOM     27  C   UNL     1      35.273 -19.534 -21.538  0.00  0.00    +0.092 C 
ATOM     28  C   UNL     1      33.775 -18.773 -24.536  0.00  0.00    +0.163 C 
ENDBRANCH  22  27
ENDBRANCH   5  18
TORSDOF 5
ENDMDL
MODEL 7
REMARK VINA RESULT:      -9.9      7.898     11.549
REMARK  Name = 11234049
REMARK  5 active torsions:
REMARK  status: ('A' for Active; 'I' for Inactive)
REMARK    1  A    between atoms: C_2  and  N_10
REMARK    2  A    between atoms: C_5  and  C_18
REMARK    3  A    between atoms: C_11  and  C_14
REMARK    4  A    between atoms: C_14  and  O_15
REMARK    5  A    between atoms: C_22  and  C_27
REMARK                            x       y       z     vdW  Elec       q    Type
REMARK                         _______ _______ _______ _____ _____    ______ ____
ROOT
ATOM      1  F   UNL     1      33.021 -13.189 -25.079  0.00  0.00    -0.204 F 
ATOM      2  C   UNL     1      34.376 -15.484 -22.601  0.00  0.00    +0.059 C 
ATOM      3  C   UNL     1      33.907 -14.976 -23.817  0.00  0.00    +0.045 C 
ATOM      4  C   UNL     1      34.401 -14.657 -21.474  0.00  0.00    +0.015 C 
ATOM      5  C   UNL     1      33.494 -12.836 -22.776  0.00  0.00    +0.029 C 
ATOM      6  C   UNL     1      33.467 -13.656 -23.905  0.00  0.00    +0.141 C 
ATOM      7  C   UNL     1      33.962 -13.336 -21.561  0.00  0.00    +0.004 C 
ENDROOT
BRANCH   2  10
ATOM      8  O   UNL     1      35.366 -18.961 -23.030  0.00  0.00    -0.434 OA
ATOM      9  O   UNL     1      34.540 -17.675 -24.704  0.00  0.00    -0.226 OA
ATOM     10  N   UNL     1      34.824 -16.832 -22.511  0.00  0.00    -0.221 N 
ATOM     11  C   UNL     1      35.865 -18.734 -21.704  0.00  0.00    +0.220 C 
ATOM     12  C   UNL     1      35.199 -17.449 -21.267  0.00  0.00    +0.148 C 
ATOM     13  C   UNL     1      34.876 -17.777 -23.534  0.00  0.00    +0.409 C 
BRANCH  11  14
ATOM     14  C   UNL     1      37.384 -18.634 -21.760  0.00  0.00    +0.183 C 
BRANCH  14  15
ATOM     15  O   UNL     1      37.906 -18.947 -20.481  0.00  0.00    -0.378 OA
ATOM     16  H   UNL     1      37.606 -18.285 -19.839  0.00  0.00    +0.211 HD
ENDBRANCH  14  15
ENDBRANCH  11  14
ENDBRANCH   2  10
BRANCH   5  18
ATOM     17  N   UNL     1      31.328  -9.826 -22.389  0.00  0.00    -0.234 NA
ATOM     18  C   UNL     1      33.039 -11.464 -22.862  0.00  0.00    +0.021 C 
ATOM     19  C   UNL     1      33.821 -10.489 -23.466  0.00  0.00    +0.004 C 
ATOM     20  C   UNL     1      31.812 -11.089 -22.343  0.00  0.00    +0.100 C 
ATOM     21  C   UNL     1      33.357  -9.180 -23.533  0.00  0.00    +0.029 C 
ATOM     22  C   UNL     1      32.115  -8.903 -22.985  0.00  0.00    +0.146 C 
BRANCH  22  27
ATOM     23  N   UNL     1      31.329  -6.847 -21.935  0.00  0.00    -0.105 NA
ATOM     24  N   UNL     1      30.871  -5.731 -22.519  0.00  0.00    -0.113 N 
ATOM     25  N   UNL     1      31.302  -6.934 -24.197  0.00  0.00    -0.085 NA
ATOM     26  N   UNL     1      30.838  -5.738 -23.859  0.00  0.00    -0.018 NA
ATOM     27  C   UNL     1      31.586  -7.570 -23.027  0.00  0.00    +0.092 C 
ATOM     28  C   UNL     1      30.439  -4.591 -21.753  0.00  0.00    +0.163 C 
ENDBRANCH  22  27
ENDBRANCH   5  18
TORSDOF 5
ENDMDL
MODEL 8
REMARK VINA RESULT:      -9.7      9.646     14.268
REMARK  Name = 11234049
REMARK  5 active torsions:
REMARK  status: ('A' for Active; 'I' for Inactive)
REMARK    1  A    between atoms: C_2  and  N_10
REMARK    2  A    between atoms: C_5  and  C_18
REMARK    3  A    between atoms: C_11  and  C_14
REMARK    4  A    between atoms: C_14  and  O_15
REMARK    5  A    between atoms: C_22  and  C_27
REMARK                            x       y       z     vdW  Elec       q    Type
REMARK                         _______ _______ _______ _____ _____    ______ ____
ROOT
ATOM      1  F   UNL     1      31.418 -12.177 -21.414  0.00  0.00    -0.204 F 
ATOM      2  C   UNL     1      32.468  -9.049 -22.948  0.00  0.00    +0.059 C 
ATOM      3  C   UNL     1      31.719  -9.979 -22.221  0.00  0.00    +0.045 C 
ATOM      4  C   UNL     1      33.655  -9.453 -23.567  0.00  0.00    +0.015 C 
ATOM      5  C   UNL     1      33.336 -11.698 -22.735  0.00  0.00    +0.029 C 
ATOM      6  C   UNL     1      32.151 -11.300 -22.115  0.00  0.00    +0.141 C 
ATOM      7  C   UNL     1      34.088 -10.774 -23.460  0.00  0.00    +0.004 C 
ENDROOT
BRANCH   2  10
ATOM      8  O   UNL     1      30.896  -5.846 -23.676  0.00  0.00    -0.434 OA
ATOM      9  O   UNL     1      30.277  -7.799 -24.648  0.00  0.00    -0.226 OA
ATOM     10  N   UNL     1      32.026  -7.699 -23.057  0.00  0.00    -0.221 N 
ATOM     11  C   UNL     1      31.712  -5.462 -22.561  0.00  0.00    +0.220 C 
ATOM     12  C   UNL     1      32.688  -6.606 -22.397  0.00  0.00    +0.148 C 
ATOM     13  C   UNL     1      31.000  -7.207 -23.860  0.00  0.00    +0.409 C 
BRANCH  11  14
ATOM     14  C   UNL     1      30.819  -5.255 -21.345  0.00  0.00    +0.183 C 
BRANCH  14  15
ATOM     15  O   UNL     1      29.793  -4.340 -21.686  0.00  0.00    -0.378 OA
ATOM     16  H   UNL     1      30.183  -3.472 -21.871  0.00  0.00    +0.211 HD
ENDBRANCH  14  15
ENDBRANCH  11  14
ENDBRANCH   2  10
BRANCH   5  18
ATOM     17  N   UNL     1      34.680 -14.844 -21.254  0.00  0.00    -0.234 NA
ATOM     18  C   UNL     1      33.790 -13.069 -22.628  0.00  0.00    +0.021 C 
ATOM     19  C   UNL     1      33.780 -13.912 -23.731  0.00  0.00    +0.004 C 
ATOM     20  C   UNL     1      34.244 -13.575 -21.422  0.00  0.00    +0.100 C 
ATOM     21  C   UNL     1      34.221 -15.224 -23.597  0.00  0.00    +0.029 C 
ATOM     22  C   UNL     1      34.658 -15.637 -22.348  0.00  0.00    +0.146 C 
BRANCH  22  27
ATOM     23  N   UNL     1      35.530 -17.452 -20.972  0.00  0.00    -0.105 NA
ATOM     24  N   UNL     1      35.847 -18.702 -21.337  0.00  0.00    -0.113 N 
ATOM     25  N   UNL     1      35.192 -17.884 -23.169  0.00  0.00    -0.085 NA
ATOM     26  N   UNL     1      35.662 -19.002 -22.631  0.00  0.00    -0.018 NA
ATOM     27  C   UNL     1      35.125 -16.980 -22.153  0.00  0.00    +0.092 C 
ATOM     28  C   UNL     1      36.357 -19.665 -20.397  0.00  0.00    +0.163 C 
ENDBRANCH  22  27
ENDBRANCH   5  18
TORSDOF 5
ENDMDL
MODEL 9
REMARK VINA RESULT:      -9.6      9.756     13.878
REMARK  Name = 11234049
REMARK  5 active torsions:
REMARK  status: ('A' for Active; 'I' for Inactive)
REMARK    1  A    between atoms: C_2  and  N_10
REMARK    2  A    between atoms: C_5  and  C_18
REMARK    3  A    between atoms: C_11  and  C_14
REMARK    4  A    between atoms: C_14  and  O_15
REMARK    5  A    between atoms: C_22  and  C_27
REMARK                            x       y       z     vdW  Elec       q    Type
REMARK                         _______ _______ _______ _____ _____    ______ ____
ROOT
ATOM      1  F   UNL     1      31.360 -11.300 -21.040  0.00  0.00    -0.204 F 
ATOM      2  C   UNL     1      33.793 -13.077 -23.081  0.00  0.00    +0.059 C 
ATOM      3  C   UNL     1      32.808 -12.818 -22.123  0.00  0.00    +0.045 C 
ATOM      4  C   UNL     1      34.268 -12.032 -23.880  0.00  0.00    +0.015 C 
ATOM      5  C   UNL     1      32.781 -10.489 -22.766  0.00  0.00    +0.029 C 
ATOM      6  C   UNL     1      32.303 -11.528 -21.965  0.00  0.00    +0.141 C 
ATOM      7  C   UNL     1      33.763 -10.742 -23.724  0.00  0.00    +0.004 C 
ENDROOT
BRANCH   2  10
ATOM      8  O   UNL     1      35.087 -16.470 -22.816  0.00  0.00    -0.434 OA
ATOM      9  O   UNL     1      34.505 -15.204 -21.027  0.00  0.00    -0.226 OA
ATOM     10  N   UNL     1      34.309 -14.394 -23.241  0.00  0.00    -0.221 N 
ATOM     11  C   UNL     1      34.898 -16.399 -24.235  0.00  0.00    +0.220 C 
ATOM     12  C   UNL     1      34.713 -14.924 -24.517  0.00  0.00    +0.148 C 
ATOM     13  C   UNL     1      34.602 -15.317 -22.240  0.00  0.00    +0.409 C 
BRANCH  11  14
ATOM     14  C   UNL     1      33.685 -17.239 -24.613  0.00  0.00    +0.183 C 
BRANCH  14  15
ATOM     15  O   UNL     1      32.878 -16.494 -25.509  0.00  0.00    -0.378 OA
ATOM     16  H   UNL     1      33.023 -16.811 -26.414  0.00  0.00    +0.211 HD
ENDBRANCH  14  15
ENDBRANCH  11  14
ENDBRANCH   2  10
BRANCH   5  18
ATOM     17  N   UNL     1      32.382  -7.008 -21.493  0.00  0.00    -0.234 NA
ATOM     18  C   UNL     1      32.260  -9.148 -22.606  0.00  0.00    +0.021 C 
ATOM     19  C   UNL     1      31.187  -8.704 -23.367  0.00  0.00    +0.004 C 
ATOM     20  C   UNL     1      32.819  -8.272 -21.691  0.00  0.00    +0.100 C 
ATOM     21  C   UNL     1      30.708  -7.410 -23.191  0.00  0.00    +0.029 C 
ATOM     22  C   UNL     1      31.335  -6.609 -22.250  0.00  0.00    +0.146 C 
BRANCH  22  27
ATOM     23  N   UNL     1      31.616  -4.187 -22.306  0.00  0.00    -0.105 NA
ATOM     24  N   UNL     1      30.756  -3.235 -21.921  0.00  0.00    -0.113 N 
ATOM     25  N   UNL     1      29.656  -4.987 -21.504  0.00  0.00    -0.085 NA
ATOM     26  N   UNL     1      29.580  -3.664 -21.439  0.00  0.00    -0.018 NA
ATOM     27  C   UNL     1      30.882  -5.266 -22.026  0.00  0.00    +0.092 C 
ATOM     28  C   UNL     1      31.074  -1.835 -22.017  0.00  0.00    +0.163 C 
ENDBRANCH  22  27
ENDBRANCH   5  18
TORSDOF 5
ENDMDL
