MODEL 1
REMARK VINA RESULT:     -12.8      0.000      0.000
REMARK  Name = 71245288
REMARK  5 active torsions:
REMARK  status: ('A' for Active; 'I' for Inactive)
REMARK    1  A    between atoms: C_3  and  C_9
REMARK    2  A    between atoms: C_6  and  N_14
REMARK    3  A    between atoms: C_15  and  C_18
REMARK    4  A    between atoms: C_22  and  C_30
REMARK    5  A    between atoms: N_27  and  C_32
REMARK                            x       y       z     vdW  Elec       q    Type
REMARK                         _______ _______ _______ _____ _____    ______ ____
ROOT
ATOM      1  O   UNL     1      32.875 -21.751 -19.177  0.00  0.00    -0.270 OA
ATOM      2  N   UNL     1      34.488 -22.114 -17.512  0.00  0.00    -0.259 N 
ATOM      3  C   UNL     1      34.027 -21.613 -18.738  0.00  0.00    +0.253 C 
ATOM      4  H   UNL     1      35.430 -21.924 -17.299  0.00  0.00    +0.157 HD
ATOM      5  N   UNL     1      34.424 -23.244 -15.420  0.00  0.00    -0.388 NA
ATOM      6  C   UNL     1      33.704 -23.953 -14.522  0.00  0.00    +0.166 C 
ATOM      7  C   UNL     1      33.776 -22.859 -16.541  0.00  0.00    +0.167 C 
ATOM      8  C   UNL     1      32.371 -24.292 -14.693  0.00  0.00    +0.031 C 
ATOM      9  C   UNL     1      32.446 -23.147 -16.805  0.00  0.00    +0.101 C 
ATOM     10  C   UNL     1      31.737 -23.878 -15.858  0.00  0.00    -0.015 C 
ENDROOT
BRANCH   3  15
ATOM     11  F   UNL     1      36.760 -21.562 -18.095  0.00  0.00    -0.204 F 
ATOM     12  C   UNL     1      35.495 -19.394 -21.375  0.00  0.00    +0.046 C 
ATOM     13  C   UNL     1      36.843 -19.400 -21.016  0.00  0.00    -0.006 C 
ATOM     14  C   UNL     1      34.570 -20.121 -20.626  0.00  0.00    +0.021 C 
ATOM     15  C   UNL     1      34.994 -20.855 -19.517  0.00  0.00    +0.082 C 
ATOM     16  C   UNL     1      37.266 -20.133 -19.908  0.00  0.00    +0.027 C 
ATOM     17  C   UNL     1      37.860 -18.630 -21.797  0.00  0.00    +0.032 C 
ATOM     18  C   UNL     1      36.341 -20.860 -19.159  0.00  0.00    +0.144 C 
BRANCH  12  20
ATOM     19  N   UNL     1      34.100 -18.237 -24.430  0.00  0.00    -0.255 NA
ATOM     20  N   UNL     1      35.054 -18.673 -22.472  0.00  0.00    -0.282 N 
ATOM     21  C   UNL     1      34.610 -17.085 -23.887  0.00  0.00    +0.053 C 
ATOM     22  C   UNL     1      35.206 -17.329 -22.673  0.00  0.00    +0.134 C 
ATOM     23  C   UNL     1      34.384 -19.174 -23.553  0.00  0.00    +0.219 C 
BRANCH  21  24
ATOM     24  C   UNL     1      34.521 -15.715 -24.552  0.00  0.00    +0.037 C 
ATOM     25  C   UNL     1      33.629 -14.674 -23.941  0.00  0.00    +0.006 C 
ATOM     26  C   UNL     1      33.244 -15.327 -25.236  0.00  0.00    +0.006 C 
ENDBRANCH  21  24
ENDBRANCH  12  20
ENDBRANCH   3  15
BRANCH   6  30
ATOM     27  N   UNL     1      35.686 -24.872 -13.362  0.00  0.00    -0.252 N 
ATOM     28  N   UNL     1      34.007 -24.252 -12.103  0.00  0.00    -0.129 NA
ATOM     29  N   UNL     1      35.010 -24.734 -11.286  0.00  0.00    -0.128 NA
ATOM     30  C   UNL     1      34.431 -24.344 -13.343  0.00  0.00    +0.188 C 
ATOM     31  C   UNL     1      36.007 -25.099 -12.058  0.00  0.00    +0.192 C 
BRANCH  27  32
ATOM     32  C   UNL     1      36.522 -25.142 -14.506  0.00  0.00    +0.080 C 
ATOM     33  C   UNL     1      37.866 -24.416 -14.405  0.00  0.00    +0.022 C 
ATOM     34  C   UNL     1      36.728 -26.644 -14.712  0.00  0.00    +0.022 C 
ENDBRANCH  27  32
ENDBRANCH   6  30
TORSDOF 5
ENDMDL
MODEL 2
REMARK VINA RESULT:     -11.7      5.315      9.350
REMARK  Name = 71245288
REMARK  5 active torsions:
REMARK  status: ('A' for Active; 'I' for Inactive)
REMARK    1  A    between atoms: C_3  and  C_9
REMARK    2  A    between atoms: C_6  and  N_14
REMARK    3  A    between atoms: C_15  and  C_18
REMARK    4  A    between atoms: C_22  and  C_30
REMARK    5  A    between atoms: N_27  and  C_32
REMARK                            x       y       z     vdW  Elec       q    Type
REMARK                         _______ _______ _______ _____ _____    ______ ____
ROOT
ATOM      1  O   UNL     1      33.209 -14.380 -24.200  0.00  0.00    -0.270 OA
ATOM      2  N   UNL     1      34.040 -15.124 -22.135  0.00  0.00    -0.259 N 
ATOM      3  C   UNL     1      33.415 -14.204 -22.989  0.00  0.00    +0.253 C 
ATOM      4  H   UNL     1      34.133 -14.842 -21.197  0.00  0.00    +0.157 HD
ATOM      5  N   UNL     1      35.124 -17.130 -21.458  0.00  0.00    -0.388 NA
ATOM      6  C   UNL     1      35.603 -18.346 -21.803  0.00  0.00    +0.166 C 
ATOM      7  C   UNL     1      34.557 -16.405 -22.447  0.00  0.00    +0.167 C 
ATOM      8  C   UNL     1      35.540 -18.868 -23.085  0.00  0.00    +0.031 C 
ATOM      9  C   UNL     1      34.445 -16.837 -23.759  0.00  0.00    +0.101 C 
ATOM     10  C   UNL     1      34.949 -18.093 -24.076  0.00  0.00    -0.015 C 
ENDROOT
BRANCH   3  15
ATOM     11  F   UNL     1      32.188 -14.158 -20.464  0.00  0.00    -0.204 F 
ATOM     12  C   UNL     1      32.699 -10.568 -22.440  0.00  0.00    +0.046 C 
ATOM     13  C   UNL     1      32.094 -10.596 -21.183  0.00  0.00    -0.006 C 
ATOM     14  C   UNL     1      33.132 -11.754 -23.033  0.00  0.00    +0.021 C 
ATOM     15  C   UNL     1      32.961 -12.969 -22.368  0.00  0.00    +0.082 C 
ATOM     16  C   UNL     1      31.923 -11.811 -20.519  0.00  0.00    +0.027 C 
ATOM     17  C   UNL     1      31.617  -9.344 -20.520  0.00  0.00    +0.032 C 
ATOM     18  C   UNL     1      32.357 -12.997 -21.112  0.00  0.00    +0.144 C 
BRANCH  12  20
ATOM     19  N   UNL     1      32.473  -7.686 -24.504  0.00  0.00    -0.255 NA
ATOM     20  N   UNL     1      32.878  -9.373 -23.116  0.00  0.00    -0.282 N 
ATOM     21  C   UNL     1      33.663  -7.485 -23.851  0.00  0.00    +0.053 C 
ATOM     22  C   UNL     1      33.935  -8.517 -22.985  0.00  0.00    +0.134 C 
ATOM     23  C   UNL     1      32.026  -8.831 -24.039  0.00  0.00    +0.219 C 
BRANCH  21  24
ATOM     24  C   UNL     1      34.560  -6.270 -24.064  0.00  0.00    +0.037 C 
ATOM     25  C   UNL     1      34.064  -5.152 -24.934  0.00  0.00    +0.006 C 
ATOM     26  C   UNL     1      35.164  -6.050 -25.420  0.00  0.00    +0.006 C 
ENDBRANCH  21  24
ENDBRANCH  12  20
ENDBRANCH   3  15
BRANCH   6  30
ATOM     27  N   UNL     1      35.608 -20.149 -20.110  0.00  0.00    -0.252 N 
ATOM     28  N   UNL     1      37.372 -18.856 -20.178  0.00  0.00    -0.129 NA
ATOM     29  N   UNL     1      37.556 -19.793 -19.180  0.00  0.00    -0.128 NA
ATOM     30  C   UNL     1      36.199 -19.086 -20.722  0.00  0.00    +0.188 C 
ATOM     31  C   UNL     1      36.490 -20.558 -19.155  0.00  0.00    +0.192 C 
BRANCH  27  32
ATOM     32  C   UNL     1      34.322 -20.739 -20.393  0.00  0.00    +0.080 C 
ATOM     33  C   UNL     1      34.064 -21.971 -19.523  0.00  0.00    +0.022 C 
ATOM     34  C   UNL     1      33.190 -19.720 -20.244  0.00  0.00    +0.022 C 
ENDBRANCH  27  32
ENDBRANCH   6  30
TORSDOF 5
ENDMDL
MODEL 3
REMARK VINA RESULT:     -11.6      3.301     11.117
REMARK  Name = 71245288
REMARK  5 active torsions:
REMARK  status: ('A' for Active; 'I' for Inactive)
REMARK    1  A    between atoms: C_3  and  C_9
REMARK    2  A    between atoms: C_6  and  N_14
REMARK    3  A    between atoms: C_15  and  C_18
REMARK    4  A    between atoms: C_22  and  C_30
REMARK    5  A    between atoms: N_27  and  C_32
REMARK                            x       y       z     vdW  Elec       q    Type
REMARK                         _______ _______ _______ _____ _____    ______ ____
ROOT
ATOM      1  O   UNL     1      34.483 -18.653 -23.887  0.00  0.00    -0.270 OA
ATOM      2  N   UNL     1      34.693 -16.677 -22.638  0.00  0.00    -0.259 N 
ATOM      3  C   UNL     1      34.802 -18.060 -22.845  0.00  0.00    +0.253 C 
ATOM      4  H   UNL     1      34.986 -16.352 -21.756  0.00  0.00    +0.157 HD
ATOM      5  N   UNL     1      34.197 -14.401 -23.119  0.00  0.00    -0.388 NA
ATOM      6  C   UNL     1      33.731 -13.493 -24.006  0.00  0.00    +0.166 C 
ATOM      7  C   UNL     1      34.214 -15.688 -23.531  0.00  0.00    +0.167 C 
ATOM      8  C   UNL     1      33.286 -13.810 -25.279  0.00  0.00    +0.031 C 
ATOM      9  C   UNL     1      33.792 -16.108 -24.782  0.00  0.00    +0.101 C 
ATOM     10  C   UNL     1      33.320 -15.144 -25.667  0.00  0.00    -0.015 C 
ENDROOT
BRANCH   3  15
ATOM     11  F   UNL     1      37.530 -17.965 -22.184  0.00  0.00    -0.204 F 
ATOM     12  C   UNL     1      35.063 -20.373 -19.909  0.00  0.00    +0.046 C 
ATOM     13  C   UNL     1      36.426 -20.293 -19.620  0.00  0.00    -0.006 C 
ATOM     14  C   UNL     1      34.531 -19.639 -20.969  0.00  0.00    +0.021 C 
ATOM     15  C   UNL     1      35.360 -18.824 -21.740  0.00  0.00    +0.082 C 
ATOM     16  C   UNL     1      37.255 -19.479 -20.391  0.00  0.00    +0.027 C 
ATOM     17  C   UNL     1      37.029 -21.067 -18.492  0.00  0.00    +0.032 C 
ATOM     18  C   UNL     1      36.722 -18.745 -21.451  0.00  0.00    +0.144 C 
BRANCH  12  20
ATOM     19  N   UNL     1      32.341 -22.040 -18.352  0.00  0.00    -0.255 NA
ATOM     20  N   UNL     1      34.222 -21.175 -19.157  0.00  0.00    -0.282 N 
ATOM     21  C   UNL     1      33.426 -22.650 -17.774  0.00  0.00    +0.053 C 
ATOM     22  C   UNL     1      34.604 -22.131 -18.257  0.00  0.00    +0.134 C 
ATOM     23  C   UNL     1      32.855 -21.158 -19.180  0.00  0.00    +0.219 C 
BRANCH  21  24
ATOM     24  C   UNL     1      33.329 -23.759 -16.731  0.00  0.00    +0.037 C 
ATOM     25  C   UNL     1      32.426 -23.559 -15.549  0.00  0.00    +0.006 C 
ATOM     26  C   UNL     1      33.916 -23.523 -15.371  0.00  0.00    +0.006 C 
ENDBRANCH  21  24
ENDBRANCH  12  20
ENDBRANCH   3  15
BRANCH   6  30
ATOM     27  N   UNL     1      32.851 -11.653 -22.606  0.00  0.00    -0.252 N 
ATOM     28  N   UNL     1      34.552 -11.180 -23.899  0.00  0.00    -0.129 NA
ATOM     29  N   UNL     1      34.204 -10.040 -23.201  0.00  0.00    -0.128 NA
ATOM     30  C   UNL     1      33.729 -12.135 -23.529  0.00  0.00    +0.188 C 
ATOM     31  C   UNL     1      33.184 -10.344 -22.432  0.00  0.00    +0.192 C 
BRANCH  27  32
ATOM     32  C   UNL     1      31.786 -12.359 -21.936  0.00  0.00    +0.080 C 
ATOM     33  C   UNL     1      32.289 -13.084 -20.686  0.00  0.00    +0.022 C 
ATOM     34  C   UNL     1      30.622 -11.426 -21.594  0.00  0.00    +0.022 C 
ENDBRANCH  27  32
ENDBRANCH   6  30
TORSDOF 5
ENDMDL
MODEL 4
REMARK VINA RESULT:     -11.4      1.626     10.702
REMARK  Name = 71245288
REMARK  5 active torsions:
REMARK  status: ('A' for Active; 'I' for Inactive)
REMARK    1  A    between atoms: C_3  and  C_9
REMARK    2  A    between atoms: C_6  and  N_14
REMARK    3  A    between atoms: C_15  and  C_18
REMARK    4  A    between atoms: C_22  and  C_30
REMARK    5  A    between atoms: N_27  and  C_32
REMARK                            x       y       z     vdW  Elec       q    Type
REMARK                         _______ _______ _______ _____ _____    ______ ____
ROOT
ATOM      1  O   UNL     1      36.794 -21.506 -18.017  0.00  0.00    -0.270 OA
ATOM      2  N   UNL     1      35.059 -20.754 -19.406  0.00  0.00    -0.259 N 
ATOM      3  C   UNL     1      35.592 -21.464 -18.321  0.00  0.00    +0.253 C 
ATOM      4  H   UNL     1      34.084 -20.816 -19.521  0.00  0.00    +0.157 HD
ATOM      5  N   UNL     1      35.022 -19.358 -21.332  0.00  0.00    -0.388 NA
ATOM      6  C   UNL     1      35.717 -18.610 -22.218  0.00  0.00    +0.166 C 
ATOM      7  C   UNL     1      35.742 -19.959 -20.359  0.00  0.00    +0.167 C 
ATOM      8  C   UNL     1      37.091 -18.435 -22.176  0.00  0.00    +0.031 C 
ATOM      9  C   UNL     1      37.117 -19.847 -20.230  0.00  0.00    +0.101 C 
ATOM     10  C   UNL     1      37.797 -19.069 -21.160  0.00  0.00    -0.015 C 
ENDROOT
BRANCH   3  15
ATOM     11  F   UNL     1      32.928 -21.852 -19.120  0.00  0.00    -0.204 F 
ATOM     12  C   UNL     1      34.100 -23.373 -15.463  0.00  0.00    +0.046 C 
ATOM     13  C   UNL     1      32.787 -23.539 -15.904  0.00  0.00    -0.006 C 
ATOM     14  C   UNL     1      35.021 -22.690 -16.258  0.00  0.00    +0.021 C 
ATOM     15  C   UNL     1      34.629 -22.175 -17.494  0.00  0.00    +0.082 C 
ATOM     16  C   UNL     1      32.395 -23.024 -17.138  0.00  0.00    +0.027 C 
ATOM     17  C   UNL     1      31.774 -24.264 -15.076  0.00  0.00    +0.032 C 
ATOM     18  C   UNL     1      33.316 -22.342 -17.934  0.00  0.00    +0.144 C 
BRANCH  12  20
ATOM     19  N   UNL     1      34.444 -24.429 -12.089  0.00  0.00    -0.255 NA
ATOM     20  N   UNL     1      34.510 -23.876 -14.240  0.00  0.00    -0.282 N 
ATOM     21  C   UNL     1      35.649 -24.794 -12.634  0.00  0.00    +0.053 C 
ATOM     22  C   UNL     1      35.714 -24.461 -13.966  0.00  0.00    +0.134 C 
ATOM     23  C   UNL     1      33.781 -23.880 -13.083  0.00  0.00    +0.219 C 
BRANCH  21  24
ATOM     24  C   UNL     1      36.767 -25.479 -11.854  0.00  0.00    +0.037 C 
ATOM     25  C   UNL     1      38.064 -24.747 -11.661  0.00  0.00    +0.006 C 
ATOM     26  C   UNL     1      37.995 -25.922 -12.594  0.00  0.00    +0.006 C 
ENDBRANCH  21  24
ENDBRANCH  12  20
ENDBRANCH   3  15
BRANCH   6  30
ATOM     27  N   UNL     1      34.652 -16.652 -23.292  0.00  0.00    -0.252 N 
ATOM     28  N   UNL     1      34.330 -18.595 -24.246  0.00  0.00    -0.129 NA
ATOM     29  N   UNL     1      33.665 -17.633 -24.980  0.00  0.00    -0.128 NA
ATOM     30  C   UNL     1      34.914 -17.987 -23.238  0.00  0.00    +0.188 C 
ATOM     31  C   UNL     1      33.870 -16.476 -24.393  0.00  0.00    +0.192 C 
BRANCH  27  32
ATOM     32  C   UNL     1      35.096 -15.620 -22.387  0.00  0.00    +0.080 C 
ATOM     33  C   UNL     1      34.583 -14.241 -22.810  0.00  0.00    +0.022 C 
ATOM     34  C   UNL     1      34.700 -15.929 -20.942  0.00  0.00    +0.022 C 
ENDBRANCH  27  32
ENDBRANCH   6  30
TORSDOF 5
ENDMDL
MODEL 5
REMARK VINA RESULT:     -11.3      6.107     10.297
REMARK  Name = 71245288
REMARK  5 active torsions:
REMARK  status: ('A' for Active; 'I' for Inactive)
REMARK    1  A    between atoms: C_3  and  C_9
REMARK    2  A    between atoms: C_6  and  N_14
REMARK    3  A    between atoms: C_15  and  C_18
REMARK    4  A    between atoms: C_22  and  C_30
REMARK    5  A    between atoms: N_27  and  C_32
REMARK                            x       y       z     vdW  Elec       q    Type
REMARK                         _______ _______ _______ _____ _____    ______ ____
ROOT
ATOM      1  O   UNL     1      32.750 -13.104 -23.609  0.00  0.00    -0.270 OA
ATOM      2  N   UNL     1      33.778 -14.211 -21.813  0.00  0.00    -0.259 N 
ATOM      3  C   UNL     1      33.053 -13.168 -22.408  0.00  0.00    +0.253 C 
ATOM      4  H   UNL     1      33.942 -14.120 -20.847  0.00  0.00    +0.157 HD
ATOM      5  N   UNL     1      34.977 -16.258 -21.650  0.00  0.00    -0.388 NA
ATOM      6  C   UNL     1      35.462 -17.355 -22.274  0.00  0.00    +0.166 C 
ATOM      7  C   UNL     1      34.305 -15.376 -22.421  0.00  0.00    +0.167 C 
ATOM      8  C   UNL     1      35.305 -17.609 -23.628  0.00  0.00    +0.031 C 
ATOM      9  C   UNL     1      34.094 -15.538 -23.781  0.00  0.00    +0.101 C 
ATOM     10  C   UNL     1      34.607 -16.679 -24.389  0.00  0.00    -0.015 C 
ENDROOT
BRANCH   3  15
ATOM     11  F   UNL     1      32.254 -13.672 -19.763  0.00  0.00    -0.204 F 
ATOM     12  C   UNL     1      32.170  -9.767 -21.106  0.00  0.00    +0.046 C 
ATOM     13  C   UNL     1      31.782 -10.068 -19.800  0.00  0.00    -0.006 C 
ATOM     14  C   UNL     1      32.587 -10.787 -21.963  0.00  0.00    +0.021 C 
ATOM     15  C   UNL     1      32.617 -12.107 -21.513  0.00  0.00    +0.082 C 
ATOM     16  C   UNL     1      31.811 -11.388 -19.351  0.00  0.00    +0.027 C 
ATOM     17  C   UNL     1      31.328  -9.000 -18.858  0.00  0.00    +0.032 C 
ATOM     18  C   UNL     1      32.229 -12.407 -20.207  0.00  0.00    +0.144 C 
BRANCH  12  20
ATOM     19  N   UNL     1      32.723  -6.333 -21.825  0.00  0.00    -0.255 NA
ATOM     20  N   UNL     1      32.147  -8.464 -21.573  0.00  0.00    -0.282 N 
ATOM     21  C   UNL     1      31.647  -6.629 -22.623  0.00  0.00    +0.053 C 
ATOM     22  C   UNL     1      31.271  -7.944 -22.484  0.00  0.00    +0.134 C 
ATOM     23  C   UNL     1      33.000  -7.460 -21.206  0.00  0.00    +0.219 C 
BRANCH  21  24
ATOM     24  C   UNL     1      30.962  -5.622 -23.542  0.00  0.00    +0.037 C 
ATOM     25  C   UNL     1      31.811  -4.637 -24.291  0.00  0.00    +0.006 C 
ATOM     26  C   UNL     1      30.956  -4.175 -23.147  0.00  0.00    +0.006 C 
ENDBRANCH  21  24
ENDBRANCH  12  20
ENDBRANCH   3  15
BRANCH   6  30
ATOM     27  N   UNL     1      35.573 -19.258 -20.699  0.00  0.00    -0.252 N 
ATOM     28  N   UNL     1      37.468 -18.289 -21.208  0.00  0.00    -0.129 NA
ATOM     29  N   UNL     1      37.728 -19.319 -20.326  0.00  0.00    -0.128 NA
ATOM     30  C   UNL     1      36.171 -18.269 -21.418  0.00  0.00    +0.188 C 
ATOM     31  C   UNL     1      36.581 -19.888 -20.033  0.00  0.00    +0.192 C 
BRANCH  27  32
ATOM     32  C   UNL     1      34.171 -19.593 -20.638  0.00  0.00    +0.080 C 
ATOM     33  C   UNL     1      33.600 -19.881 -22.028  0.00  0.00    +0.022 C 
ATOM     34  C   UNL     1      33.913 -20.766 -19.689  0.00  0.00    +0.022 C 
ENDBRANCH  27  32
ENDBRANCH   6  30
TORSDOF 5
ENDMDL
MODEL 6
REMARK VINA RESULT:     -11.1      3.005      5.396
REMARK  Name = 71245288
REMARK  5 active torsions:
REMARK  status: ('A' for Active; 'I' for Inactive)
REMARK    1  A    between atoms: C_3  and  C_9
REMARK    2  A    between atoms: C_6  and  N_14
REMARK    3  A    between atoms: C_15  and  C_18
REMARK    4  A    between atoms: C_22  and  C_30
REMARK    5  A    between atoms: N_27  and  C_32
REMARK                            x       y       z     vdW  Elec       q    Type
REMARK                         _______ _______ _______ _____ _____    ______ ____
ROOT
ATOM      1  O   UNL     1      37.033 -18.482 -21.691  0.00  0.00    -0.270 OA
ATOM      2  N   UNL     1      34.950 -19.216 -20.895  0.00  0.00    -0.259 N 
ATOM      3  C   UNL     1      35.793 -18.438 -21.703  0.00  0.00    +0.253 C 
ATOM      4  H   UNL     1      33.985 -19.069 -21.018  0.00  0.00    +0.157 HD
ATOM      5  N   UNL     1      34.321 -20.819 -19.254  0.00  0.00    -0.388 NA
ATOM      6  C   UNL     1      34.710 -21.733 -18.338  0.00  0.00    +0.166 C 
ATOM      7  C   UNL     1      35.307 -20.183 -19.924  0.00  0.00    +0.167 C 
ATOM      8  C   UNL     1      36.033 -22.040 -18.062  0.00  0.00    +0.031 C 
ATOM      9  C   UNL     1      36.658 -20.417 -19.722  0.00  0.00    +0.101 C 
ATOM     10  C   UNL     1      37.020 -21.364 -18.771  0.00  0.00    -0.015 C 
ENDROOT
BRANCH   3  15
ATOM     11  F   UNL     1      35.212 -19.184 -24.348  0.00  0.00    -0.204 F 
ATOM     12  C   UNL     1      34.117 -15.398 -23.112  0.00  0.00    +0.046 C 
ATOM     13  C   UNL     1      33.849 -15.815 -24.417  0.00  0.00    -0.006 C 
ATOM     14  C   UNL     1      34.756 -16.261 -22.221  0.00  0.00    +0.021 C 
ATOM     15  C   UNL     1      35.127 -17.541 -22.635  0.00  0.00    +0.082 C 
ATOM     16  C   UNL     1      34.221 -17.093 -24.830  0.00  0.00    +0.027 C 
ATOM     17  C   UNL     1      33.168 -14.915 -25.397  0.00  0.00    +0.032 C 
ATOM     18  C   UNL     1      34.860 -17.957 -23.939  0.00  0.00    +0.144 C 
BRANCH  12  20
ATOM     19  N   UNL     1      33.684 -11.915 -22.568  0.00  0.00    -0.255 NA
ATOM     20  N   UNL     1      33.756 -14.133 -22.682  0.00  0.00    -0.282 N 
ATOM     21  C   UNL     1      32.852 -12.464 -21.624  0.00  0.00    +0.053 C 
ATOM     22  C   UNL     1      32.880 -13.837 -21.675  0.00  0.00    +0.134 C 
ATOM     23  C   UNL     1      34.212 -12.947 -23.188  0.00  0.00    +0.219 C 
BRANCH  21  24
ATOM     24  C   UNL     1      32.010 -11.647 -20.649  0.00  0.00    +0.037 C 
ATOM     25  C   UNL     1      30.644 -11.196 -21.079  0.00  0.00    +0.006 C 
ATOM     26  C   UNL     1      31.759 -10.199 -20.951  0.00  0.00    +0.006 C 
ENDBRANCH  21  24
ENDBRANCH  12  20
ENDBRANCH   3  15
BRANCH   6  30
ATOM     27  N   UNL     1      33.784 -23.105 -16.499  0.00  0.00    -0.252 N 
ATOM     28  N   UNL     1      32.368 -22.393 -18.007  0.00  0.00    -0.129 NA
ATOM     29  N   UNL     1      31.673 -23.134 -17.072  0.00  0.00    -0.128 NA
ATOM     30  C   UNL     1      33.631 -22.388 -17.647  0.00  0.00    +0.188 C 
ATOM     31  C   UNL     1      32.538 -23.551 -16.176  0.00  0.00    +0.192 C 
BRANCH  27  32
ATOM     32  C   UNL     1      34.998 -23.353 -15.759  0.00  0.00    +0.080 C 
ATOM     33  C   UNL     1      35.231 -22.286 -14.686  0.00  0.00    +0.022 C 
ATOM     34  C   UNL     1      35.006 -24.754 -15.145  0.00  0.00    +0.022 C 
ENDBRANCH  27  32
ENDBRANCH   6  30
TORSDOF 5
ENDMDL
MODEL 7
REMARK VINA RESULT:     -10.7      5.535     12.597
REMARK  Name = 71245288
REMARK  5 active torsions:
REMARK  status: ('A' for Active; 'I' for Inactive)
REMARK    1  A    between atoms: C_3  and  C_9
REMARK    2  A    between atoms: C_6  and  N_14
REMARK    3  A    between atoms: C_15  and  C_18
REMARK    4  A    between atoms: C_22  and  C_30
REMARK    5  A    between atoms: N_27  and  C_32
REMARK                            x       y       z     vdW  Elec       q    Type
REMARK                         _______ _______ _______ _____ _____    ______ ____
ROOT
ATOM      1  O   UNL     1      33.284 -14.418 -19.758  0.00  0.00    -0.270 OA
ATOM      2  N   UNL     1      33.294 -13.180 -21.751  0.00  0.00    -0.259 N 
ATOM      3  C   UNL     1      33.535 -14.319 -20.969  0.00  0.00    +0.253 C 
ATOM      4  H   UNL     1      33.547 -13.251 -22.700  0.00  0.00    +0.157 HD
ATOM      5  N   UNL     1      32.593 -10.970 -22.283  0.00  0.00    -0.388 NA
ATOM      6  C   UNL     1      32.056  -9.805 -21.858  0.00  0.00    +0.166 C 
ATOM      7  C   UNL     1      32.736 -11.941 -21.354  0.00  0.00    +0.167 C 
ATOM      8  C   UNL     1      31.656  -9.567 -20.553  0.00  0.00    +0.031 C 
ATOM      9  C   UNL     1      32.368 -11.802 -20.025  0.00  0.00    +0.101 C 
ATOM     10  C   UNL     1      31.818 -10.589 -19.625  0.00  0.00    -0.015 C 
ENDROOT
BRANCH   3  15
ATOM     11  F   UNL     1      33.848 -14.361 -23.759  0.00  0.00    -0.204 F 
ATOM     12  C   UNL     1      35.047 -17.684 -21.620  0.00  0.00    +0.046 C 
ATOM     13  C   UNL     1      35.183 -17.658 -23.008  0.00  0.00    -0.006 C 
ATOM     14  C   UNL     1      34.505 -16.586 -20.951  0.00  0.00    +0.021 C 
ATOM     15  C   UNL     1      34.099 -15.462 -21.670  0.00  0.00    +0.082 C 
ATOM     16  C   UNL     1      34.776 -16.534 -23.727  0.00  0.00    +0.027 C 
ATOM     17  C   UNL     1      35.758 -18.817 -23.756  0.00  0.00    +0.032 C 
ATOM     18  C   UNL     1      34.235 -15.436 -23.057  0.00  0.00    +0.144 C 
BRANCH  12  20
ATOM     19  N   UNL     1      36.745 -20.141 -19.696  0.00  0.00    -0.255 NA
ATOM     20  N   UNL     1      35.443 -18.790 -20.887  0.00  0.00    -0.282 N 
ATOM     21  C   UNL     1      35.500 -20.698 -19.848  0.00  0.00    +0.053 C 
ATOM     22  C   UNL     1      34.675 -19.879 -20.583  0.00  0.00    +0.134 C 
ATOM     23  C   UNL     1      36.677 -18.993 -20.333  0.00  0.00    +0.219 C 
BRANCH  21  24
ATOM     24  C   UNL     1      35.093 -22.051 -19.273  0.00  0.00    +0.037 C 
ATOM     25  C   UNL     1      33.760 -22.173 -18.595  0.00  0.00    +0.006 C 
ATOM     26  C   UNL     1      35.022 -22.208 -17.783  0.00  0.00    +0.006 C 
ENDBRANCH  21  24
ENDBRANCH  12  20
ENDBRANCH   3  15
BRANCH   6  30
ATOM     27  N   UNL     1      32.957  -8.058 -23.359  0.00  0.00    -0.252 N 
ATOM     28  N   UNL     1      30.808  -8.451 -23.484  0.00  0.00    -0.129 NA
ATOM     29  N   UNL     1      31.123  -7.455 -24.387  0.00  0.00    -0.128 NA
ATOM     30  C   UNL     1      31.921  -8.798 -22.878  0.00  0.00    +0.188 C 
ATOM     31  C   UNL     1      32.414  -7.234 -24.298  0.00  0.00    +0.192 C 
BRANCH  27  32
ATOM     32  C   UNL     1      34.347  -8.115 -22.976  0.00  0.00    +0.080 C 
ATOM     33  C   UNL     1      35.090  -9.230 -23.717  0.00  0.00    +0.022 C 
ATOM     34  C   UNL     1      35.043  -6.768 -23.179  0.00  0.00    +0.022 C 
ENDBRANCH  27  32
ENDBRANCH   6  30
TORSDOF 5
ENDMDL
MODEL 8
REMARK VINA RESULT:     -10.3      9.399     16.348
REMARK  Name = 71245288
REMARK  5 active torsions:
REMARK  status: ('A' for Active; 'I' for Inactive)
REMARK    1  A    between atoms: C_3  and  C_9
REMARK    2  A    between atoms: C_6  and  N_14
REMARK    3  A    between atoms: C_15  and  C_18
REMARK    4  A    between atoms: C_22  and  C_30
REMARK    5  A    between atoms: N_27  and  C_32
REMARK                            x       y       z     vdW  Elec       q    Type
REMARK                         _______ _______ _______ _____ _____    ______ ____
ROOT
ATOM      1  O   UNL     1      31.147  -7.645 -21.404  0.00  0.00    -0.270 OA
ATOM      2  N   UNL     1      32.809  -8.077 -23.003  0.00  0.00    -0.259 N 
ATOM      3  C   UNL     1      31.960  -8.415 -21.939  0.00  0.00    +0.253 C 
ATOM      4  H   UNL     1      33.401  -8.796 -23.322  0.00  0.00    +0.157 HD
ATOM      5  N   UNL     1      33.819  -6.734 -24.686  0.00  0.00    -0.388 NA
ATOM      6  C   UNL     1      33.896  -5.532 -25.300  0.00  0.00    +0.166 C 
ATOM      7  C   UNL     1      32.927  -6.838 -23.678  0.00  0.00    +0.167 C 
ATOM      8  C   UNL     1      33.124  -4.435 -24.954  0.00  0.00    +0.031 C 
ATOM      9  C   UNL     1      32.109  -5.801 -23.256  0.00  0.00    +0.101 C 
ATOM     10  C   UNL     1      32.216  -4.580 -23.912  0.00  0.00    -0.015 C 
ENDROOT
BRANCH   3  15
ATOM     11  F   UNL     1      31.274  -9.148 -19.316  0.00  0.00    -0.204 F 
ATOM     12  C   UNL     1      32.571 -12.110 -21.885  0.00  0.00    +0.046 C 
ATOM     13  C   UNL     1      32.219 -12.425 -20.572  0.00  0.00    -0.006 C 
ATOM     14  C   UNL     1      32.486 -10.792 -22.333  0.00  0.00    +0.021 C 
ATOM     15  C   UNL     1      32.048  -9.788 -21.468  0.00  0.00    +0.082 C 
ATOM     16  C   UNL     1      31.782 -11.422 -19.708  0.00  0.00    +0.027 C 
ATOM     17  C   UNL     1      32.300 -13.827 -20.059  0.00  0.00    +0.032 C 
ATOM     18  C   UNL     1      31.696 -10.104 -20.156  0.00  0.00    +0.144 C 
BRANCH  12  20
ATOM     19  N   UNL     1      33.125 -14.348 -24.587  0.00  0.00    -0.255 NA
ATOM     20  N   UNL     1      33.008 -13.091 -22.759  0.00  0.00    -0.282 N 
ATOM     21  C   UNL     1      34.083 -14.737 -23.684  0.00  0.00    +0.053 C 
ATOM     22  C   UNL     1      34.030 -13.973 -22.543  0.00  0.00    +0.134 C 
ATOM     23  C   UNL     1      32.496 -13.355 -23.999  0.00  0.00    +0.219 C 
BRANCH  21  24
ATOM     24  C   UNL     1      35.074 -15.872 -23.925  0.00  0.00    +0.037 C 
ATOM     25  C   UNL     1      34.542 -17.224 -24.302  0.00  0.00    +0.006 C 
ATOM     26  C   UNL     1      35.129 -17.001 -22.938  0.00  0.00    +0.006 C 
ENDBRANCH  21  24
ENDBRANCH  12  20
ENDBRANCH   3  15
BRANCH   6  30
ATOM     27  N   UNL     1      34.536  -5.530 -27.689  0.00  0.00    -0.252 N 
ATOM     28  N   UNL     1      36.158  -5.327 -26.235  0.00  0.00    -0.129 NA
ATOM     29  N   UNL     1      36.704  -5.305 -27.503  0.00  0.00    -0.128 NA
ATOM     30  C   UNL     1      34.859  -5.463 -26.368  0.00  0.00    +0.188 C 
ATOM     31  C   UNL     1      35.717  -5.427 -28.360  0.00  0.00    +0.192 C 
BRANCH  27  32
ATOM     32  C   UNL     1      33.229  -5.676 -28.281  0.00  0.00    +0.080 C 
ATOM     33  C   UNL     1      32.578  -4.317 -28.552  0.00  0.00    +0.022 C 
ATOM     34  C   UNL     1      33.279  -6.520 -29.557  0.00  0.00    +0.022 C 
ENDBRANCH  27  32
ENDBRANCH   6  30
TORSDOF 5
ENDMDL
MODEL 9
REMARK VINA RESULT:     -10.2      2.000     10.600
REMARK  Name = 71245288
REMARK  5 active torsions:
REMARK  status: ('A' for Active; 'I' for Inactive)
REMARK    1  A    between atoms: C_3  and  C_9
REMARK    2  A    between atoms: C_6  and  N_14
REMARK    3  A    between atoms: C_15  and  C_18
REMARK    4  A    between atoms: C_22  and  C_30
REMARK    5  A    between atoms: N_27  and  C_32
REMARK                            x       y       z     vdW  Elec       q    Type
REMARK                         _______ _______ _______ _____ _____    ______ ____
ROOT
ATOM      1  O   UNL     1      36.497 -21.987 -19.506  0.00  0.00    -0.270 OA
ATOM      2  N   UNL     1      35.031 -20.154 -19.474  0.00  0.00    -0.259 N 
ATOM      3  C   UNL     1      35.477 -21.423 -19.078  0.00  0.00    +0.253 C 
ATOM      4  H   UNL     1      34.203 -19.839 -19.046  0.00  0.00    +0.157 HD
ATOM      5  N   UNL     1      35.010 -18.083 -20.643  0.00  0.00    -0.388 NA
ATOM      6  C   UNL     1      35.604 -17.270 -21.546  0.00  0.00    +0.166 C 
ATOM      7  C   UNL     1      35.615 -19.268 -20.412  0.00  0.00    +0.167 C 
ATOM      8  C   UNL     1      36.771 -17.587 -22.223  0.00  0.00    +0.031 C 
ATOM      9  C   UNL     1      36.783 -19.678 -21.036  0.00  0.00    +0.101 C 
ATOM     10  C   UNL     1      37.365 -18.815 -21.958  0.00  0.00    -0.015 C 
ENDROOT
BRANCH   3  15
ATOM     11  F   UNL     1      32.679 -21.586 -19.254  0.00  0.00    -0.204 F 
ATOM     12  C   UNL     1      34.524 -23.319 -15.990  0.00  0.00    +0.046 C 
ATOM     13  C   UNL     1      33.136 -23.373 -16.122  0.00  0.00    -0.006 C 
ATOM     14  C   UNL     1      35.292 -22.677 -16.962  0.00  0.00    +0.021 C 
ATOM     15  C   UNL     1      34.673 -22.091 -18.066  0.00  0.00    +0.082 C 
ATOM     16  C   UNL     1      32.517 -22.786 -17.225  0.00  0.00    +0.027 C 
ATOM     17  C   UNL     1      32.283 -24.051 -15.098  0.00  0.00    +0.032 C 
ATOM     18  C   UNL     1      33.286 -22.145 -18.197  0.00  0.00    +0.144 C 
BRANCH  12  20
ATOM     19  N   UNL     1      36.152 -25.435 -13.648  0.00  0.00    -0.255 NA
ATOM     20  N   UNL     1      35.158 -23.894 -14.902  0.00  0.00    -0.282 N 
ATOM     21  C   UNL     1      36.087 -24.244 -12.969  0.00  0.00    +0.053 C 
ATOM     22  C   UNL     1      35.475 -23.273 -13.727  0.00  0.00    +0.134 C 
ATOM     23  C   UNL     1      35.584 -25.190 -14.808  0.00  0.00    +0.219 C 
BRANCH  21  24
ATOM     24  C   UNL     1      36.626 -24.033 -11.558  0.00  0.00    +0.037 C 
ATOM     25  C   UNL     1      37.398 -22.781 -11.261  0.00  0.00    +0.006 C 
ATOM     26  C   UNL     1      38.108 -24.101 -11.336  0.00  0.00    +0.006 C 
ENDBRANCH  21  24
ENDBRANCH  12  20
ENDBRANCH   3  15
BRANCH   6  30
ATOM     27  N   UNL     1      34.472 -15.600 -22.976  0.00  0.00    -0.252 N 
ATOM     28  N   UNL     1      34.655 -15.114 -20.851  0.00  0.00    -0.129 NA
ATOM     29  N   UNL     1      34.002 -14.074 -21.481  0.00  0.00    -0.128 NA
ATOM     30  C   UNL     1      34.928 -16.018 -21.763  0.00  0.00    +0.188 C 
ATOM     31  C   UNL     1      33.901 -14.384 -22.753  0.00  0.00    +0.192 C 
BRANCH  27  32
ATOM     32  C   UNL     1      34.558 -16.283 -24.244  0.00  0.00    +0.080 C 
ATOM     33  C   UNL     1      34.184 -17.761 -24.115  0.00  0.00    +0.022 C 
ATOM     34  C   UNL     1      33.704 -15.596 -25.313  0.00  0.00    +0.022 C 
ENDBRANCH  27  32
ENDBRANCH   6  30
TORSDOF 5
ENDMDL
