MODEL 1
REMARK VINA RESULT:     -11.1      0.000      0.000
REMARK  Name = 5497056
REMARK  11 active torsions:
REMARK  status: ('A' for Active; 'I' for Inactive)
REMARK    1  A    between atoms: N_2  and  C_22
REMARK    2  A    between atoms: C_3  and  C_5
REMARK    3  A    between atoms: C_8  and  C_11
REMARK    4  A    between atoms: C_13  and  C_17
REMARK    5  A    between atoms: C_17  and  N_18
REMARK    6  A    between atoms: C_22  and  C_24
REMARK    7  A    between atoms: C_24  and  C_26
REMARK    8  A    between atoms: C_24  and  C_29
REMARK    9  A    between atoms: C_26  and  O_27
REMARK   10  A    between atoms: C_29  and  C_30
REMARK   11  A    between atoms: C_33  and  C_38
REMARK                            x       y       z     vdW  Elec       q    Type
REMARK                         _______ _______ _______ _____ _____    ______ ____
ROOT
ATOM      1  O   UNL     1      33.430 -13.726 -24.853  0.00  0.00    -0.270 OA
ATOM      2  N   UNL     1      34.075 -12.474 -23.010  0.00  0.00    -0.302 N 
ATOM      3  C   UNL     1      33.909 -13.651 -23.724  0.00  0.00    +0.246 C 
ATOM      4  H   UNL     1      34.469 -12.519 -22.109  0.00  0.00    +0.150 HD
ENDROOT
BRANCH   3   5
ATOM      5  C   UNL     1      34.328 -14.895 -23.030  0.00  0.00    +0.053 C 
ATOM      6  C   UNL     1      34.478 -14.904 -21.643  0.00  0.00    +0.005 C 
ATOM      7  C   UNL     1      34.572 -16.056 -23.765  0.00  0.00    +0.005 C 
ATOM      8  C   UNL     1      35.116 -17.233 -21.726  0.00  0.00    -0.000 C 
ATOM      9  C   UNL     1      34.873 -16.072 -20.991  0.00  0.00    +0.000 C 
ATOM     10  C   UNL     1      34.965 -17.225 -23.113  0.00  0.00    +0.000 C 
BRANCH   8  11
ATOM     11  C   UNL     1      35.523 -18.445 -21.048  0.00  0.00    -0.000 C 
ATOM     12  C   UNL     1      34.563 -19.359 -20.617  0.00  0.00    -0.006 C 
ATOM     13  C   UNL     1      34.957 -20.527 -19.963  0.00  0.00    -0.044 C 
ATOM     14  C   UNL     1      36.877 -18.696 -20.826  0.00  0.00    -0.000 C 
ATOM     15  C   UNL     1      36.311 -20.779 -19.741  0.00  0.00    -0.006 C 
ATOM     16  C   UNL     1      37.271 -19.864 -20.173  0.00  0.00    -0.000 C 
BRANCH  13  17
ATOM     17  C   UNL     1      33.931 -21.506 -19.503  0.00  0.00    -0.059 C 
BRANCH  17  18
ATOM     18  N   UNL     1      32.613 -20.893 -19.327  0.00  0.00    +0.383 N 
ATOM     19  H   UNL     1      32.464 -20.193 -20.054  0.00  0.00    -0.089 HD
ATOM     20  H   UNL     1      32.565 -20.447 -18.411  0.00  0.00    -0.089 HD
ATOM     21  H   UNL     1      31.893 -21.612 -19.393  0.00  0.00    -0.089 HD
ENDBRANCH  17  18
ENDBRANCH  13  17
ENDBRANCH   8  11
ENDBRANCH   3   5
BRANCH   2  22
ATOM     22  C   UNL     1      33.691 -11.186 -23.539  0.00  0.00    +0.083 C 
ATOM     23  C   UNL     1      34.929 -10.419 -24.001  0.00  0.00    +0.022 C 
BRANCH  22  24
ATOM     24  C   UNL     1      32.830 -10.371 -22.549  0.00  0.00    +0.121 C 
BRANCH  24  26
ATOM     25  O   UNL     1      30.564 -11.228 -22.286  0.00  0.00    -0.250 OA
ATOM     26  C   UNL     1      31.735 -11.231 -21.927  0.00  0.00    +0.319 C 
BRANCH  26  27
ATOM     27  O   UNL     1      32.261 -11.991 -20.924  0.00  0.00    -0.444 OA
ATOM     28  C   UNL     1      32.012 -11.516 -19.596  0.00  0.00    +0.256 C 
ENDBRANCH  26  27
ENDBRANCH  24  26
BRANCH  24  29
ATOM     29  C   UNL     1      32.207  -9.126 -23.213  0.00  0.00    +0.039 C 
BRANCH  29  30
ATOM     30  C   UNL     1      32.257  -7.902 -22.327  0.00  0.00    -0.021 C 
ATOM     31  C   UNL     1      31.588  -6.739 -22.708  0.00  0.00    -0.002 C 
ATOM     32  C   UNL     1      32.973  -7.936 -21.131  0.00  0.00    -0.004 C 
ATOM     33  C   UNL     1      31.635  -5.609 -21.891  0.00  0.00    +0.030 C 
ATOM     34  C   UNL     1      33.020  -6.805 -20.315  0.00  0.00    -0.000 C 
ATOM     35  C   UNL     1      32.352  -5.642 -20.694  0.00  0.00    +0.003 C 
BRANCH  33  38
ATOM     36  N   UNL     1      30.844  -3.300 -21.430  0.00  0.00    -0.343 N 
ATOM     37  N   UNL     1      30.379  -4.318 -23.482  0.00  0.00    -0.285 NA
ATOM     38  C   UNL     1      30.939  -4.395 -22.288  0.00  0.00    +0.117 C 
ATOM     39  H   UNL     1      30.367  -2.489 -21.718  0.00  0.00    +0.144 HD
ATOM     40  H   UNL     1      31.252  -3.340 -20.534  0.00  0.00    +0.144 HD
ATOM     41  H   UNL     1      29.907  -3.497 -23.752  0.00  0.00    +0.188 HD
ENDBRANCH  33  38
ENDBRANCH  29  30
ENDBRANCH  24  29
ENDBRANCH  22  24
ENDBRANCH   2  22
TORSDOF 11
ENDMDL
MODEL 2
REMARK VINA RESULT:     -11.0      6.667     14.671
REMARK  Name = 5497056
REMARK  11 active torsions:
REMARK  status: ('A' for Active; 'I' for Inactive)
REMARK    1  A    between atoms: N_2  and  C_22
REMARK    2  A    between atoms: C_3  and  C_5
REMARK    3  A    between atoms: C_8  and  C_11
REMARK    4  A    between atoms: C_13  and  C_17
REMARK    5  A    between atoms: C_17  and  N_18
REMARK    6  A    between atoms: C_22  and  C_24
REMARK    7  A    between atoms: C_24  and  C_26
REMARK    8  A    between atoms: C_24  and  C_29
REMARK    9  A    between atoms: C_26  and  O_27
REMARK   10  A    between atoms: C_29  and  C_30
REMARK   11  A    between atoms: C_33  and  C_38
REMARK                            x       y       z     vdW  Elec       q    Type
REMARK                         _______ _______ _______ _____ _____    ______ ____
ROOT
ATOM      1  O   UNL     1      33.832 -24.220 -18.495  0.00  0.00    -0.270 OA
ATOM      2  N   UNL     1      33.602 -22.771 -16.700  0.00  0.00    -0.302 N 
ATOM      3  C   UNL     1      33.806 -23.082 -18.036  0.00  0.00    +0.246 C 
ATOM      4  H   UNL     1      33.600 -21.824 -16.429  0.00  0.00    +0.150 HD
ENDROOT
BRANCH   3   5
ATOM      5  C   UNL     1      34.033 -21.927 -18.942  0.00  0.00    +0.053 C 
ATOM      6  C   UNL     1      32.950 -21.171 -19.392  0.00  0.00    +0.005 C 
ATOM      7  C   UNL     1      35.328 -21.599 -19.345  0.00  0.00    +0.005 C 
ATOM      8  C   UNL     1      34.457 -19.758 -20.645  0.00  0.00    -0.000 C 
ATOM      9  C   UNL     1      33.163 -20.087 -20.244  0.00  0.00    +0.000 C 
ATOM     10  C   UNL     1      35.540 -20.514 -20.196  0.00  0.00    +0.000 C 
BRANCH   8  11
ATOM     11  C   UNL     1      34.676 -18.632 -21.528  0.00  0.00    -0.000 C 
ATOM     12  C   UNL     1      34.704 -17.337 -21.013  0.00  0.00    -0.006 C 
ATOM     13  C   UNL     1      34.915 -16.253 -21.864  0.00  0.00    -0.044 C 
ATOM     14  C   UNL     1      34.860 -18.845 -22.894  0.00  0.00    -0.000 C 
ATOM     15  C   UNL     1      35.098 -16.464 -23.231  0.00  0.00    -0.006 C 
ATOM     16  C   UNL     1      35.071 -17.760 -23.746  0.00  0.00    -0.000 C 
BRANCH  13  17
ATOM     17  C   UNL     1      34.945 -14.867 -21.313  0.00  0.00    -0.059 C 
BRANCH  17  18
ATOM     18  N   UNL     1      34.572 -13.862 -22.310  0.00  0.00    +0.383 N 
ATOM     19  H   UNL     1      33.686 -13.432 -22.044  0.00  0.00    -0.089 HD
ATOM     20  H   UNL     1      34.474 -14.307 -23.222  0.00  0.00    -0.089 HD
ATOM     21  H   UNL     1      35.297 -13.146 -22.358  0.00  0.00    -0.089 HD
ENDBRANCH  17  18
ENDBRANCH  13  17
ENDBRANCH   8  11
ENDBRANCH   3   5
BRANCH   2  22
ATOM     22  C   UNL     1      33.393 -23.784 -15.692  0.00  0.00    +0.083 C 
ATOM     23  C   UNL     1      32.083 -23.524 -14.950  0.00  0.00    +0.022 C 
BRANCH  22  24
ATOM     24  C   UNL     1      34.595 -23.921 -14.730  0.00  0.00    +0.121 C 
BRANCH  24  26
ATOM     25  O   UNL     1      35.706 -21.801 -14.272  0.00  0.00    -0.250 OA
ATOM     26  C   UNL     1      35.617 -22.812 -14.957  0.00  0.00    +0.319 C 
BRANCH  26  27
ATOM     27  O   UNL     1      36.401 -23.122 -16.030  0.00  0.00    -0.444 OA
ATOM     28  C   UNL     1      37.281 -22.083 -16.470  0.00  0.00    +0.256 C 
ENDBRANCH  26  27
ENDBRANCH  24  26
BRANCH  24  29
ATOM     29  C   UNL     1      35.279 -25.298 -14.853  0.00  0.00    +0.039 C 
BRANCH  29  30
ATOM     30  C   UNL     1      36.493 -25.431 -13.962  0.00  0.00    -0.021 C 
ATOM     31  C   UNL     1      37.731 -25.753 -14.516  0.00  0.00    -0.002 C 
ATOM     32  C   UNL     1      36.374 -25.233 -12.587  0.00  0.00    -0.004 C 
ATOM     33  C   UNL     1      38.852 -25.877 -13.695  0.00  0.00    +0.030 C 
ATOM     34  C   UNL     1      37.494 -25.358 -11.765  0.00  0.00    -0.000 C 
ATOM     35  C   UNL     1      38.733 -25.680 -12.318  0.00  0.00    +0.003 C 
BRANCH  33  38
ATOM     36  N   UNL     1      41.123 -26.868 -13.525  0.00  0.00    -0.343 N 
ATOM     37  N   UNL     1      40.408 -25.896 -15.526  0.00  0.00    -0.285 NA
ATOM     38  C   UNL     1      40.144 -26.214 -14.271  0.00  0.00    +0.117 C 
ATOM     39  H   UNL     1      41.991 -27.086 -13.935  0.00  0.00    +0.144 HD
ATOM     40  H   UNL     1      40.946 -27.111 -12.586  0.00  0.00    +0.144 HD
ATOM     41  H   UNL     1      41.282 -26.123 -15.918  0.00  0.00    +0.188 HD
ENDBRANCH  33  38
ENDBRANCH  29  30
ENDBRANCH  24  29
ENDBRANCH  22  24
ENDBRANCH   2  22
TORSDOF 11
ENDMDL
MODEL 3
REMARK VINA RESULT:     -10.9      8.295     14.324
REMARK  Name = 5497056
REMARK  11 active torsions:
REMARK  status: ('A' for Active; 'I' for Inactive)
REMARK    1  A    between atoms: N_2  and  C_22
REMARK    2  A    between atoms: C_3  and  C_5
REMARK    3  A    between atoms: C_8  and  C_11
REMARK    4  A    between atoms: C_13  and  C_17
REMARK    5  A    between atoms: C_17  and  N_18
REMARK    6  A    between atoms: C_22  and  C_24
REMARK    7  A    between atoms: C_24  and  C_26
REMARK    8  A    between atoms: C_24  and  C_29
REMARK    9  A    between atoms: C_26  and  O_27
REMARK   10  A    between atoms: C_29  and  C_30
REMARK   11  A    between atoms: C_33  and  C_38
REMARK                            x       y       z     vdW  Elec       q    Type
REMARK                         _______ _______ _______ _____ _____    ______ ____
ROOT
ATOM      1  O   UNL     1      33.052 -24.462 -17.230  0.00  0.00    -0.270 OA
ATOM      2  N   UNL     1      31.847 -22.687 -16.351  0.00  0.00    -0.302 N 
ATOM      3  C   UNL     1      32.767 -23.268 -17.210  0.00  0.00    +0.246 C 
ATOM      4  H   UNL     1      31.688 -21.717 -16.412  0.00  0.00    +0.150 HD
ENDROOT
BRANCH   3   5
ATOM      5  C   UNL     1      33.458 -22.342 -18.142  0.00  0.00    +0.053 C 
ATOM      6  C   UNL     1      32.715 -21.453 -18.920  0.00  0.00    +0.005 C 
ATOM      7  C   UNL     1      34.850 -22.359 -18.241  0.00  0.00    +0.005 C 
ATOM      8  C   UNL     1      34.755 -20.600 -19.895  0.00  0.00    -0.000 C 
ATOM      9  C   UNL     1      33.364 -20.583 -19.797  0.00  0.00    +0.000 C 
ATOM     10  C   UNL     1      35.498 -21.488 -19.117  0.00  0.00    +0.000 C 
BRANCH   8  11
ATOM     11  C   UNL     1      35.427 -19.695 -20.803  0.00  0.00    -0.000 C 
ATOM     12  C   UNL     1      34.732 -19.143 -21.878  0.00  0.00    -0.006 C 
ATOM     13  C   UNL     1      35.380 -18.272 -22.753  0.00  0.00    -0.044 C 
ATOM     14  C   UNL     1      36.770 -19.376 -20.601  0.00  0.00    -0.000 C 
ATOM     15  C   UNL     1      36.723 -17.953 -22.553  0.00  0.00    -0.006 C 
ATOM     16  C   UNL     1      37.418 -18.505 -21.476  0.00  0.00    -0.000 C 
BRANCH  13  17
ATOM     17  C   UNL     1      34.637 -17.680 -23.903  0.00  0.00    -0.059 C 
BRANCH  17  18
ATOM     18  N   UNL     1      35.112 -16.338 -24.243  0.00  0.00    +0.383 N 
ATOM     19  H   UNL     1      35.156 -15.769 -23.398  0.00  0.00    -0.089 HD
ATOM     20  H   UNL     1      34.470 -15.908 -24.909  0.00  0.00    -0.089 HD
ATOM     21  H   UNL     1      36.041 -16.402 -24.660  0.00  0.00    -0.089 HD
ENDBRANCH  17  18
ENDBRANCH  13  17
ENDBRANCH   8  11
ENDBRANCH   3   5
BRANCH   2  22
ATOM     22  C   UNL     1      31.113 -23.451 -15.369  0.00  0.00    +0.083 C 
ATOM     23  C   UNL     1      30.222 -22.526 -14.542  0.00  0.00    +0.022 C 
BRANCH  22  24
ATOM     24  C   UNL     1      32.033 -24.324 -14.487  0.00  0.00    +0.121 C 
BRANCH  24  26
ATOM     25  O   UNL     1      31.325 -25.189 -12.321  0.00  0.00    -0.250 OA
ATOM     26  C   UNL     1      31.223 -25.204 -13.541  0.00  0.00    +0.319 C 
BRANCH  26  27
ATOM     27  O   UNL     1      30.380 -25.999 -14.262  0.00  0.00    -0.444 OA
ATOM     28  C   UNL     1      28.984 -25.802 -14.013  0.00  0.00    +0.256 C 
ENDBRANCH  26  27
ENDBRANCH  24  26
BRANCH  24  29
ATOM     29  C   UNL     1      33.038 -23.474 -13.682  0.00  0.00    +0.039 C 
BRANCH  29  30
ATOM     30  C   UNL     1      34.466 -23.671 -14.135  0.00  0.00    -0.021 C 
ATOM     31  C   UNL     1      35.024 -24.948 -14.148  0.00  0.00    -0.002 C 
ATOM     32  C   UNL     1      35.227 -22.574 -14.539  0.00  0.00    -0.004 C 
ATOM     33  C   UNL     1      36.343 -25.130 -14.564  0.00  0.00    +0.030 C 
ATOM     34  C   UNL     1      36.546 -22.755 -14.955  0.00  0.00    -0.000 C 
ATOM     35  C   UNL     1      37.105 -24.032 -14.968  0.00  0.00    +0.003 C 
BRANCH  33  38
ATOM     36  N   UNL     1      37.616 -26.962 -13.473  0.00  0.00    -0.343 N 
ATOM     37  N   UNL     1      36.809 -27.222 -15.650  0.00  0.00    -0.285 NA
ATOM     38  C   UNL     1      36.926 -26.462 -14.576  0.00  0.00    +0.117 C 
ATOM     39  H   UNL     1      38.004 -27.866 -13.503  0.00  0.00    +0.144 HD
ATOM     40  H   UNL     1      37.717 -26.409 -12.664  0.00  0.00    +0.144 HD
ATOM     41  H   UNL     1      37.203 -28.124 -15.660  0.00  0.00    +0.188 HD
ENDBRANCH  33  38
ENDBRANCH  29  30
ENDBRANCH  24  29
ENDBRANCH  22  24
ENDBRANCH   2  22
TORSDOF 11
ENDMDL
MODEL 4
REMARK VINA RESULT:     -10.9      6.367     14.338
REMARK  Name = 5497056
REMARK  11 active torsions:
REMARK  status: ('A' for Active; 'I' for Inactive)
REMARK    1  A    between atoms: N_2  and  C_22
REMARK    2  A    between atoms: C_3  and  C_5
REMARK    3  A    between atoms: C_8  and  C_11
REMARK    4  A    between atoms: C_13  and  C_17
REMARK    5  A    between atoms: C_17  and  N_18
REMARK    6  A    between atoms: C_22  and  C_24
REMARK    7  A    between atoms: C_24  and  C_26
REMARK    8  A    between atoms: C_24  and  C_29
REMARK    9  A    between atoms: C_26  and  O_27
REMARK   10  A    between atoms: C_29  and  C_30
REMARK   11  A    between atoms: C_33  and  C_38
REMARK                            x       y       z     vdW  Elec       q    Type
REMARK                         _______ _______ _______ _____ _____    ______ ____
ROOT
ATOM      1  O   UNL     1      34.069 -23.978 -19.063  0.00  0.00    -0.270 OA
ATOM      2  N   UNL     1      33.580 -22.680 -17.205  0.00  0.00    -0.302 N 
ATOM      3  C   UNL     1      33.918 -22.880 -18.535  0.00  0.00    +0.246 C 
ATOM      4  H   UNL     1      33.483 -21.757 -16.875  0.00  0.00    +0.150 HD
ENDROOT
BRANCH   3   5
ATOM      5  C   UNL     1      34.131 -21.652 -19.342  0.00  0.00    +0.053 C 
ATOM      6  C   UNL     1      33.035 -20.913 -19.790  0.00  0.00    +0.005 C 
ATOM      7  C   UNL     1      35.426 -21.235 -19.652  0.00  0.00    +0.005 C 
ATOM      8  C   UNL     1      34.530 -19.343 -20.858  0.00  0.00    -0.000 C 
ATOM      9  C   UNL     1      33.235 -19.759 -20.548  0.00  0.00    +0.000 C 
ATOM     10  C   UNL     1      35.625 -20.081 -20.410  0.00  0.00    +0.000 C 
BRANCH   8  11
ATOM     11  C   UNL     1      34.735 -18.145 -21.643  0.00  0.00    -0.000 C 
ATOM     12  C   UNL     1      34.719 -16.895 -21.025  0.00  0.00    -0.006 C 
ATOM     13  C   UNL     1      34.917 -15.741 -21.783  0.00  0.00    -0.044 C 
ATOM     14  C   UNL     1      34.950 -18.242 -23.018  0.00  0.00    -0.000 C 
ATOM     15  C   UNL     1      35.131 -15.838 -23.158  0.00  0.00    -0.006 C 
ATOM     16  C   UNL     1      35.148 -17.088 -23.776  0.00  0.00    -0.000 C 
BRANCH  13  17
ATOM     17  C   UNL     1      34.901 -14.403 -21.123  0.00  0.00    -0.059 C 
BRANCH  17  18
ATOM     18  N   UNL     1      34.560 -13.326 -22.054  0.00  0.00    +0.383 N 
ATOM     19  H   UNL     1      35.364 -12.708 -22.167  0.00  0.00    -0.089 HD
ATOM     20  H   UNL     1      33.771 -12.795 -21.686  0.00  0.00    -0.089 HD
ATOM     21  H   UNL     1      34.309 -13.726 -22.958  0.00  0.00    -0.089 HD
ENDBRANCH  17  18
ENDBRANCH  13  17
ENDBRANCH   8  11
ENDBRANCH   3   5
BRANCH   2  22
ATOM     22  C   UNL     1      33.366 -23.774 -16.287  0.00  0.00    +0.083 C 
ATOM     23  C   UNL     1      31.951 -23.709 -15.714  0.00  0.00    +0.022 C 
BRANCH  22  24
ATOM     24  C   UNL     1      34.444 -23.842 -15.182  0.00  0.00    +0.121 C 
BRANCH  24  26
ATOM     25  O   UNL     1      35.465 -21.697 -14.636  0.00  0.00    -0.250 OA
ATOM     26  C   UNL     1      35.456 -22.710 -15.324  0.00  0.00    +0.319 C 
BRANCH  26  27
ATOM     27  O   UNL     1      36.334 -23.002 -16.327  0.00  0.00    -0.444 OA
ATOM     28  C   UNL     1      37.281 -21.974 -16.636  0.00  0.00    +0.256 C 
ENDBRANCH  26  27
ENDBRANCH  24  26
BRANCH  24  29
ATOM     29  C   UNL     1      35.173 -25.200 -15.169  0.00  0.00    +0.039 C 
BRANCH  29  30
ATOM     30  C   UNL     1      36.102 -25.355 -13.986  0.00  0.00    -0.021 C 
ATOM     31  C   UNL     1      35.765 -24.790 -12.757  0.00  0.00    -0.002 C 
ATOM     32  C   UNL     1      37.296 -26.061 -14.125  0.00  0.00    -0.004 C 
ATOM     33  C   UNL     1      36.622 -24.931 -11.665  0.00  0.00    +0.030 C 
ATOM     34  C   UNL     1      38.155 -26.202 -13.034  0.00  0.00    -0.000 C 
ATOM     35  C   UNL     1      37.818 -25.638 -11.804  0.00  0.00    +0.003 C 
BRANCH  33  38
ATOM     36  N   UNL     1      36.836 -23.139  -9.960  0.00  0.00    -0.343 N 
ATOM     37  N   UNL     1      35.406 -24.950  -9.593  0.00  0.00    -0.285 NA
ATOM     38  C   UNL     1      36.272 -24.341 -10.383  0.00  0.00    +0.117 C 
ATOM     39  H   UNL     1      36.586 -22.758  -9.088  0.00  0.00    +0.144 HD
ATOM     40  H   UNL     1      37.487 -22.671 -10.533  0.00  0.00    +0.144 HD
ATOM     41  H   UNL     1      35.168 -24.552  -8.725  0.00  0.00    +0.188 HD
ENDBRANCH  33  38
ENDBRANCH  29  30
ENDBRANCH  24  29
ENDBRANCH  22  24
ENDBRANCH   2  22
TORSDOF 11
ENDMDL
MODEL 5
REMARK VINA RESULT:     -10.6      6.767     14.174
REMARK  Name = 5497056
REMARK  11 active torsions:
REMARK  status: ('A' for Active; 'I' for Inactive)
REMARK    1  A    between atoms: N_2  and  C_22
REMARK    2  A    between atoms: C_3  and  C_5
REMARK    3  A    between atoms: C_8  and  C_11
REMARK    4  A    between atoms: C_13  and  C_17
REMARK    5  A    between atoms: C_17  and  N_18
REMARK    6  A    between atoms: C_22  and  C_24
REMARK    7  A    between atoms: C_24  and  C_26
REMARK    8  A    between atoms: C_24  and  C_29
REMARK    9  A    between atoms: C_26  and  O_27
REMARK   10  A    between atoms: C_29  and  C_30
REMARK   11  A    between atoms: C_33  and  C_38
REMARK                            x       y       z     vdW  Elec       q    Type
REMARK                         _______ _______ _______ _____ _____    ______ ____
ROOT
ATOM      1  O   UNL     1      33.838 -24.135 -18.055  0.00  0.00    -0.270 OA
ATOM      2  N   UNL     1      32.490 -22.699 -16.830  0.00  0.00    -0.302 N 
ATOM      3  C   UNL     1      33.343 -23.026 -17.874  0.00  0.00    +0.246 C 
ATOM      4  H   UNL     1      32.145 -21.779 -16.771  0.00  0.00    +0.150 HD
ENDROOT
BRANCH   3   5
ATOM      5  C   UNL     1      33.679 -21.920 -18.806  0.00  0.00    +0.053 C 
ATOM      6  C   UNL     1      35.012 -21.660 -19.127  0.00  0.00    +0.005 C 
ATOM      7  C   UNL     1      32.664 -21.141 -19.361  0.00  0.00    +0.005 C 
ATOM      8  C   UNL     1      34.313 -19.843 -20.558  0.00  0.00    -0.000 C 
ATOM      9  C   UNL     1      35.328 -20.621 -20.003  0.00  0.00    +0.000 C 
ATOM     10  C   UNL     1      32.980 -20.103 -20.237  0.00  0.00    +0.000 C 
BRANCH   8  11
ATOM     11  C   UNL     1      34.642 -18.767 -21.468  0.00  0.00    -0.000 C 
ATOM     12  C   UNL     1      34.665 -17.449 -21.010  0.00  0.00    -0.006 C 
ATOM     13  C   UNL     1      34.983 -16.413 -21.888  0.00  0.00    -0.044 C 
ATOM     14  C   UNL     1      34.938 -19.048 -22.802  0.00  0.00    -0.000 C 
ATOM     15  C   UNL     1      35.278 -16.693 -23.222  0.00  0.00    -0.006 C 
ATOM     16  C   UNL     1      35.256 -18.011 -23.679  0.00  0.00    -0.000 C 
BRANCH  13  17
ATOM     17  C   UNL     1      35.009 -15.004 -21.399  0.00  0.00    -0.059 C 
BRANCH  17  18
ATOM     18  N   UNL     1      34.621 -14.046 -22.436  0.00  0.00    +0.383 N 
ATOM     19  H   UNL     1      35.277 -14.106 -23.215  0.00  0.00    -0.089 HD
ATOM     20  H   UNL     1      34.636 -13.102 -22.051  0.00  0.00    -0.089 HD
ATOM     21  H   UNL     1      33.680 -14.265 -22.765  0.00  0.00    -0.089 HD
ENDBRANCH  17  18
ENDBRANCH  13  17
ENDBRANCH   8  11
ENDBRANCH   3   5
BRANCH   2  22
ATOM     22  C   UNL     1      32.090 -23.659 -15.827  0.00  0.00    +0.083 C 
ATOM     23  C   UNL     1      30.785 -23.216 -15.168  0.00  0.00    +0.022 C 
BRANCH  22  24
ATOM     24  C   UNL     1      33.204 -23.938 -14.794  0.00  0.00    +0.121 C 
BRANCH  24  26
ATOM     25  O   UNL     1      32.792 -23.557 -12.423  0.00  0.00    -0.250 OA
ATOM     26  C   UNL     1      32.621 -24.247 -13.419  0.00  0.00    +0.319 C 
BRANCH  26  27
ATOM     27  O   UNL     1      31.892 -25.399 -13.478  0.00  0.00    -0.444 OA
ATOM     28  C   UNL     1      30.634 -25.366 -12.795  0.00  0.00    +0.256 C 
ENDBRANCH  26  27
ENDBRANCH  24  26
BRANCH  24  29
ATOM     29  C   UNL     1      34.203 -22.767 -14.690  0.00  0.00    +0.039 C 
BRANCH  29  30
ATOM     30  C   UNL     1      35.643 -23.213 -14.806  0.00  0.00    -0.021 C 
ATOM     31  C   UNL     1      36.036 -24.442 -14.279  0.00  0.00    -0.002 C 
ATOM     32  C   UNL     1      36.577 -22.394 -15.439  0.00  0.00    -0.004 C 
ATOM     33  C   UNL     1      37.365 -24.854 -14.384  0.00  0.00    +0.030 C 
ATOM     34  C   UNL     1      37.907 -22.805 -15.544  0.00  0.00    -0.000 C 
ATOM     35  C   UNL     1      38.301 -24.034 -15.017  0.00  0.00    +0.003 C 
BRANCH  33  38
ATOM     36  N   UNL     1      37.049 -26.756 -12.820  0.00  0.00    -0.343 N 
ATOM     37  N   UNL     1      38.863 -26.730 -14.292  0.00  0.00    -0.285 NA
ATOM     38  C   UNL     1      37.777 -26.135 -13.833  0.00  0.00    +0.117 C 
ATOM     39  H   UNL     1      37.346 -27.623 -12.460  0.00  0.00    +0.144 HD
ATOM     40  H   UNL     1      36.237 -26.327 -12.462  0.00  0.00    +0.144 HD
ATOM     41  H   UNL     1      39.143 -27.597 -13.920  0.00  0.00    +0.188 HD
ENDBRANCH  33  38
ENDBRANCH  29  30
ENDBRANCH  24  29
ENDBRANCH  22  24
ENDBRANCH   2  22
TORSDOF 11
ENDMDL
MODEL 6
REMARK VINA RESULT:     -10.2      4.119      7.968
REMARK  Name = 5497056
REMARK  11 active torsions:
REMARK  status: ('A' for Active; 'I' for Inactive)
REMARK    1  A    between atoms: N_2  and  C_22
REMARK    2  A    between atoms: C_3  and  C_5
REMARK    3  A    between atoms: C_8  and  C_11
REMARK    4  A    between atoms: C_13  and  C_17
REMARK    5  A    between atoms: C_17  and  N_18
REMARK    6  A    between atoms: C_22  and  C_24
REMARK    7  A    between atoms: C_24  and  C_26
REMARK    8  A    between atoms: C_24  and  C_29
REMARK    9  A    between atoms: C_26  and  O_27
REMARK   10  A    between atoms: C_29  and  C_30
REMARK   11  A    between atoms: C_33  and  C_38
REMARK                            x       y       z     vdW  Elec       q    Type
REMARK                         _______ _______ _______ _____ _____    ______ ____
ROOT
ATOM      1  O   UNL     1      36.746 -21.229 -20.219  0.00  0.00    -0.270 OA
ATOM      2  N   UNL     1      35.049 -19.754 -20.784  0.00  0.00    -0.302 N 
ATOM      3  C   UNL     1      35.611 -20.791 -20.056  0.00  0.00    +0.246 C 
ATOM      4  H   UNL     1      34.127 -19.475 -20.577  0.00  0.00    +0.150 HD
ENDROOT
BRANCH   3   5
ATOM      5  C   UNL     1      34.735 -21.412 -19.029  0.00  0.00    +0.053 C 
ATOM      6  C   UNL     1      33.348 -21.311 -19.143  0.00  0.00    +0.005 C 
ATOM      7  C   UNL     1      35.298 -22.095 -17.951  0.00  0.00    +0.005 C 
ATOM      8  C   UNL     1      33.088 -22.578 -17.101  0.00  0.00    -0.000 C 
ATOM      9  C   UNL     1      32.525 -21.894 -18.179  0.00  0.00    +0.000 C 
ATOM     10  C   UNL     1      34.475 -22.678 -16.987  0.00  0.00    +0.000 C 
BRANCH   8  11
ATOM     11  C   UNL     1      32.233 -23.182 -16.103  0.00  0.00    -0.000 C 
ATOM     12  C   UNL     1      30.848 -23.159 -16.264  0.00  0.00    -0.006 C 
ATOM     13  C   UNL     1      30.025 -23.742 -15.300  0.00  0.00    -0.044 C 
ATOM     14  C   UNL     1      32.796 -23.789 -14.980  0.00  0.00    -0.000 C 
ATOM     15  C   UNL     1      30.587 -24.348 -14.177  0.00  0.00    -0.006 C 
ATOM     16  C   UNL     1      31.972 -24.373 -14.017  0.00  0.00    -0.000 C 
BRANCH  13  17
ATOM     17  C   UNL     1      28.544 -23.718 -15.472  0.00  0.00    -0.059 C 
BRANCH  17  18
ATOM     18  N   UNL     1      28.146 -23.386 -16.841  0.00  0.00    +0.383 N 
ATOM     19  H   UNL     1      28.967 -23.098 -17.374  0.00  0.00    -0.089 HD
ATOM     20  H   UNL     1      27.469 -22.623 -16.824  0.00  0.00    -0.089 HD
ATOM     21  H   UNL     1      27.725 -24.204 -17.280  0.00  0.00    -0.089 HD
ENDBRANCH  17  18
ENDBRANCH  13  17
ENDBRANCH   8  11
ENDBRANCH   3   5
BRANCH   2  22
ATOM     22  C   UNL     1      35.765 -19.067 -21.833  0.00  0.00    +0.083 C 
ATOM     23  C   UNL     1      37.107 -18.561 -21.309  0.00  0.00    +0.022 C 
BRANCH  22  24
ATOM     24  C   UNL     1      34.928 -17.944 -22.486  0.00  0.00    +0.121 C 
BRANCH  24  26
ATOM     25  O   UNL     1      34.160 -19.424 -24.263  0.00  0.00    -0.250 OA
ATOM     26  C   UNL     1      34.523 -18.309 -23.910  0.00  0.00    +0.319 C 
BRANCH  26  27
ATOM     27  O   UNL     1      34.632 -17.212 -24.714  0.00  0.00    -0.444 OA
ATOM     28  C   UNL     1      33.392 -16.638 -25.143  0.00  0.00    +0.256 C 
ENDBRANCH  26  27
ENDBRANCH  24  26
BRANCH  24  29
ATOM     29  C   UNL     1      35.671 -16.592 -22.481  0.00  0.00    +0.039 C 
BRANCH  29  30
ATOM     30  C   UNL     1      34.847 -15.472 -21.888  0.00  0.00    -0.021 C 
ATOM     31  C   UNL     1      34.554 -14.343 -22.651  0.00  0.00    -0.002 C 
ATOM     32  C   UNL     1      34.381 -15.568 -20.577  0.00  0.00    -0.004 C 
ATOM     33  C   UNL     1      33.794 -13.308 -22.104  0.00  0.00    +0.030 C 
ATOM     34  C   UNL     1      33.622 -14.533 -20.029  0.00  0.00    -0.000 C 
ATOM     35  C   UNL     1      33.328 -13.404 -20.791  0.00  0.00    +0.003 C 
BRANCH  33  38
ATOM     36  N   UNL     1      32.285 -11.444 -22.747  0.00  0.00    -0.343 N 
ATOM     37  N   UNL     1      34.363 -11.692 -23.788  0.00  0.00    -0.285 NA
ATOM     38  C   UNL     1      33.490 -12.130 -22.898  0.00  0.00    +0.117 C 
ATOM     39  H   UNL     1      32.099 -10.649 -23.296  0.00  0.00    +0.144 HD
ATOM     40  H   UNL     1      31.620 -11.757 -22.091  0.00  0.00    +0.144 HD
ATOM     41  H   UNL     1      34.158 -10.894 -24.327  0.00  0.00    +0.188 HD
ENDBRANCH  33  38
ENDBRANCH  29  30
ENDBRANCH  24  29
ENDBRANCH  22  24
ENDBRANCH   2  22
TORSDOF 11
ENDMDL
MODEL 7
REMARK VINA RESULT:     -10.2      8.289     14.297
REMARK  Name = 5497056
REMARK  11 active torsions:
REMARK  status: ('A' for Active; 'I' for Inactive)
REMARK    1  A    between atoms: N_2  and  C_22
REMARK    2  A    between atoms: C_3  and  C_5
REMARK    3  A    between atoms: C_8  and  C_11
REMARK    4  A    between atoms: C_13  and  C_17
REMARK    5  A    between atoms: C_17  and  N_18
REMARK    6  A    between atoms: C_22  and  C_24
REMARK    7  A    between atoms: C_24  and  C_26
REMARK    8  A    between atoms: C_24  and  C_29
REMARK    9  A    between atoms: C_26  and  O_27
REMARK   10  A    between atoms: C_29  and  C_30
REMARK   11  A    between atoms: C_33  and  C_38
REMARK                            x       y       z     vdW  Elec       q    Type
REMARK                         _______ _______ _______ _____ _____    ______ ____
ROOT
ATOM      1  O   UNL     1      33.739 -24.409 -17.826  0.00  0.00    -0.270 OA
ATOM      2  N   UNL     1      32.932 -22.810 -16.353  0.00  0.00    -0.302 N 
ATOM      3  C   UNL     1      33.493 -23.239 -17.546  0.00  0.00    +0.246 C 
ATOM      4  H   UNL     1      32.774 -21.847 -16.224  0.00  0.00    +0.150 HD
ENDROOT
BRANCH   3   5
ATOM      5  C   UNL     1      33.831 -22.173 -18.524  0.00  0.00    +0.053 C 
ATOM      6  C   UNL     1      32.818 -21.398 -19.088  0.00  0.00    +0.005 C 
ATOM      7  C   UNL     1      35.161 -21.947 -18.878  0.00  0.00    +0.005 C 
ATOM      8  C   UNL     1      34.465 -20.170 -20.360  0.00  0.00    -0.000 C 
ATOM      9  C   UNL     1      33.135 -20.397 -20.007  0.00  0.00    +0.000 C 
ATOM     10  C   UNL     1      35.478 -20.945 -19.796  0.00  0.00    +0.000 C 
BRANCH   8  11
ATOM     11  C   UNL     1      34.793 -19.130 -21.312  0.00  0.00    -0.000 C 
ATOM     12  C   UNL     1      34.257 -19.168 -22.598  0.00  0.00    -0.006 C 
ATOM     13  C   UNL     1      34.573 -18.165 -23.515  0.00  0.00    -0.044 C 
ATOM     14  C   UNL     1      35.645 -18.090 -20.941  0.00  0.00    -0.000 C 
ATOM     15  C   UNL     1      35.426 -17.125 -23.144  0.00  0.00    -0.006 C 
ATOM     16  C   UNL     1      35.961 -17.087 -21.857  0.00  0.00    -0.000 C 
BRANCH  13  17
ATOM     17  C   UNL     1      33.999 -18.205 -24.891  0.00  0.00    -0.059 C 
BRANCH  17  18
ATOM     18  N   UNL     1      32.723 -18.920 -24.943  0.00  0.00    +0.383 N 
ATOM     19  H   UNL     1      31.955 -18.248 -24.917  0.00  0.00    -0.089 HD
ATOM     20  H   UNL     1      32.652 -19.548 -24.142  0.00  0.00    -0.089 HD
ATOM     21  H   UNL     1      32.673 -19.462 -25.806  0.00  0.00    -0.089 HD
ENDBRANCH  17  18
ENDBRANCH  13  17
ENDBRANCH   8  11
ENDBRANCH   3   5
BRANCH   2  22
ATOM     22  C   UNL     1      32.572 -23.723 -15.294  0.00  0.00    +0.083 C 
ATOM     23  C   UNL     1      31.364 -23.188 -14.527  0.00  0.00    +0.022 C 
BRANCH  22  24
ATOM     24  C   UNL     1      33.761 -24.050 -14.362  0.00  0.00    +0.121 C 
BRANCH  24  26
ATOM     25  O   UNL     1      32.388 -25.288 -12.774  0.00  0.00    -0.250 OA
ATOM     26  C   UNL     1      33.281 -24.475 -12.978  0.00  0.00    +0.319 C 
BRANCH  26  27
ATOM     27  O   UNL     1      33.994 -23.814 -12.021  0.00  0.00    -0.444 OA
ATOM     28  C   UNL     1      34.898 -24.621 -11.259  0.00  0.00    +0.256 C 
ENDBRANCH  26  27
ENDBRANCH  24  26
BRANCH  24  29
ATOM     29  C   UNL     1      34.741 -22.865 -14.237  0.00  0.00    +0.039 C 
BRANCH  29  30
ATOM     30  C   UNL     1      36.159 -23.236 -14.607  0.00  0.00    -0.021 C 
ATOM     31  C   UNL     1      36.724 -24.410 -14.110  0.00  0.00    -0.002 C 
ATOM     32  C   UNL     1      36.902 -22.403 -15.442  0.00  0.00    -0.004 C 
ATOM     33  C   UNL     1      38.033 -24.752 -14.449  0.00  0.00    +0.030 C 
ATOM     34  C   UNL     1      38.212 -22.744 -15.781  0.00  0.00    -0.000 C 
ATOM     35  C   UNL     1      38.778 -23.918 -15.285  0.00  0.00    +0.003 C 
BRANCH  33  38
ATOM     36  N   UNL     1      37.887 -27.155 -13.842  0.00  0.00    -0.343 N 
ATOM     37  N   UNL     1      39.883 -25.980 -13.529  0.00  0.00    -0.285 NA
ATOM     38  C   UNL     1      38.624 -25.975 -13.931  0.00  0.00    +0.117 C 
ATOM     39  H   UNL     1      38.307 -27.972 -13.486  0.00  0.00    +0.144 HD
ATOM     40  H   UNL     1      36.946 -27.172 -14.132  0.00  0.00    +0.144 HD
ATOM     41  H   UNL     1      40.284 -26.807 -13.178  0.00  0.00    +0.188 HD
ENDBRANCH  33  38
ENDBRANCH  29  30
ENDBRANCH  24  29
ENDBRANCH  22  24
ENDBRANCH   2  22
TORSDOF 11
ENDMDL
MODEL 8
REMARK VINA RESULT:     -10.1      1.543     11.395
REMARK  Name = 5497056
REMARK  11 active torsions:
REMARK  status: ('A' for Active; 'I' for Inactive)
REMARK    1  A    between atoms: N_2  and  C_22
REMARK    2  A    between atoms: C_3  and  C_5
REMARK    3  A    between atoms: C_8  and  C_11
REMARK    4  A    between atoms: C_13  and  C_17
REMARK    5  A    between atoms: C_17  and  N_18
REMARK    6  A    between atoms: C_22  and  C_24
REMARK    7  A    between atoms: C_24  and  C_26
REMARK    8  A    between atoms: C_24  and  C_29
REMARK    9  A    between atoms: C_26  and  O_27
REMARK   10  A    between atoms: C_29  and  C_30
REMARK   11  A    between atoms: C_33  and  C_38
REMARK                            x       y       z     vdW  Elec       q    Type
REMARK                         _______ _______ _______ _____ _____    ______ ____
ROOT
ATOM      1  O   UNL     1      31.979 -14.286 -20.563  0.00  0.00    -0.270 OA
ATOM      2  N   UNL     1      33.824 -14.409 -21.962  0.00  0.00    -0.302 N 
ATOM      3  C   UNL     1      32.731 -13.777 -21.389  0.00  0.00    +0.246 C 
ATOM      4  H   UNL     1      34.368 -13.914 -22.618  0.00  0.00    +0.150 HD
ENDROOT
BRANCH   3   5
ATOM      5  C   UNL     1      32.466 -12.391 -21.854  0.00  0.00    +0.053 C 
ATOM      6  C   UNL     1      31.572 -11.580 -21.155  0.00  0.00    +0.005 C 
ATOM      7  C   UNL     1      33.111 -11.900 -22.990  0.00  0.00    +0.005 C 
ATOM      8  C   UNL     1      31.969  -9.788 -22.726  0.00  0.00    -0.000 C 
ATOM      9  C   UNL     1      31.323 -10.279 -21.591  0.00  0.00    +0.000 C 
ATOM     10  C   UNL     1      32.862 -10.599 -23.426  0.00  0.00    +0.000 C 
BRANCH   8  11
ATOM     11  C   UNL     1      31.710  -8.437 -23.177  0.00  0.00    -0.000 C 
ATOM     12  C   UNL     1      31.225  -7.484 -22.282  0.00  0.00    -0.006 C 
ATOM     13  C   UNL     1      30.977  -6.182 -22.718  0.00  0.00    -0.044 C 
ATOM     14  C   UNL     1      31.948  -8.090 -24.507  0.00  0.00    -0.000 C 
ATOM     15  C   UNL     1      31.213  -5.835 -24.048  0.00  0.00    -0.006 C 
ATOM     16  C   UNL     1      31.699  -6.788 -24.943  0.00  0.00    -0.000 C 
BRANCH  13  17
ATOM     17  C   UNL     1      30.459  -5.162 -21.761  0.00  0.00    -0.059 C 
BRANCH  17  18
ATOM     18  N   UNL     1      31.471  -4.165 -21.407  0.00  0.00    +0.383 N 
ATOM     19  H   UNL     1      32.300  -4.302 -21.985  0.00  0.00    -0.089 HD
ATOM     20  H   UNL     1      31.721  -4.269 -20.423  0.00  0.00    -0.089 HD
ATOM     21  H   UNL     1      31.095  -3.230 -21.564  0.00  0.00    -0.089 HD
ENDBRANCH  17  18
ENDBRANCH  13  17
ENDBRANCH   8  11
ENDBRANCH   3   5
BRANCH   2  22
ATOM     22  C   UNL     1      34.196 -15.765 -21.632  0.00  0.00    +0.083 C 
ATOM     23  C   UNL     1      34.934 -15.796 -20.294  0.00  0.00    +0.022 C 
BRANCH  22  24
ATOM     24  C   UNL     1      34.997 -16.452 -22.760  0.00  0.00    +0.121 C 
BRANCH  24  26
ATOM     25  O   UNL     1      35.665 -15.296 -24.800  0.00  0.00    -0.250 OA
ATOM     26  C   UNL     1      34.773 -15.759 -24.101  0.00  0.00    +0.319 C 
BRANCH  26  27
ATOM     27  O   UNL     1      33.439 -15.737 -24.389  0.00  0.00    -0.444 OA
ATOM     28  C   UNL     1      33.045 -14.816 -25.411  0.00  0.00    +0.256 C 
ENDBRANCH  26  27
ENDBRANCH  24  26
BRANCH  24  29
ATOM     29  C   UNL     1      34.657 -17.951 -22.881  0.00  0.00    +0.039 C 
BRANCH  29  30
ATOM     30  C   UNL     1      35.276 -18.783 -21.781  0.00  0.00    -0.021 C 
ATOM     31  C   UNL     1      34.514 -19.748 -21.124  0.00  0.00    -0.002 C 
ATOM     32  C   UNL     1      36.609 -18.584 -21.423  0.00  0.00    -0.004 C 
ATOM     33  C   UNL     1      35.085 -20.515 -20.108  0.00  0.00    +0.030 C 
ATOM     34  C   UNL     1      37.180 -19.350 -20.407  0.00  0.00    -0.000 C 
ATOM     35  C   UNL     1      36.419 -20.316 -19.749  0.00  0.00    +0.003 C 
BRANCH  33  38
ATOM     36  N   UNL     1      32.899 -21.525 -19.502  0.00  0.00    -0.343 N 
ATOM     37  N   UNL     1      34.889 -22.451 -18.699  0.00  0.00    -0.285 NA
ATOM     38  C   UNL     1      34.291 -21.520 -19.421  0.00  0.00    +0.117 C 
ATOM     39  H   UNL     1      32.381 -22.215 -19.027  0.00  0.00    +0.144 HD
ATOM     40  H   UNL     1      32.434 -20.838 -20.032  0.00  0.00    +0.144 HD
ATOM     41  H   UNL     1      34.353 -23.133 -18.233  0.00  0.00    +0.188 HD
ENDBRANCH  33  38
ENDBRANCH  29  30
ENDBRANCH  24  29
ENDBRANCH  22  24
ENDBRANCH   2  22
TORSDOF 11
ENDMDL
MODEL 9
REMARK VINA RESULT:     -10.1      4.083      8.026
REMARK  Name = 5497056
REMARK  11 active torsions:
REMARK  status: ('A' for Active; 'I' for Inactive)
REMARK    1  A    between atoms: N_2  and  C_22
REMARK    2  A    between atoms: C_3  and  C_5
REMARK    3  A    between atoms: C_8  and  C_11
REMARK    4  A    between atoms: C_13  and  C_17
REMARK    5  A    between atoms: C_17  and  N_18
REMARK    6  A    between atoms: C_22  and  C_24
REMARK    7  A    between atoms: C_24  and  C_26
REMARK    8  A    between atoms: C_24  and  C_29
REMARK    9  A    between atoms: C_26  and  O_27
REMARK   10  A    between atoms: C_29  and  C_30
REMARK   11  A    between atoms: C_33  and  C_38
REMARK                            x       y       z     vdW  Elec       q    Type
REMARK                         _______ _______ _______ _____ _____    ______ ____
ROOT
ATOM      1  O   UNL     1      36.386 -21.456 -20.462  0.00  0.00    -0.270 OA
ATOM      2  N   UNL     1      34.927 -19.681 -20.772  0.00  0.00    -0.302 N 
ATOM      3  C   UNL     1      35.351 -20.860 -20.178  0.00  0.00    +0.246 C 
ATOM      4  H   UNL     1      34.079 -19.279 -20.474  0.00  0.00    +0.150 HD
ENDROOT
BRANCH   3   5
ATOM      5  C   UNL     1      34.447 -21.427 -19.145  0.00  0.00    +0.053 C 
ATOM      6  C   UNL     1      34.968 -22.217 -18.120  0.00  0.00    +0.005 C 
ATOM      7  C   UNL     1      33.076 -21.170 -19.200  0.00  0.00    +0.005 C 
ATOM      8  C   UNL     1      32.748 -22.492 -17.204  0.00  0.00    -0.000 C 
ATOM      9  C   UNL     1      34.118 -22.750 -17.150  0.00  0.00    +0.000 C 
ATOM     10  C   UNL     1      32.228 -21.703 -18.230  0.00  0.00    +0.000 C 
BRANCH   8  11
ATOM     11  C   UNL     1      31.869 -23.045 -16.197  0.00  0.00    -0.000 C 
ATOM     12  C   UNL     1      32.389 -23.847 -15.181  0.00  0.00    -0.006 C 
ATOM     13  C   UNL     1      31.540 -24.379 -14.210  0.00  0.00    -0.044 C 
ATOM     14  C   UNL     1      30.501 -22.774 -16.242  0.00  0.00    -0.000 C 
ATOM     15  C   UNL     1      30.172 -24.109 -14.256  0.00  0.00    -0.006 C 
ATOM     16  C   UNL     1      29.653 -23.306 -15.271  0.00  0.00    -0.000 C 
BRANCH  13  17
ATOM     17  C   UNL     1      32.096 -25.235 -13.123  0.00  0.00    -0.059 C 
BRANCH  17  18
ATOM     18  N   UNL     1      33.513 -24.970 -12.873  0.00  0.00    +0.383 N 
ATOM     19  H   UNL     1      34.077 -25.704 -13.301  0.00  0.00    -0.089 HD
ATOM     20  H   UNL     1      33.684 -24.953 -11.867  0.00  0.00    -0.089 HD
ATOM     21  H   UNL     1      33.766 -24.067 -13.275  0.00  0.00    -0.089 HD
ENDBRANCH  17  18
ENDBRANCH  13  17
ENDBRANCH   8  11
ENDBRANCH   3   5
BRANCH   2  22
ATOM     22  C   UNL     1      35.684 -19.020 -21.810  0.00  0.00    +0.083 C 
ATOM     23  C   UNL     1      37.029 -18.550 -21.260  0.00  0.00    +0.022 C 
BRANCH  22  24
ATOM     24  C   UNL     1      34.893 -17.877 -22.484  0.00  0.00    +0.121 C 
BRANCH  24  26
ATOM     25  O   UNL     1      34.252 -19.329 -24.334  0.00  0.00    -0.250 OA
ATOM     26  C   UNL     1      34.560 -18.213 -23.934  0.00  0.00    +0.319 C 
BRANCH  26  27
ATOM     27  O   UNL     1      34.659 -17.089 -24.701  0.00  0.00    -0.444 OA
ATOM     28  C   UNL     1      33.415 -16.495 -25.088  0.00  0.00    +0.256 C 
ENDBRANCH  26  27
ENDBRANCH  24  26
BRANCH  24  29
ATOM     29  C   UNL     1      35.647 -16.533 -22.417  0.00  0.00    +0.039 C 
BRANCH  29  30
ATOM     30  C   UNL     1      34.803 -15.415 -21.850  0.00  0.00    -0.021 C 
ATOM     31  C   UNL     1      34.533 -14.286 -22.621  0.00  0.00    -0.002 C 
ATOM     32  C   UNL     1      34.297 -15.512 -20.554  0.00  0.00    -0.004 C 
ATOM     33  C   UNL     1      33.755 -13.252 -22.097  0.00  0.00    +0.030 C 
ATOM     34  C   UNL     1      33.520 -14.479 -20.029  0.00  0.00    -0.000 C 
ATOM     35  C   UNL     1      33.249 -13.349 -20.800  0.00  0.00    +0.003 C 
BRANCH  33  38
ATOM     36  N   UNL     1      34.386 -11.606 -23.846  0.00  0.00    -0.343 N 
ATOM     37  N   UNL     1      32.336 -11.422 -22.738  0.00  0.00    -0.285 NA
ATOM     38  C   UNL     1      33.474 -12.074 -22.901  0.00  0.00    +0.117 C 
ATOM     39  H   UNL     1      34.175 -10.805 -24.378  0.00  0.00    +0.144 HD
ATOM     40  H   UNL     1      35.241 -12.075 -23.980  0.00  0.00    +0.144 HD
ATOM     41  H   UNL     1      32.144 -10.624 -23.281  0.00  0.00    +0.188 HD
ENDBRANCH  33  38
ENDBRANCH  29  30
ENDBRANCH  24  29
ENDBRANCH  22  24
ENDBRANCH   2  22
TORSDOF 11
ENDMDL
