MODEL 1
REMARK VINA RESULT:     -11.4      0.000      0.000
REMARK  Name = 10125830
REMARK  4 active torsions:
REMARK  status: ('A' for Active; 'I' for Inactive)
REMARK    1  A    between atoms: C_6  and  C_19
REMARK    2  A    between atoms: C_11  and  C_14
REMARK    3  A    between atoms: C_22  and  O_25
REMARK    4  A    between atoms: C_24  and  O_27
REMARK                            x       y       z     vdW  Elec       q    Type
REMARK                         _______ _______ _______ _____ _____    ______ ____
ROOT
ATOM      1  O   UNL     1      33.462 -23.550 -16.360  0.00  0.00    -0.270 OA
ATOM      2  N   UNL     1      33.394 -22.172 -18.278  0.00  0.00    -0.280 N 
ATOM      3  C   UNL     1      35.566 -21.417 -18.313  0.00  0.00    +0.018 C 
ATOM      4  C   UNL     1      34.322 -21.369 -18.950  0.00  0.00    +0.051 C 
ATOM      5  C   UNL     1      35.392 -22.309 -17.171  0.00  0.00    +0.056 C 
ATOM      6  C   UNL     1      35.181 -19.884 -20.588  0.00  0.00    +0.001 C 
ATOM      7  C   UNL     1      34.102 -20.615 -20.085  0.00  0.00    +0.015 C 
ATOM      8  C   UNL     1      36.638 -20.697 -18.804  0.00  0.00    +0.001 C 
ATOM      9  C   UNL     1      33.971 -22.792 -17.165  0.00  0.00    +0.250 C 
ATOM     10  C   UNL     1      36.438 -19.926 -19.953  0.00  0.00    +0.000 C 
ATOM     11  C   UNL     1      36.294 -22.677 -16.259  0.00  0.00    +0.019 C 
ATOM     12  H   UNL     1      32.456 -22.287 -18.554  0.00  0.00    +0.155 HD
ENDROOT
BRANCH  11  14
ATOM     13  N   UNL     1      35.464 -23.056 -14.060  0.00  0.00    -0.312 N 
ATOM     14  C   UNL     1      36.111 -23.562 -15.133  0.00  0.00    +0.049 C 
ATOM     15  C   UNL     1      36.462 -24.846 -14.915  0.00  0.00    +0.016 C 
ATOM     16  C   UNL     1      35.388 -24.039 -13.108  0.00  0.00    +0.062 C 
ATOM     17  C   UNL     1      36.002 -25.163 -13.612  0.00  0.00    +0.017 C 
ATOM     18  H   UNL     1      35.110 -22.141 -13.976  0.00  0.00    +0.152 HD
ENDBRANCH  11  14
BRANCH   6  19
ATOM     19  C   UNL     1      35.009 -19.075 -21.775  0.00  0.00    +0.003 C 
ATOM     20  C   UNL     1      35.331 -17.719 -21.746  0.00  0.00    +0.040 C 
ATOM     21  C   UNL     1      34.521 -19.652 -22.947  0.00  0.00    +0.003 C 
ATOM     22  C   UNL     1      35.165 -16.938 -22.890  0.00  0.00    +0.172 C 
ATOM     23  C   UNL     1      34.356 -18.872 -24.091  0.00  0.00    +0.040 C 
ATOM     24  C   UNL     1      34.678 -17.516 -24.063  0.00  0.00    +0.168 C 
BRANCH  22  25
ATOM     25  O   UNL     1      35.482 -15.614 -22.851  0.00  0.00    -0.468 OA
ATOM     26  C   UNL     1      34.571 -14.749 -22.177  0.00  0.00    +0.253 C 
ENDBRANCH  22  25
BRANCH  24  27
ATOM     27  O   UNL     1      34.512 -16.764 -25.188  0.00  0.00    -0.503 OA
ATOM     28  H   UNL     1      33.681 -16.746 -25.620  0.00  0.00    +0.292 HD
ENDBRANCH  24  27
ENDBRANCH   6  19
TORSDOF 4
ENDMDL
MODEL 2
REMARK VINA RESULT:     -10.9      1.259      1.704
REMARK  Name = 10125830
REMARK  4 active torsions:
REMARK  status: ('A' for Active; 'I' for Inactive)
REMARK    1  A    between atoms: C_6  and  C_19
REMARK    2  A    between atoms: C_11  and  C_14
REMARK    3  A    between atoms: C_22  and  O_25
REMARK    4  A    between atoms: C_24  and  O_27
REMARK                            x       y       z     vdW  Elec       q    Type
REMARK                         _______ _______ _______ _____ _____    ______ ____
ROOT
ATOM      1  O   UNL     1      37.503 -22.462 -15.968  0.00  0.00    -0.270 OA
ATOM      2  N   UNL     1      37.176 -21.169 -17.918  0.00  0.00    -0.280 N 
ATOM      3  C   UNL     1      34.950 -21.589 -18.314  0.00  0.00    +0.018 C 
ATOM      4  C   UNL     1      36.088 -20.911 -18.760  0.00  0.00    +0.051 C 
ATOM      5  C   UNL     1      35.363 -22.314 -17.118  0.00  0.00    +0.056 C 
ATOM      6  C   UNL     1      34.872 -19.995 -20.578  0.00  0.00    +0.001 C 
ATOM      7  C   UNL     1      36.079 -20.109 -19.884  0.00  0.00    +0.015 C 
ATOM      8  C   UNL     1      33.752 -21.481 -18.996  0.00  0.00    +0.001 C 
ATOM      9  C   UNL     1      36.817 -22.028 -16.874  0.00  0.00    +0.250 C 
ATOM     10  C   UNL     1      33.720 -20.674 -20.138  0.00  0.00    +0.000 C 
ATOM     11  C   UNL     1      34.631 -23.104 -16.330  0.00  0.00    +0.019 C 
ATOM     12  H   UNL     1      38.077 -20.794 -18.044  0.00  0.00    +0.155 HD
ENDROOT
BRANCH  11  14
ATOM     13  N   UNL     1      35.036 -23.128 -13.984  0.00  0.00    -0.312 N 
ATOM     14  C   UNL     1      35.051 -23.817 -15.147  0.00  0.00    +0.049 C 
ATOM     15  C   UNL     1      35.474 -25.082 -14.944  0.00  0.00    +0.016 C 
ATOM     16  C   UNL     1      35.462 -23.968 -12.988  0.00  0.00    +0.062 C 
ATOM     17  C   UNL     1      35.742 -25.189 -13.557  0.00  0.00    +0.017 C 
ATOM     18  H   UNL     1      34.767 -22.187 -13.872  0.00  0.00    +0.152 HD
ENDBRANCH  11  14
BRANCH   6  19
ATOM     19  C   UNL     1      34.803 -19.168 -21.764  0.00  0.00    +0.003 C 
ATOM     20  C   UNL     1      35.206 -17.835 -21.708  0.00  0.00    +0.040 C 
ATOM     21  C   UNL     1      34.333 -19.706 -22.962  0.00  0.00    +0.003 C 
ATOM     22  C   UNL     1      35.140 -17.038 -22.851  0.00  0.00    +0.172 C 
ATOM     23  C   UNL     1      34.268 -18.909 -24.105  0.00  0.00    +0.040 C 
ATOM     24  C   UNL     1      34.672 -17.575 -24.050  0.00  0.00    +0.168 C 
BRANCH  22  25
ATOM     25  O   UNL     1      35.536 -15.736 -22.784  0.00  0.00    -0.468 OA
ATOM     26  C   UNL     1      34.620 -14.808 -22.209  0.00  0.00    +0.253 C 
ENDBRANCH  22  25
BRANCH  24  27
ATOM     27  O   UNL     1      34.603 -16.807 -25.173  0.00  0.00    -0.503 OA
ATOM     28  H   UNL     1      35.220 -16.936 -25.866  0.00  0.00    +0.292 HD
ENDBRANCH  24  27
ENDBRANCH   6  19
TORSDOF 4
ENDMDL
MODEL 3
REMARK VINA RESULT:     -10.5      2.488      9.146
REMARK  Name = 10125830
REMARK  4 active torsions:
REMARK  status: ('A' for Active; 'I' for Inactive)
REMARK    1  A    between atoms: C_6  and  C_19
REMARK    2  A    between atoms: C_11  and  C_14
REMARK    3  A    between atoms: C_22  and  O_25
REMARK    4  A    between atoms: C_24  and  O_27
REMARK                            x       y       z     vdW  Elec       q    Type
REMARK                         _______ _______ _______ _____ _____    ______ ____
ROOT
ATOM      1  O   UNL     1      37.107 -18.664 -21.325  0.00  0.00    -0.270 OA
ATOM      2  N   UNL     1      37.199 -20.036 -19.404  0.00  0.00    -0.280 N 
ATOM      3  C   UNL     1      35.072 -20.907 -19.426  0.00  0.00    +0.018 C 
ATOM      4  C   UNL     1      36.298 -20.887 -18.755  0.00  0.00    +0.051 C 
ATOM      5  C   UNL     1      35.227 -20.008 -20.564  0.00  0.00    +0.056 C 
ATOM      6  C   UNL     1      35.477 -22.416 -17.138  0.00  0.00    +0.001 C 
ATOM      7  C   UNL     1      36.529 -21.629 -17.614  0.00  0.00    +0.015 C 
ATOM      8  C   UNL     1      34.026 -21.683 -18.962  0.00  0.00    +0.001 C 
ATOM      9  C   UNL     1      36.620 -19.450 -20.534  0.00  0.00    +0.250 C 
ATOM     10  C   UNL     1      34.238 -22.443 -17.806  0.00  0.00    +0.000 C 
ATOM     11  C   UNL     1      34.333 -19.696 -21.505  0.00  0.00    +0.019 C 
ATOM     12  H   UNL     1      38.122 -19.871 -19.104  0.00  0.00    +0.155 HD
ENDROOT
BRANCH  11  14
ATOM     13  N   UNL     1      34.794 -17.516 -22.344  0.00  0.00    -0.312 N 
ATOM     14  C   UNL     1      34.499 -18.804 -22.628  0.00  0.00    +0.049 C 
ATOM     15  C   UNL     1      34.421 -18.991 -23.962  0.00  0.00    +0.016 C 
ATOM     16  C   UNL     1      34.913 -16.837 -23.529  0.00  0.00    +0.062 C 
ATOM     17  C   UNL     1      34.685 -17.730 -24.552  0.00  0.00    +0.017 C 
ATOM     18  H   UNL     1      34.903 -17.132 -21.444  0.00  0.00    +0.152 HD
ENDBRANCH  11  14
BRANCH   6  19
ATOM     19  C   UNL     1      35.662 -23.214 -15.945  0.00  0.00    +0.003 C 
ATOM     20  C   UNL     1      36.929 -23.329 -15.374  0.00  0.00    +0.040 C 
ATOM     21  C   UNL     1      34.574 -23.867 -15.368  0.00  0.00    +0.003 C 
ATOM     22  C   UNL     1      37.107 -24.098 -14.224  0.00  0.00    +0.172 C 
ATOM     23  C   UNL     1      34.751 -24.635 -14.217  0.00  0.00    +0.040 C 
ATOM     24  C   UNL     1      36.018 -24.750 -13.645  0.00  0.00    +0.168 C 
BRANCH  22  25
ATOM     25  O   UNL     1      38.349 -24.203 -13.674  0.00  0.00    -0.468 OA
ATOM     26  C   UNL     1      39.249 -25.130 -14.278  0.00  0.00    +0.253 C 
ENDBRANCH  22  25
BRANCH  24  27
ATOM     27  O   UNL     1      36.180 -25.503 -12.521  0.00  0.00    -0.503 OA
ATOM     28  H   UNL     1      35.491 -25.552 -11.888  0.00  0.00    +0.292 HD
ENDBRANCH  24  27
ENDBRANCH   6  19
TORSDOF 4
ENDMDL
MODEL 4
REMARK VINA RESULT:     -10.2      2.373      9.244
REMARK  Name = 10125830
REMARK  4 active torsions:
REMARK  status: ('A' for Active; 'I' for Inactive)
REMARK    1  A    between atoms: C_6  and  C_19
REMARK    2  A    between atoms: C_11  and  C_14
REMARK    3  A    between atoms: C_22  and  O_25
REMARK    4  A    between atoms: C_24  and  O_27
REMARK                            x       y       z     vdW  Elec       q    Type
REMARK                         _______ _______ _______ _____ _____    ______ ____
ROOT
ATOM      1  O   UNL     1      37.184 -18.981 -20.767  0.00  0.00    -0.270 OA
ATOM      2  N   UNL     1      37.212 -20.300 -18.808  0.00  0.00    -0.280 N 
ATOM      3  C   UNL     1      35.115 -21.236 -18.919  0.00  0.00    +0.018 C 
ATOM      4  C   UNL     1      36.302 -21.161 -18.185  0.00  0.00    +0.051 C 
ATOM      5  C   UNL     1      35.305 -20.361 -20.071  0.00  0.00    +0.056 C 
ATOM      6  C   UNL     1      35.440 -22.673 -16.573  0.00  0.00    +0.001 C 
ATOM      7  C   UNL     1      36.492 -21.867 -17.013  0.00  0.00    +0.015 C 
ATOM      8  C   UNL     1      34.068 -22.031 -18.490  0.00  0.00    +0.001 C 
ATOM      9  C   UNL     1      36.678 -19.761 -19.982  0.00  0.00    +0.250 C 
ATOM     10  C   UNL     1      34.240 -22.754 -17.305  0.00  0.00    +0.000 C 
ATOM     11  C   UNL     1      34.455 -20.100 -21.066  0.00  0.00    +0.019 C 
ATOM     12  H   UNL     1      38.112 -20.100 -18.463  0.00  0.00    +0.155 HD
ENDROOT
BRANCH  11  14
ATOM     13  N   UNL     1      34.873 -17.925 -21.939  0.00  0.00    -0.312 N 
ATOM     14  C   UNL     1      34.655 -19.232 -22.203  0.00  0.00    +0.049 C 
ATOM     15  C   UNL     1      34.674 -19.459 -23.532  0.00  0.00    +0.016 C 
ATOM     16  C   UNL     1      35.041 -17.274 -23.134  0.00  0.00    +0.062 C 
ATOM     17  C   UNL     1      34.921 -18.204 -24.141  0.00  0.00    +0.017 C 
ATOM     18  H   UNL     1      34.905 -17.512 -21.046  0.00  0.00    +0.152 HD
ENDBRANCH  11  14
BRANCH   6  19
ATOM     19  C   UNL     1      35.583 -23.434 -15.351  0.00  0.00    +0.003 C 
ATOM     20  C   UNL     1      34.470 -23.673 -14.546  0.00  0.00    +0.040 C 
ATOM     21  C   UNL     1      36.832 -23.928 -14.980  0.00  0.00    +0.003 C 
ATOM     22  C   UNL     1      34.607 -24.408 -13.367  0.00  0.00    +0.172 C 
ATOM     23  C   UNL     1      36.970 -24.664 -13.803  0.00  0.00    +0.040 C 
ATOM     24  C   UNL     1      35.857 -24.903 -12.996  0.00  0.00    +0.168 C 
BRANCH  22  25
ATOM     25  O   UNL     1      33.513 -24.635 -12.588  0.00  0.00    -0.468 OA
ATOM     26  C   UNL     1      32.313 -25.024 -13.252  0.00  0.00    +0.253 C 
ENDBRANCH  22  25
BRANCH  24  27
ATOM     27  O   UNL     1      36.003 -25.622 -11.849  0.00  0.00    -0.503 OA
ATOM     28  H   UNL     1      36.452 -26.445 -11.866  0.00  0.00    +0.292 HD
ENDBRANCH  24  27
ENDBRANCH   6  19
TORSDOF 4
ENDMDL
MODEL 5
REMARK VINA RESULT:      -9.6      7.556     13.495
REMARK  Name = 10125830
REMARK  4 active torsions:
REMARK  status: ('A' for Active; 'I' for Inactive)
REMARK    1  A    between atoms: C_6  and  C_19
REMARK    2  A    between atoms: C_11  and  C_14
REMARK    3  A    between atoms: C_22  and  O_25
REMARK    4  A    between atoms: C_24  and  O_27
REMARK                            x       y       z     vdW  Elec       q    Type
REMARK                         _______ _______ _______ _____ _____    ______ ____
ROOT
ATOM      1  O   UNL     1      33.842  -6.290 -23.278  0.00  0.00    -0.270 OA
ATOM      2  N   UNL     1      34.288  -8.581 -23.648  0.00  0.00    -0.280 N 
ATOM      3  C   UNL     1      32.353  -9.509 -22.822  0.00  0.00    +0.018 C 
ATOM      4  C   UNL     1      33.593  -9.772 -23.412  0.00  0.00    +0.051 C 
ATOM      5  C   UNL     1      32.279  -8.059 -22.685  0.00  0.00    +0.056 C 
ATOM      6  C   UNL     1      33.153 -12.103 -23.376  0.00  0.00    +0.001 C 
ATOM      7  C   UNL     1      34.018 -11.054 -23.700  0.00  0.00    +0.015 C 
ATOM      8  C   UNL     1      31.492 -10.541 -22.499  0.00  0.00    +0.001 C 
ATOM      9  C   UNL     1      33.548  -7.470 -23.228  0.00  0.00    +0.250 C 
ATOM     10  C   UNL     1      31.902 -11.848 -22.782  0.00  0.00    +0.000 C 
ATOM     11  C   UNL     1      31.287  -7.321 -22.179  0.00  0.00    +0.019 C 
ATOM     12  H   UNL     1      35.182  -8.531 -24.056  0.00  0.00    +0.155 HD
ENDROOT
BRANCH  11  14
ATOM     13  N   UNL     1      30.845  -5.190 -23.144  0.00  0.00    -0.312 N 
ATOM     14  C   UNL     1      31.225  -5.885 -22.049  0.00  0.00    +0.049 C 
ATOM     15  C   UNL     1      31.476  -5.049 -21.020  0.00  0.00    +0.016 C 
ATOM     16  C   UNL     1      30.845  -3.857 -22.823  0.00  0.00    +0.062 C 
ATOM     17  C   UNL     1      31.235  -3.741 -21.508  0.00  0.00    +0.017 C 
ATOM     18  H   UNL     1      30.609  -5.574 -24.020  0.00  0.00    +0.152 HD
ENDBRANCH  11  14
BRANCH   6  19
ATOM     19  C   UNL     1      33.546 -13.467 -23.654  0.00  0.00    +0.003 C 
ATOM     20  C   UNL     1      34.275 -14.188 -22.709  0.00  0.00    +0.040 C 
ATOM     21  C   UNL     1      33.195 -14.060 -24.867  0.00  0.00    +0.003 C 
ATOM     22  C   UNL     1      34.653 -15.504 -22.977  0.00  0.00    +0.172 C 
ATOM     23  C   UNL     1      33.573 -15.376 -25.134  0.00  0.00    +0.040 C 
ATOM     24  C   UNL     1      34.302 -16.098 -24.189  0.00  0.00    +0.168 C 
BRANCH  22  25
ATOM     25  O   UNL     1      35.366 -16.199 -22.047  0.00  0.00    -0.468 OA
ATOM     26  C   UNL     1      34.947 -16.082 -20.689  0.00  0.00    +0.253 C 
ENDBRANCH  22  25
BRANCH  24  27
ATOM     27  O   UNL     1      34.665 -17.382 -24.462  0.00  0.00    -0.503 OA
ATOM     28  H   UNL     1      35.336 -17.555 -25.093  0.00  0.00    +0.292 HD
ENDBRANCH  24  27
ENDBRANCH   6  19
TORSDOF 4
ENDMDL
MODEL 6
REMARK VINA RESULT:      -9.5      0.908      1.858
REMARK  Name = 10125830
REMARK  4 active torsions:
REMARK  status: ('A' for Active; 'I' for Inactive)
REMARK    1  A    between atoms: C_6  and  C_19
REMARK    2  A    between atoms: C_11  and  C_14
REMARK    3  A    between atoms: C_22  and  O_25
REMARK    4  A    between atoms: C_24  and  O_27
REMARK                            x       y       z     vdW  Elec       q    Type
REMARK                         _______ _______ _______ _____ _____    ______ ____
ROOT
ATOM      1  O   UNL     1      34.275 -23.620 -16.420  0.00  0.00    -0.270 OA
ATOM      2  N   UNL     1      34.030 -22.229 -18.314  0.00  0.00    -0.280 N 
ATOM      3  C   UNL     1      36.081 -21.189 -18.322  0.00  0.00    +0.018 C 
ATOM      4  C   UNL     1      34.845 -21.296 -18.966  0.00  0.00    +0.051 C 
ATOM      5  C   UNL     1      36.024 -22.117 -17.197  0.00  0.00    +0.056 C 
ATOM      6  C   UNL     1      35.503 -19.680 -20.572  0.00  0.00    +0.001 C 
ATOM      7  C   UNL     1      34.529 -20.557 -20.089  0.00  0.00    +0.015 C 
ATOM      8  C   UNL     1      37.049 -20.323 -18.793  0.00  0.00    +0.001 C 
ATOM      9  C   UNL     1      34.681 -22.786 -17.209  0.00  0.00    +0.250 C 
ATOM     10  C   UNL     1      36.751 -19.564 -19.930  0.00  0.00    +0.000 C 
ATOM     11  C   UNL     1      36.964 -22.378 -16.286  0.00  0.00    +0.019 C 
ATOM     12  H   UNL     1      33.117 -22.462 -18.598  0.00  0.00    +0.155 HD
ENDROOT
BRANCH  11  14
ATOM     13  N   UNL     1      36.114 -22.943 -14.135  0.00  0.00    -0.312 N 
ATOM     14  C   UNL     1      36.896 -23.300 -15.178  0.00  0.00    +0.049 C 
ATOM     15  C   UNL     1      37.473 -24.498 -14.950  0.00  0.00    +0.016 C 
ATOM     16  C   UNL     1      36.179 -23.938 -13.195  0.00  0.00    +0.062 C 
ATOM     17  C   UNL     1      37.018 -24.918 -13.676  0.00  0.00    +0.017 C 
ATOM     18  H   UNL     1      35.590 -22.112 -14.063  0.00  0.00    +0.152 HD
ENDBRANCH  11  14
BRANCH   6  19
ATOM     19  C   UNL     1      35.228 -18.880 -21.746  0.00  0.00    +0.003 C 
ATOM     20  C   UNL     1      34.619 -19.461 -22.857  0.00  0.00    +0.040 C 
ATOM     21  C   UNL     1      35.572 -17.529 -21.764  0.00  0.00    +0.003 C 
ATOM     22  C   UNL     1      34.353 -18.690 -23.989  0.00  0.00    +0.172 C 
ATOM     23  C   UNL     1      35.305 -16.757 -22.895  0.00  0.00    +0.040 C 
ATOM     24  C   UNL     1      34.696 -17.337 -24.007  0.00  0.00    +0.168 C 
BRANCH  22  25
ATOM     25  O   UNL     1      33.759 -19.268 -25.069  0.00  0.00    -0.468 OA
ATOM     26  C   UNL     1      32.340 -19.161 -25.163  0.00  0.00    +0.253 C 
ENDBRANCH  22  25
BRANCH  24  27
ATOM     27  O   UNL     1      34.441 -16.574 -25.106  0.00  0.00    -0.503 OA
ATOM     28  H   UNL     1      34.605 -16.916 -25.962  0.00  0.00    +0.292 HD
ENDBRANCH  24  27
ENDBRANCH   6  19
TORSDOF 4
ENDMDL
MODEL 7
REMARK VINA RESULT:      -9.3      6.105     11.864
REMARK  Name = 10125830
REMARK  4 active torsions:
REMARK  status: ('A' for Active; 'I' for Inactive)
REMARK    1  A    between atoms: C_6  and  C_19
REMARK    2  A    between atoms: C_11  and  C_14
REMARK    3  A    between atoms: C_22  and  O_25
REMARK    4  A    between atoms: C_24  and  O_27
REMARK                            x       y       z     vdW  Elec       q    Type
REMARK                         _______ _______ _______ _____ _____    ______ ____
ROOT
ATOM      1  O   UNL     1      31.193  -9.337 -20.333  0.00  0.00    -0.270 OA
ATOM      2  N   UNL     1      31.994 -11.530 -20.699  0.00  0.00    -0.280 N 
ATOM      3  C   UNL     1      33.032 -11.248 -22.731  0.00  0.00    +0.018 C 
ATOM      4  C   UNL     1      32.722 -12.157 -21.715  0.00  0.00    +0.051 C 
ATOM      5  C   UNL     1      32.455  -9.975 -22.313  0.00  0.00    +0.056 C 
ATOM      6  C   UNL     1      33.838 -13.894 -22.883  0.00  0.00    +0.001 C 
ATOM      7  C   UNL     1      33.112 -13.481 -21.764  0.00  0.00    +0.015 C 
ATOM      8  C   UNL     1      33.750 -11.649 -23.842  0.00  0.00    +0.001 C 
ATOM      9  C   UNL     1      31.784 -10.177 -20.986  0.00  0.00    +0.250 C 
ATOM     10  C   UNL     1      34.155 -12.986 -23.912  0.00  0.00    +0.000 C 
ATOM     11  C   UNL     1      32.486  -8.801 -22.947  0.00  0.00    +0.019 C 
ATOM     12  H   UNL     1      31.672 -11.982 -19.886  0.00  0.00    +0.155 HD
ENDROOT
BRANCH  11  14
ATOM     13  N   UNL     1      32.611  -6.834 -21.611  0.00  0.00    -0.312 N 
ATOM     14  C   UNL     1      31.912  -7.546 -22.522  0.00  0.00    +0.049 C 
ATOM     15  C   UNL     1      30.775  -6.902 -22.859  0.00  0.00    +0.016 C 
ATOM     16  C   UNL     1      31.911  -5.687 -21.340  0.00  0.00    +0.062 C 
ATOM     17  C   UNL     1      30.764  -5.704 -22.102  0.00  0.00    +0.017 C 
ATOM     18  H   UNL     1      33.472  -7.094 -21.210  0.00  0.00    +0.152 HD
ENDBRANCH  11  14
BRANCH   6  19
ATOM     19  C   UNL     1      34.272 -15.271 -22.989  0.00  0.00    +0.003 C 
ATOM     20  C   UNL     1      34.797 -15.922 -21.873  0.00  0.00    +0.040 C 
ATOM     21  C   UNL     1      34.163 -15.945 -24.204  0.00  0.00    +0.003 C 
ATOM     22  C   UNL     1      35.215 -17.249 -21.974  0.00  0.00    +0.172 C 
ATOM     23  C   UNL     1      34.580 -17.272 -24.305  0.00  0.00    +0.040 C 
ATOM     24  C   UNL     1      35.106 -17.924 -23.190  0.00  0.00    +0.168 C 
BRANCH  22  25
ATOM     25  O   UNL     1      35.728 -17.876 -20.878  0.00  0.00    -0.468 OA
ATOM     26  C   UNL     1      36.976 -18.546 -21.039  0.00  0.00    +0.253 C 
ENDBRANCH  22  25
BRANCH  24  27
ATOM     27  O   UNL     1      35.510 -19.221 -23.301  0.00  0.00    -0.503 OA
ATOM     28  H   UNL     1      36.311 -19.497 -22.902  0.00  0.00    +0.292 HD
ENDBRANCH  24  27
ENDBRANCH   6  19
TORSDOF 4
ENDMDL
MODEL 8
REMARK VINA RESULT:      -9.1      5.758      9.827
REMARK  Name = 10125830
REMARK  4 active torsions:
REMARK  status: ('A' for Active; 'I' for Inactive)
REMARK    1  A    between atoms: C_6  and  C_19
REMARK    2  A    between atoms: C_11  and  C_14
REMARK    3  A    between atoms: C_22  and  O_25
REMARK    4  A    between atoms: C_24  and  O_27
REMARK                            x       y       z     vdW  Elec       q    Type
REMARK                         _______ _______ _______ _____ _____    ______ ____
ROOT
ATOM      1  O   UNL     1      34.534 -15.990 -20.316  0.00  0.00    -0.270 OA
ATOM      2  N   UNL     1      33.729 -13.790 -20.621  0.00  0.00    -0.280 N 
ATOM      3  C   UNL     1      33.874 -13.619 -22.909  0.00  0.00    +0.018 C 
ATOM      4  C   UNL     1      33.517 -12.961 -21.729  0.00  0.00    +0.051 C 
ATOM      5  C   UNL     1      34.337 -14.942 -22.503  0.00  0.00    +0.056 C 
ATOM      6  C   UNL     1      32.897 -11.027 -22.953  0.00  0.00    +0.001 C 
ATOM      7  C   UNL     1      33.027 -11.670 -21.720  0.00  0.00    +0.015 C 
ATOM      8  C   UNL     1      33.748 -12.989 -24.133  0.00  0.00    +0.001 C 
ATOM      9  C   UNL     1      34.235 -15.035 -21.008  0.00  0.00    +0.250 C 
ATOM     10  C   UNL     1      33.253 -11.681 -24.148  0.00  0.00    +0.000 C 
ATOM     11  C   UNL     1      34.780 -15.939 -23.270  0.00  0.00    +0.019 C 
ATOM     12  H   UNL     1      33.545 -13.530 -19.690  0.00  0.00    +0.155 HD
ENDROOT
BRANCH  11  14
ATOM     13  N   UNL     1      36.361 -17.289 -22.109  0.00  0.00    -0.312 N 
ATOM     14  C   UNL     1      35.236 -17.245 -22.856  0.00  0.00    +0.049 C 
ATOM     15  C   UNL     1      34.754 -18.488 -23.063  0.00  0.00    +0.016 C 
ATOM     16  C   UNL     1      36.626 -18.602 -21.817  0.00  0.00    +0.062 C 
ATOM     17  C   UNL     1      35.643 -19.370 -22.399  0.00  0.00    +0.017 C 
ATOM     18  H   UNL     1      36.897 -16.513 -21.825  0.00  0.00    +0.152 HD
ENDBRANCH  11  14
BRANCH   6  19
ATOM     19  C   UNL     1      32.389  -9.673 -23.005  0.00  0.00    +0.003 C 
ATOM     20  C   UNL     1      32.323  -8.909 -21.840  0.00  0.00    +0.040 C 
ATOM     21  C   UNL     1      31.967  -9.133 -24.219  0.00  0.00    +0.003 C 
ATOM     22  C   UNL     1      31.834  -7.604 -21.890  0.00  0.00    +0.172 C 
ATOM     23  C   UNL     1      31.479  -7.827 -24.269  0.00  0.00    +0.040 C 
ATOM     24  C   UNL     1      31.413  -7.063 -23.104  0.00  0.00    +0.168 C 
BRANCH  22  25
ATOM     25  O   UNL     1      31.774  -6.867 -20.746  0.00  0.00    -0.468 OA
ATOM     26  C   UNL     1      32.877  -6.971 -19.848  0.00  0.00    +0.253 C 
ENDBRANCH  22  25
BRANCH  24  27
ATOM     27  O   UNL     1      30.934  -5.789 -23.166  0.00  0.00    -0.503 OA
ATOM     28  H   UNL     1      31.189  -5.161 -22.519  0.00  0.00    +0.292 HD
ENDBRANCH  24  27
ENDBRANCH   6  19
TORSDOF 4
ENDMDL
MODEL 9
REMARK VINA RESULT:      -9.1      7.653     12.476
REMARK  Name = 10125830
REMARK  4 active torsions:
REMARK  status: ('A' for Active; 'I' for Inactive)
REMARK    1  A    between atoms: C_6  and  C_19
REMARK    2  A    between atoms: C_11  and  C_14
REMARK    3  A    between atoms: C_22  and  O_25
REMARK    4  A    between atoms: C_24  and  O_27
REMARK                            x       y       z     vdW  Elec       q    Type
REMARK                         _______ _______ _______ _____ _____    ______ ____
ROOT
ATOM      1  O   UNL     1      32.517 -14.147 -21.590  0.00  0.00    -0.270 OA
ATOM      2  N   UNL     1      31.993 -11.859 -21.319  0.00  0.00    -0.280 N 
ATOM      3  C   UNL     1      33.124 -10.969 -23.112  0.00  0.00    +0.018 C 
ATOM      4  C   UNL     1      32.310 -10.685 -22.012  0.00  0.00    +0.051 C 
ATOM      5  C   UNL     1      33.323 -12.414 -23.097  0.00  0.00    +0.056 C 
ATOM      6  C   UNL     1      32.344  -8.373 -22.539  0.00  0.00    +0.001 C 
ATOM      7  C   UNL     1      31.905  -9.402 -21.702  0.00  0.00    +0.015 C 
ATOM      8  C   UNL     1      33.562  -9.956 -23.945  0.00  0.00    +0.001 C 
ATOM      9  C   UNL     1      32.578 -12.977 -21.922  0.00  0.00    +0.250 C 
ATOM     10  C   UNL     1      33.164  -8.648 -23.650  0.00  0.00    +0.000 C 
ATOM     11  C   UNL     1      34.025 -13.165 -23.948  0.00  0.00    +0.019 C 
ATOM     12  H   UNL     1      31.431 -11.893 -20.512  0.00  0.00    +0.155 HD
ENDROOT
BRANCH  11  14
ATOM     13  N   UNL     1      34.956 -15.095 -22.909  0.00  0.00    -0.312 N 
ATOM     14  C   UNL     1      34.214 -14.596 -23.922  0.00  0.00    +0.049 C 
ATOM     15  C   UNL     1      33.786 -15.588 -24.731  0.00  0.00    +0.016 C 
ATOM     16  C   UNL     1      35.017 -16.456 -23.057  0.00  0.00    +0.062 C 
ATOM     17  C   UNL     1      34.299 -16.790 -24.183  0.00  0.00    +0.017 C 
ATOM     18  H   UNL     1      35.379 -14.571 -22.190  0.00  0.00    +0.152 HD
ENDBRANCH  11  14
BRANCH   6  19
ATOM     19  C   UNL     1      31.952  -7.008 -22.263  0.00  0.00    +0.003 C 
ATOM     20  C   UNL     1      31.239  -6.282 -23.216  0.00  0.00    +0.040 C 
ATOM     21  C   UNL     1      32.286  -6.419 -21.044  0.00  0.00    +0.003 C 
ATOM     22  C   UNL     1      30.860  -4.966 -22.951  0.00  0.00    +0.172 C 
ATOM     23  C   UNL     1      31.907  -5.104 -20.777  0.00  0.00    +0.040 C 
ATOM     24  C   UNL     1      31.193  -4.377 -21.731  0.00  0.00    +0.168 C 
BRANCH  22  25
ATOM     25  O   UNL     1      30.164  -4.266 -23.889  0.00  0.00    -0.468 OA
ATOM     26  C   UNL     1      30.920  -3.632 -24.919  0.00  0.00    +0.253 C 
ENDBRANCH  22  25
BRANCH  24  27
ATOM     27  O   UNL     1      30.829  -3.093 -21.459  0.00  0.00    -0.503 OA
ATOM     28  H   UNL     1      29.940  -2.896 -21.238  0.00  0.00    +0.292 HD
ENDBRANCH  24  27
ENDBRANCH   6  19
TORSDOF 4
ENDMDL
