MODEL 1
REMARK VINA RESULT:     -11.2      0.000      0.000
REMARK  Name = 5362507
REMARK  4 active torsions:
REMARK  status: ('A' for Active; 'I' for Inactive)
REMARK    1  A    between atoms: C_12  and  O_21
REMARK    2  A    between atoms: C_18  and  O_23
REMARK    3  A    between atoms: O_23  and  C_24
REMARK    4  A    between atoms: C_24  and  C_25
REMARK                            x       y       z     vdW  Elec       q    Type
REMARK                         _______ _______ _______ _____ _____    ______ ____
ROOT
ATOM      1  O   UNL     1      31.685 -10.854 -22.582  0.00  0.00    -0.473 OA
ATOM      2  N   UNL     1      31.826  -5.628 -23.006  0.00  0.00    +0.387 N 
ATOM      3  C   UNL     1      31.610  -8.436 -22.303  0.00  0.00    +0.061 C 
ATOM      4  C   UNL     1      31.925  -7.346 -21.268  0.00  0.00    +0.010 C 
ATOM      5  C   UNL     1      32.741  -6.239 -22.012  0.00  0.00    -0.049 C 
ATOM      6  C   UNL     1      31.065  -9.787 -21.783  0.00  0.00    +0.200 C 
ATOM      7  C   UNL     1      30.743  -7.836 -23.429  0.00  0.00    -0.015 C 
ATOM      8  C   UNL     1      32.899  -8.942 -22.862  0.00  0.00    +0.014 C 
ATOM      9  C   UNL     1      34.092  -6.775 -22.599  0.00  0.00    +0.006 C 
ATOM     10  C   UNL     1      31.354  -6.561 -24.033  0.00  0.00    -0.077 C 
ATOM     11  C   UNL     1      34.048  -8.202 -23.074  0.00  0.00    -0.025 C 
ATOM     12  C   UNL     1      31.287 -10.027 -20.267  0.00  0.00    +0.172 C 
ATOM     13  C   UNL     1      32.606  -7.918 -20.050  0.00  0.00    -0.030 C 
ATOM     14  C   UNL     1      32.849 -10.306 -23.049  0.00  0.00    +0.168 C 
ATOM     15  C   UNL     1      32.322  -9.153 -19.611  0.00  0.00    +0.002 C 
ATOM     16  C   UNL     1      35.145  -8.872 -23.618  0.00  0.00    -0.001 C 
ATOM     17  C   UNL     1      32.349  -4.402 -23.599  0.00  0.00    -0.101 C 
ATOM     18  C   UNL     1      33.916 -10.986 -23.592  0.00  0.00    +0.172 C 
ATOM     19  C   UNL     1      35.069 -10.252 -23.893  0.00  0.00    +0.040 C 
ATOM     20  H   UNL     1      31.007  -5.367 -22.457  0.00  0.00    -0.080 HD
ENDROOT
BRANCH  12  21
ATOM     21  O   UNL     1      31.579 -11.403 -20.031  0.00  0.00    -0.377 OA
ATOM     22  H   UNL     1      30.753 -11.885 -19.870  0.00  0.00    +0.211 HD
ENDBRANCH  12  21
BRANCH  18  23
ATOM     23  O   UNL     1      33.873 -12.325 -23.799  0.00  0.00    -0.468 OA
BRANCH  23  24
ATOM     24  C   UNL     1      34.188 -13.171 -22.690  0.00  0.00    +0.232 C 
BRANCH  24  25
ATOM     25  C   UNL     1      34.370 -14.591 -23.107  0.00  0.00    +0.021 C 
ATOM     26  C   UNL     1      33.873 -15.027 -24.335  0.00  0.00    -0.001 C 
ATOM     27  C   UNL     1      35.038 -15.484 -22.268  0.00  0.00    -0.001 C 
ATOM     28  C   UNL     1      34.043 -16.355 -24.725  0.00  0.00    -0.000 C 
ATOM     29  C   UNL     1      35.208 -16.812 -22.658  0.00  0.00    -0.000 C 
ATOM     30  C   UNL     1      34.711 -17.247 -23.885  0.00  0.00    -0.000 C 
ENDBRANCH  24  25
ENDBRANCH  23  24
ENDBRANCH  18  23
TORSDOF 4
ENDMDL
MODEL 2
REMARK VINA RESULT:     -10.9      0.818      1.313
REMARK  Name = 5362507
REMARK  4 active torsions:
REMARK  status: ('A' for Active; 'I' for Inactive)
REMARK    1  A    between atoms: C_12  and  O_21
REMARK    2  A    between atoms: C_18  and  O_23
REMARK    3  A    between atoms: O_23  and  C_24
REMARK    4  A    between atoms: C_24  and  C_25
REMARK                            x       y       z     vdW  Elec       q    Type
REMARK                         _______ _______ _______ _____ _____    ______ ____
ROOT
ATOM      1  O   UNL     1      31.348 -10.770 -22.083  0.00  0.00    -0.473 OA
ATOM      2  N   UNL     1      32.205  -5.758 -23.370  0.00  0.00    +0.387 N 
ATOM      3  C   UNL     1      31.669  -8.359 -22.197  0.00  0.00    +0.061 C 
ATOM      4  C   UNL     1      32.276  -7.198 -21.395  0.00  0.00    +0.010 C 
ATOM      5  C   UNL     1      33.142  -6.363 -22.392  0.00  0.00    -0.049 C 
ATOM      6  C   UNL     1      31.003  -9.509 -21.408  0.00  0.00    +0.200 C 
ATOM      7  C   UNL     1      30.761  -7.792 -23.308  0.00  0.00    -0.015 C 
ATOM      8  C   UNL     1      32.784  -9.148 -22.800  0.00  0.00    +0.014 C 
ATOM      9  C   UNL     1      34.310  -7.196 -23.025  0.00  0.00    +0.006 C 
ATOM     10  C   UNL     1      31.469  -6.738 -24.174  0.00  0.00    -0.077 C 
ATOM     11  C   UNL     1      33.992  -8.649 -23.251  0.00  0.00    -0.025 C 
ATOM     12  C   UNL     1      31.384  -9.561 -19.905  0.00  0.00    +0.172 C 
ATOM     13  C   UNL     1      33.018  -7.693 -20.179  0.00  0.00    -0.030 C 
ATOM     14  C   UNL     1      32.509 -10.497 -22.754  0.00  0.00    +0.168 C 
ATOM     15  C   UNL     1      32.615  -8.786 -19.515  0.00  0.00    +0.002 C 
ATOM     16  C   UNL     1      34.898  -9.564 -23.792  0.00  0.00    -0.001 C 
ATOM     17  C   UNL     1      32.822  -4.735 -24.209  0.00  0.00    -0.101 C 
ATOM     18  C   UNL     1      33.382 -11.417 -23.289  0.00  0.00    +0.172 C 
ATOM     19  C   UNL     1      34.583 -10.937 -23.828  0.00  0.00    +0.040 C 
ATOM     20  H   UNL     1      31.514  -5.287 -22.788  0.00  0.00    -0.080 HD
ENDROOT
BRANCH  12  21
ATOM     21  O   UNL     1      31.497 -10.917 -19.479  0.00  0.00    -0.377 OA
ATOM     22  H   UNL     1      30.870 -11.465 -19.976  0.00  0.00    +0.211 HD
ENDBRANCH  12  21
BRANCH  18  23
ATOM     23  O   UNL     1      33.115 -12.746 -23.267  0.00  0.00    -0.468 OA
BRANCH  23  24
ATOM     24  C   UNL     1      34.128 -13.627 -23.757  0.00  0.00    +0.232 C 
BRANCH  24  25
ATOM     25  C   UNL     1      34.484 -14.676 -22.759  0.00  0.00    +0.021 C 
ATOM     26  C   UNL     1      34.338 -14.420 -21.396  0.00  0.00    -0.001 C 
ATOM     27  C   UNL     1      34.963 -15.915 -23.189  0.00  0.00    -0.001 C 
ATOM     28  C   UNL     1      34.672 -15.401 -20.461  0.00  0.00    -0.000 C 
ATOM     29  C   UNL     1      35.297 -16.895 -22.255  0.00  0.00    -0.000 C 
ATOM     30  C   UNL     1      35.150 -16.639 -20.893  0.00  0.00    -0.000 C 
ENDBRANCH  24  25
ENDBRANCH  23  24
ENDBRANCH  18  23
TORSDOF 4
ENDMDL
MODEL 3
REMARK VINA RESULT:      -9.3      1.997      3.934
REMARK  Name = 5362507
REMARK  4 active torsions:
REMARK  status: ('A' for Active; 'I' for Inactive)
REMARK    1  A    between atoms: C_12  and  O_21
REMARK    2  A    between atoms: C_18  and  O_23
REMARK    3  A    between atoms: O_23  and  C_24
REMARK    4  A    between atoms: C_24  and  C_25
REMARK                            x       y       z     vdW  Elec       q    Type
REMARK                         _______ _______ _______ _____ _____    ______ ____
ROOT
ATOM      1  O   UNL     1      33.544  -8.173 -21.715  0.00  0.00    -0.473 OA
ATOM      2  N   UNL     1      31.572  -3.494 -23.031  0.00  0.00    +0.387 N 
ATOM      3  C   UNL     1      33.070  -5.932 -22.542  0.00  0.00    +0.061 C 
ATOM      4  C   UNL     1      33.329  -5.032 -23.759  0.00  0.00    +0.010 C 
ATOM      5  C   UNL     1      31.957  -4.391 -24.148  0.00  0.00    -0.049 C 
ATOM      6  C   UNL     1      34.187  -6.915 -22.122  0.00  0.00    +0.200 C 
ATOM      7  C   UNL     1      32.560  -5.071 -21.368  0.00  0.00    -0.015 C 
ATOM      8  C   UNL     1      32.041  -6.947 -22.918  0.00  0.00    +0.014 C 
ATOM      9  C   UNL     1      30.879  -5.460 -24.539  0.00  0.00    +0.006 C 
ATOM     10  C   UNL     1      31.363  -4.187 -21.756  0.00  0.00    -0.077 C 
ATOM     11  C   UNL     1      30.980  -6.758 -23.784  0.00  0.00    -0.025 C 
ATOM     12  C   UNL     1      35.262  -7.168 -23.212  0.00  0.00    +0.172 C 
ATOM     13  C   UNL     1      34.009  -5.787 -24.872  0.00  0.00    -0.030 C 
ATOM     14  C   UNL     1      32.341  -8.174 -22.368  0.00  0.00    +0.168 C 
ATOM     15  C   UNL     1      34.877  -6.776 -24.614  0.00  0.00    +0.002 C 
ATOM     16  C   UNL     1      30.125  -7.842 -23.991  0.00  0.00    -0.001 C 
ATOM     17  C   UNL     1      30.449  -2.618 -23.351  0.00  0.00    -0.101 C 
ATOM     18  C   UNL     1      31.508  -9.255 -22.551  0.00  0.00    +0.172 C 
ATOM     19  C   UNL     1      30.379  -9.076 -23.360  0.00  0.00    +0.040 C 
ATOM     20  H   UNL     1      32.388  -2.897 -22.904  0.00  0.00    -0.080 HD
ENDROOT
BRANCH  12  21
ATOM     21  O   UNL     1      35.680  -8.530 -23.175  0.00  0.00    -0.377 OA
ATOM     22  H   UNL     1      36.357  -8.679 -23.854  0.00  0.00    +0.211 HD
ENDBRANCH  12  21
BRANCH  18  23
ATOM     23  O   UNL     1      31.781 -10.463 -22.000  0.00  0.00    -0.468 OA
BRANCH  23  24
ATOM     24  C   UNL     1      32.519 -11.395 -22.795  0.00  0.00    +0.232 C 
BRANCH  24  25
ATOM     25  C   UNL     1      32.979 -12.567 -21.996  0.00  0.00    +0.021 C 
ATOM     26  C   UNL     1      32.292 -12.936 -20.840  0.00  0.00    -0.001 C 
ATOM     27  C   UNL     1      34.097 -13.295 -22.405  0.00  0.00    -0.001 C 
ATOM     28  C   UNL     1      32.723 -14.032 -20.091  0.00  0.00    -0.000 C 
ATOM     29  C   UNL     1      34.528 -14.390 -21.657  0.00  0.00    -0.000 C 
ATOM     30  C   UNL     1      33.841 -14.758 -20.501  0.00  0.00    -0.000 C 
ENDBRANCH  24  25
ENDBRANCH  23  24
ENDBRANCH  18  23
TORSDOF 4
ENDMDL
MODEL 4
REMARK VINA RESULT:      -8.9     11.892     16.662
REMARK  Name = 5362507
REMARK  4 active torsions:
REMARK  status: ('A' for Active; 'I' for Inactive)
REMARK    1  A    between atoms: C_12  and  O_21
REMARK    2  A    between atoms: C_18  and  O_23
REMARK    3  A    between atoms: O_23  and  C_24
REMARK    4  A    between atoms: C_24  and  C_25
REMARK                            x       y       z     vdW  Elec       q    Type
REMARK                         _______ _______ _______ _____ _____    ______ ____
ROOT
ATOM      1  O   UNL     1      35.195 -25.389 -15.407  0.00  0.00    -0.473 OA
ATOM      2  N   UNL     1      36.544 -23.991 -10.535  0.00  0.00    +0.387 N 
ATOM      3  C   UNL     1      36.074 -25.167 -13.147  0.00  0.00    +0.061 C 
ATOM      4  C   UNL     1      37.345 -25.446 -12.330  0.00  0.00    +0.010 C 
ATOM      5  C   UNL     1      37.649 -24.149 -11.511  0.00  0.00    -0.049 C 
ATOM      6  C   UNL     1      35.705 -26.166 -14.268  0.00  0.00    +0.200 C 
ATOM      7  C   UNL     1      34.901 -24.886 -12.187  0.00  0.00    -0.015 C 
ATOM      8  C   UNL     1      36.323 -23.977 -14.014  0.00  0.00    +0.014 C 
ATOM      9  C   UNL     1      37.907 -22.902 -12.424  0.00  0.00    +0.006 C 
ATOM     10  C   UNL     1      35.228 -23.798 -11.152  0.00  0.00    -0.077 C 
ATOM     11  C   UNL     1      37.109 -22.883 -13.700  0.00  0.00    -0.025 C 
ATOM     12  C   UNL     1      36.867 -27.097 -14.705  0.00  0.00    +0.172 C 
ATOM     13  C   UNL     1      38.477 -25.914 -13.209  0.00  0.00    -0.030 C 
ATOM     14  C   UNL     1      35.749 -24.147 -15.254  0.00  0.00    +0.168 C 
ATOM     15  C   UNL     1      38.248 -26.653 -14.304  0.00  0.00    +0.002 C 
ATOM     16  C   UNL     1      37.200 -21.869 -14.655  0.00  0.00    -0.001 C 
ATOM     17  C   UNL     1      36.809 -22.981  -9.516  0.00  0.00    -0.101 C 
ATOM     18  C   UNL     1      35.818 -23.157 -16.209  0.00  0.00    +0.172 C 
ATOM     19  C   UNL     1      36.540 -21.999 -15.894  0.00  0.00    +0.040 C 
ATOM     20  H   UNL     1      36.507 -24.891 -10.057  0.00  0.00    -0.080 HD
ENDROOT
BRANCH  12  21
ATOM     21  O   UNL     1      36.807 -27.320 -16.112  0.00  0.00    -0.377 OA
ATOM     22  H   UNL     1      36.063 -26.823 -16.487  0.00  0.00    +0.211 HD
ENDBRANCH  12  21
BRANCH  18  23
ATOM     23  O   UNL     1      35.241 -23.304 -17.427  0.00  0.00    -0.468 OA
BRANCH  23  24
ATOM     24  C   UNL     1      34.026 -22.590 -17.667  0.00  0.00    +0.232 C 
BRANCH  24  25
ATOM     25  C   UNL     1      34.163 -21.620 -18.791  0.00  0.00    +0.021 C 
ATOM     26  C   UNL     1      35.429 -21.255 -19.248  0.00  0.00    -0.001 C 
ATOM     27  C   UNL     1      33.024 -21.078 -19.388  0.00  0.00    -0.001 C 
ATOM     28  C   UNL     1      35.558 -20.347 -20.299  0.00  0.00    -0.000 C 
ATOM     29  C   UNL     1      33.152 -20.170 -20.439  0.00  0.00    -0.000 C 
ATOM     30  C   UNL     1      34.418 -19.806 -20.895  0.00  0.00    -0.000 C 
ENDBRANCH  24  25
ENDBRANCH  23  24
ENDBRANCH  18  23
TORSDOF 4
ENDMDL
MODEL 5
REMARK VINA RESULT:      -8.5      4.578      8.762
REMARK  Name = 5362507
REMARK  4 active torsions:
REMARK  status: ('A' for Active; 'I' for Inactive)
REMARK    1  A    between atoms: C_12  and  O_21
REMARK    2  A    between atoms: C_18  and  O_23
REMARK    3  A    between atoms: O_23  and  C_24
REMARK    4  A    between atoms: C_24  and  C_25
REMARK                            x       y       z     vdW  Elec       q    Type
REMARK                         _______ _______ _______ _____ _____    ______ ____
ROOT
ATOM      1  O   UNL     1      32.655  -5.153 -25.372  0.00  0.00    -0.473 OA
ATOM      2  N   UNL     1      32.065  -9.124 -21.996  0.00  0.00    +0.387 N 
ATOM      3  C   UNL     1      32.845  -7.113 -23.939  0.00  0.00    +0.061 C 
ATOM      4  C   UNL     1      33.863  -7.849 -23.056  0.00  0.00    +0.010 C 
ATOM      5  C   UNL     1      33.147  -8.155 -21.700  0.00  0.00    -0.049 C 
ATOM      6  C   UNL     1      33.367  -6.432 -25.225  0.00  0.00    +0.200 C 
ATOM      7  C   UNL     1      31.635  -8.033 -24.199  0.00  0.00    -0.015 C 
ATOM      8  C   UNL     1      32.406  -5.879 -23.223  0.00  0.00    +0.014 C 
ATOM      9  C   UNL     1      32.685  -6.856 -20.952  0.00  0.00    +0.006 C 
ATOM     10  C   UNL     1      31.036  -8.608 -22.905  0.00  0.00    -0.077 C 
ATOM     11  C   UNL     1      32.258  -5.732 -21.856  0.00  0.00    -0.025 C 
ATOM     12  C   UNL     1      34.903  -6.221 -25.261  0.00  0.00    +0.172 C 
ATOM     13  C   UNL     1      35.149  -7.073 -22.927  0.00  0.00    -0.030 C 
ATOM     14  C   UNL     1      32.262  -4.828 -24.102  0.00  0.00    +0.168 C 
ATOM     15  C   UNL     1      35.607  -6.315 -23.933  0.00  0.00    +0.002 C 
ATOM     16  C   UNL     1      31.825  -4.488 -21.392  0.00  0.00    -0.001 C 
ATOM     17  C   UNL     1      31.472  -9.716 -20.801  0.00  0.00    -0.101 C 
ATOM     18  C   UNL     1      31.828  -3.595 -23.669  0.00  0.00    +0.172 C 
ATOM     19  C   UNL     1      31.592  -3.434 -22.298  0.00  0.00    +0.040 C 
ATOM     20  H   UNL     1      32.539  -9.876 -22.495  0.00  0.00    -0.080 HD
ENDROOT
BRANCH  12  21
ATOM     21  O   UNL     1      35.208  -4.982 -25.897  0.00  0.00    -0.377 OA
ATOM     22  H   UNL     1      35.309  -5.126 -26.852  0.00  0.00    +0.211 HD
ENDBRANCH  12  21
BRANCH  18  23
ATOM     23  O   UNL     1      31.664  -2.559 -24.527  0.00  0.00    -0.468 OA
BRANCH  23  24
ATOM     24  C   UNL     1      30.336  -2.282 -24.976  0.00  0.00    +0.232 C 
BRANCH  24  25
ATOM     25  C   UNL     1      30.240  -2.283 -26.464  0.00  0.00    +0.021 C 
ATOM     26  C   UNL     1      29.097  -1.786 -27.090  0.00  0.00    -0.001 C 
ATOM     27  C   UNL     1      31.294  -2.781 -27.231  0.00  0.00    -0.001 C 
ATOM     28  C   UNL     1      29.007  -1.786 -28.482  0.00  0.00    -0.000 C 
ATOM     29  C   UNL     1      31.204  -2.783 -28.623  0.00  0.00    -0.000 C 
ATOM     30  C   UNL     1      30.062  -2.285 -29.248  0.00  0.00    -0.000 C 
ENDBRANCH  24  25
ENDBRANCH  23  24
ENDBRANCH  18  23
TORSDOF 4
ENDMDL
MODEL 6
REMARK VINA RESULT:      -8.4     14.735     17.546
REMARK  Name = 5362507
REMARK  4 active torsions:
REMARK  status: ('A' for Active; 'I' for Inactive)
REMARK    1  A    between atoms: C_12  and  O_21
REMARK    2  A    between atoms: C_18  and  O_23
REMARK    3  A    between atoms: O_23  and  C_24
REMARK    4  A    between atoms: C_24  and  C_25
REMARK                            x       y       z     vdW  Elec       q    Type
REMARK                         _______ _______ _______ _____ _____    ______ ____
ROOT
ATOM      1  O   UNL     1      34.098 -24.627 -14.720  0.00  0.00    -0.473 OA
ATOM      2  N   UNL     1      39.184 -25.830 -14.278  0.00  0.00    +0.387 N 
ATOM      3  C   UNL     1      36.514 -24.871 -14.895  0.00  0.00    +0.061 C 
ATOM      4  C   UNL     1      37.777 -24.047 -15.185  0.00  0.00    +0.010 C 
ATOM      5  C   UNL     1      38.817 -24.408 -14.075  0.00  0.00    -0.049 C 
ATOM      6  C   UNL     1      35.222 -24.502 -15.660  0.00  0.00    +0.200 C 
ATOM      7  C   UNL     1      36.853 -26.373 -14.985  0.00  0.00    -0.015 C 
ATOM      8  C   UNL     1      36.037 -24.535 -13.521  0.00  0.00    +0.014 C 
ATOM      9  C   UNL     1      38.312 -24.056 -12.634  0.00  0.00    +0.006 C 
ATOM     10  C   UNL     1      38.063 -26.762 -14.121  0.00  0.00    -0.077 C 
ATOM     11  C   UNL     1      36.829 -24.213 -12.434  0.00  0.00    -0.025 C 
ATOM     12  C   UNL     1      35.244 -23.096 -16.316  0.00  0.00    +0.172 C 
ATOM     13  C   UNL     1      37.465 -22.576 -15.300  0.00  0.00    -0.030 C 
ATOM     14  C   UNL     1      34.662 -24.471 -13.483  0.00  0.00    +0.168 C 
ATOM     15  C   UNL     1      36.296 -22.150 -15.800  0.00  0.00    +0.002 C 
ATOM     16  C   UNL     1      36.176 -23.939 -11.230  0.00  0.00    -0.001 C 
ATOM     17  C   UNL     1      40.341 -26.250 -13.494  0.00  0.00    -0.101 C 
ATOM     18  C   UNL     1      33.996 -24.212 -12.306  0.00  0.00    +0.172 C 
ATOM     19  C   UNL     1      34.769 -23.960 -11.165  0.00  0.00    +0.040 C 
ATOM     20  H   UNL     1      39.459 -25.875 -15.259  0.00  0.00    -0.080 HD
ENDROOT
BRANCH  12  21
ATOM     21  O   UNL     1      33.953 -22.498 -16.227  0.00  0.00    -0.377 OA
ATOM     22  H   UNL     1      33.639 -22.276 -17.117  0.00  0.00    +0.211 HD
ENDBRANCH  12  21
BRANCH  18  23
ATOM     23  O   UNL     1      32.643 -24.165 -12.250  0.00  0.00    -0.468 OA
BRANCH  23  24
ATOM     24  C   UNL     1      31.993 -23.107 -12.958  0.00  0.00    +0.232 C 
BRANCH  24  25
ATOM     25  C   UNL     1      30.867 -23.608 -13.798  0.00  0.00    +0.021 C 
ATOM     26  C   UNL     1      30.454 -24.935 -13.691  0.00  0.00    -0.001 C 
ATOM     27  C   UNL     1      30.227 -22.747 -14.692  0.00  0.00    -0.001 C 
ATOM     28  C   UNL     1      29.401 -25.404 -14.477  0.00  0.00    -0.000 C 
ATOM     29  C   UNL     1      29.175 -23.216 -15.478  0.00  0.00    -0.000 C 
ATOM     30  C   UNL     1      28.762 -24.543 -15.370  0.00  0.00    -0.000 C 
ENDBRANCH  24  25
ENDBRANCH  23  24
ENDBRANCH  18  23
TORSDOF 4
ENDMDL
MODEL 7
REMARK VINA RESULT:      -8.3      4.291      6.721
REMARK  Name = 5362507
REMARK  4 active torsions:
REMARK  status: ('A' for Active; 'I' for Inactive)
REMARK    1  A    between atoms: C_12  and  O_21
REMARK    2  A    between atoms: C_18  and  O_23
REMARK    3  A    between atoms: O_23  and  C_24
REMARK    4  A    between atoms: C_24  and  C_25
REMARK                            x       y       z     vdW  Elec       q    Type
REMARK                         _______ _______ _______ _____ _____    ______ ____
ROOT
ATOM      1  O   UNL     1      33.248  -4.840 -23.765  0.00  0.00    -0.473 OA
ATOM      2  N   UNL     1      31.916  -8.199 -19.962  0.00  0.00    +0.387 N 
ATOM      3  C   UNL     1      32.172  -6.349 -22.185  0.00  0.00    +0.061 C 
ATOM      4  C   UNL     1      31.068  -7.414 -22.118  0.00  0.00    +0.010 C 
ATOM      5  C   UNL     1      31.668  -8.640 -21.356  0.00  0.00    -0.049 C 
ATOM      6  C   UNL     1      31.956  -5.146 -23.132  0.00  0.00    +0.200 C 
ATOM      7  C   UNL     1      32.556  -5.920 -20.754  0.00  0.00    -0.015 C 
ATOM      8  C   UNL     1      33.355  -6.940 -22.878  0.00  0.00    +0.014 C 
ATOM      9  C   UNL     1      32.912  -9.256 -22.085  0.00  0.00    +0.006 C 
ATOM     10  C   UNL     1      32.896  -7.114 -19.847  0.00  0.00    -0.077 C 
ATOM     11  C   UNL     1      33.770  -8.257 -22.813  0.00  0.00    -0.025 C 
ATOM     12  C   UNL     1      30.852  -5.361 -24.200  0.00  0.00    +0.172 C 
ATOM     13  C   UNL     1      30.519  -7.730 -23.486  0.00  0.00    -0.030 C 
ATOM     14  C   UNL     1      33.948  -6.015 -23.708  0.00  0.00    +0.168 C 
ATOM     15  C   UNL     1      30.442  -6.791 -24.439  0.00  0.00    +0.002 C 
ATOM     16  C   UNL     1      34.915  -8.601 -23.534  0.00  0.00    -0.001 C 
ATOM     17  C   UNL     1      32.227  -9.296 -19.052  0.00  0.00    -0.101 C 
ATOM     18  C   UNL     1      35.083  -6.328 -24.423  0.00  0.00    +0.172 C 
ATOM     19  C   UNL     1      35.577  -7.634 -24.317  0.00  0.00    +0.040 C 
ATOM     20  H   UNL     1      31.022  -7.811 -19.665  0.00  0.00    -0.080 HD
ENDROOT
BRANCH  12  21
ATOM     21  O   UNL     1      31.235  -4.745 -25.427  0.00  0.00    -0.377 OA
ATOM     22  H   UNL     1      31.022  -3.799 -25.394  0.00  0.00    +0.211 HD
ENDBRANCH  12  21
BRANCH  18  23
ATOM     23  O   UNL     1      35.687  -5.421 -25.229  0.00  0.00    -0.468 OA
BRANCH  23  24
ATOM     24  C   UNL     1      34.925  -4.905 -26.323  0.00  0.00    +0.232 C 
BRANCH  24  25
ATOM     25  C   UNL     1      35.148  -5.686 -27.574  0.00  0.00    +0.021 C 
ATOM     26  C   UNL     1      36.396  -6.252 -27.830  0.00  0.00    -0.001 C 
ATOM     27  C   UNL     1      34.107  -5.849 -28.489  0.00  0.00    -0.001 C 
ATOM     28  C   UNL     1      36.606  -6.982 -29.000  0.00  0.00    -0.000 C 
ATOM     29  C   UNL     1      34.316  -6.578 -29.660  0.00  0.00    -0.000 C 
ATOM     30  C   UNL     1      35.564  -7.144 -29.915  0.00  0.00    -0.000 C 
ENDBRANCH  24  25
ENDBRANCH  23  24
ENDBRANCH  18  23
TORSDOF 4
ENDMDL
MODEL 8
REMARK VINA RESULT:      -8.2      4.116      6.671
REMARK  Name = 5362507
REMARK  4 active torsions:
REMARK  status: ('A' for Active; 'I' for Inactive)
REMARK    1  A    between atoms: C_12  and  O_21
REMARK    2  A    between atoms: C_18  and  O_23
REMARK    3  A    between atoms: O_23  and  C_24
REMARK    4  A    between atoms: C_24  and  C_25
REMARK                            x       y       z     vdW  Elec       q    Type
REMARK                         _______ _______ _______ _____ _____    ______ ____
ROOT
ATOM      1  O   UNL     1      31.571  -5.457 -24.996  0.00  0.00    -0.473 OA
ATOM      2  N   UNL     1      35.336  -4.978 -28.617  0.00  0.00    +0.387 N 
ATOM      3  C   UNL     1      33.168  -4.763 -26.698  0.00  0.00    +0.061 C 
ATOM      4  C   UNL     1      34.052  -3.568 -27.085  0.00  0.00    +0.010 C 
ATOM      5  C   UNL     1      35.473  -4.140 -27.401  0.00  0.00    -0.049 C 
ATOM      6  C   UNL     1      31.794  -4.463 -26.056  0.00  0.00    +0.200 C 
ATOM      7  C   UNL     1      33.071  -5.734 -27.892  0.00  0.00    -0.015 C 
ATOM      8  C   UNL     1      33.790  -5.449 -25.527  0.00  0.00    +0.014 C 
ATOM      9  C   UNL     1      36.122  -4.863 -26.170  0.00  0.00    +0.006 C 
ATOM     10  C   UNL     1      34.448  -6.132 -28.447  0.00  0.00    -0.077 C 
ATOM     11  C   UNL     1      35.144  -5.574 -25.274  0.00  0.00    -0.025 C 
ATOM     12  C   UNL     1      31.644  -3.020 -25.505  0.00  0.00    +0.172 C 
ATOM     13  C   UNL     1      34.028  -2.494 -26.027  0.00  0.00    -0.030 C 
ATOM     14  C   UNL     1      32.827  -5.866 -24.636  0.00  0.00    +0.168 C 
ATOM     15  C   UNL     1      32.929  -2.263 -25.296  0.00  0.00    +0.002 C 
ATOM     16  C   UNL     1      35.515  -6.267 -24.120  0.00  0.00    -0.001 C 
ATOM     17  C   UNL     1      36.615  -5.371 -29.198  0.00  0.00    -0.101 C 
ATOM     18  C   UNL     1      33.168  -6.559 -23.496  0.00  0.00    +0.172 C 
ATOM     19  C   UNL     1      34.530  -6.773 -23.249  0.00  0.00    +0.040 C 
ATOM     20  H   UNL     1      34.881  -4.362 -29.290  0.00  0.00    -0.080 HD
ENDROOT
BRANCH  12  21
ATOM     21  O   UNL     1      30.876  -3.036 -24.304  0.00  0.00    -0.377 OA
ATOM     22  H   UNL     1      31.336  -3.566 -23.634  0.00  0.00    +0.211 HD
ENDBRANCH  12  21
BRANCH  18  23
ATOM     23  O   UNL     1      32.228  -6.992 -22.620  0.00  0.00    -0.468 OA
BRANCH  23  24
ATOM     24  C   UNL     1      31.890  -8.380 -22.654  0.00  0.00    +0.232 C 
BRANCH  24  25
ATOM     25  C   UNL     1      31.802  -8.965 -21.285  0.00  0.00    +0.021 C 
ATOM     26  C   UNL     1      31.920  -8.142 -20.165  0.00  0.00    -0.001 C 
ATOM     27  C   UNL     1      31.602 -10.337 -21.124  0.00  0.00    -0.001 C 
ATOM     28  C   UNL     1      31.838  -8.689 -18.885  0.00  0.00    -0.000 C 
ATOM     29  C   UNL     1      31.521 -10.884 -19.844  0.00  0.00    -0.000 C 
ATOM     30  C   UNL     1      31.638 -10.060 -18.725  0.00  0.00    -0.000 C 
ENDBRANCH  24  25
ENDBRANCH  23  24
ENDBRANCH  18  23
TORSDOF 4
ENDMDL
