MODEL 1
REMARK VINA RESULT:     -11.4      0.000      0.000
REMARK  Name = 2079916
REMARK  5 active torsions:
REMARK  status: ('A' for Active; 'I' for Inactive)
REMARK    1  A    between atoms: C_4  and  C_10
REMARK    2  A    between atoms: C_5  and  S_15
REMARK    3  A    between atoms: S_15  and  C_16
REMARK    4  A    between atoms: C_16  and  C_18
REMARK    5  A    between atoms: C_21  and  O_24
REMARK                            x       y       z     vdW  Elec       q    Type
REMARK                         _______ _______ _______ _____ _____    ______ ____
ROOT
ATOM      1  O   UNL     1      35.095 -18.170 -21.002  0.00  0.00    -0.411 OA
ATOM      2  N   UNL     1      34.785 -19.681 -22.621  0.00  0.00    -0.106 NA
ATOM      3  N   UNL     1      34.891 -18.436 -23.213  0.00  0.00    -0.101 NA
ATOM      4  C   UNL     1      34.911 -19.471 -21.338  0.00  0.00    +0.251 A 
ATOM      5  C   UNL     1      35.070 -17.585 -22.231  0.00  0.00    +0.279 A 
ENDROOT
BRANCH   4  10
ATOM      6  O   UNL     1      32.605 -22.393 -18.161  0.00  0.00    -0.435 OA
ATOM      7  O   UNL     1      34.670 -23.052 -17.107  0.00  0.00    -0.435 OA
ATOM      8  C   UNL     1      33.689 -21.798 -18.730  0.00  0.00    +0.177 C 
ATOM      9  C   UNL     1      34.867 -22.174 -18.128  0.00  0.00    +0.176 C 
ATOM     10  C   UNL     1      34.884 -20.402 -20.235  0.00  0.00    +0.058 C 
ATOM     11  C   UNL     1      33.663 -20.912 -19.788  0.00  0.00    +0.045 C 
ATOM     12  C   UNL     1      36.087 -21.685 -18.550  0.00  0.00    +0.040 C 
ATOM     13  C   UNL     1      36.089 -20.786 -19.621  0.00  0.00    +0.008 C 
ATOM     14  C   UNL     1      33.234 -23.186 -17.134  0.00  0.00    +0.429 C 
ENDBRANCH   4  10
BRANCH   5  15
ATOM     15  S   UNL     1      35.259 -15.872 -22.462  0.00  0.00    -0.050 S 
BRANCH  15  16
ATOM     16  C   UNL     1      34.500 -15.233 -20.943  0.00  0.00    +0.093 C 
BRANCH  16  18
ATOM     17  F   UNL     1      33.023 -11.555 -23.764  0.00  0.00    -0.201 F 
ATOM     18  C   UNL     1      33.587 -14.069 -21.212  0.00  0.00    -0.008 C 
ATOM     19  C   UNL     1      33.732 -13.341 -22.385  0.00  0.00    +0.029 C 
ATOM     20  C   UNL     1      32.610 -13.736 -20.282  0.00  0.00    -0.000 C 
ATOM     21  C   UNL     1      31.902 -11.918 -21.706  0.00  0.00    +0.166 C 
ATOM     22  C   UNL     1      32.886 -12.260 -22.633  0.00  0.00    +0.174 C 
ATOM     23  C   UNL     1      31.764 -12.656 -20.530  0.00  0.00    +0.039 C 
BRANCH  21  24
ATOM     24  O   UNL     1      31.077 -10.863 -21.945  0.00  0.00    -0.469 OA
ATOM     25  C   UNL     1      31.518  -9.579 -21.503  0.00  0.00    +0.253 C 
ENDBRANCH  21  24
ENDBRANCH  16  18
ENDBRANCH  15  16
ENDBRANCH   5  15
TORSDOF 5
ENDMDL
MODEL 2
REMARK VINA RESULT:     -11.1      2.958      9.114
REMARK  Name = 2079916
REMARK  5 active torsions:
REMARK  status: ('A' for Active; 'I' for Inactive)
REMARK    1  A    between atoms: C_4  and  C_10
REMARK    2  A    between atoms: C_5  and  S_15
REMARK    3  A    between atoms: S_15  and  C_16
REMARK    4  A    between atoms: C_16  and  C_18
REMARK    5  A    between atoms: C_21  and  O_24
REMARK                            x       y       z     vdW  Elec       q    Type
REMARK                         _______ _______ _______ _____ _____    ______ ____
ROOT
ATOM      1  O   UNL     1      34.421 -16.002 -22.967  0.00  0.00    -0.411 OA
ATOM      2  N   UNL     1      33.999 -15.616 -25.129  0.00  0.00    -0.106 NA
ATOM      3  N   UNL     1      34.521 -16.891 -25.017  0.00  0.00    -0.101 NA
ATOM      4  C   UNL     1      33.961 -15.144 -23.913  0.00  0.00    +0.251 A 
ATOM      5  C   UNL     1      34.753 -17.073 -23.738  0.00  0.00    +0.279 A 
ENDROOT
BRANCH   4  10
ATOM      6  O   UNL     1      31.485 -12.296 -20.797  0.00  0.00    -0.435 OA
ATOM      7  O   UNL     1      32.157 -10.283 -21.937  0.00  0.00    -0.435 OA
ATOM      8  C   UNL     1      32.283 -12.552 -21.869  0.00  0.00    +0.177 C 
ATOM      9  C   UNL     1      32.667 -11.403 -22.520  0.00  0.00    +0.176 C 
ATOM     10  C   UNL     1      33.510 -13.863 -23.424  0.00  0.00    +0.058 C 
ATOM     11  C   UNL     1      32.689 -13.800 -22.297  0.00  0.00    +0.045 C 
ATOM     12  C   UNL     1      33.478 -11.436 -23.636  0.00  0.00    +0.040 C 
ATOM     13  C   UNL     1      33.903 -12.688 -24.090  0.00  0.00    +0.008 C 
ATOM     14  C   UNL     1      31.410 -10.857 -20.846  0.00  0.00    +0.429 C 
ENDBRANCH   4  10
BRANCH   5  15
ATOM     15  S   UNL     1      35.418 -18.537 -23.078  0.00  0.00    -0.050 S 
BRANCH  15  16
ATOM     16  C   UNL     1      35.260 -18.217 -21.299  0.00  0.00    +0.093 C 
BRANCH  16  18
ATOM     17  F   UNL     1      37.012 -21.934 -18.695  0.00  0.00    -0.201 F 
ATOM     18  C   UNL     1      35.054 -19.481 -20.512  0.00  0.00    -0.008 C 
ATOM     19  C   UNL     1      36.149 -20.130 -19.958  0.00  0.00    +0.029 C 
ATOM     20  C   UNL     1      33.769 -19.984 -20.350  0.00  0.00    -0.000 C 
ATOM     21  C   UNL     1      34.671 -21.818 -19.062  0.00  0.00    +0.166 C 
ATOM     22  C   UNL     1      35.957 -21.304 -19.230  0.00  0.00    +0.174 C 
ATOM     23  C   UNL     1      33.577 -21.157 -19.621  0.00  0.00    +0.039 C 
BRANCH  21  24
ATOM     24  O   UNL     1      34.482 -22.964 -18.353  0.00  0.00    -0.469 OA
ATOM     25  C   UNL     1      33.341 -23.017 -17.497  0.00  0.00    +0.253 C 
ENDBRANCH  21  24
ENDBRANCH  16  18
ENDBRANCH  15  16
ENDBRANCH   5  15
TORSDOF 5
ENDMDL
MODEL 3
REMARK VINA RESULT:     -11.0      2.540      9.241
REMARK  Name = 2079916
REMARK  5 active torsions:
REMARK  status: ('A' for Active; 'I' for Inactive)
REMARK    1  A    between atoms: C_4  and  C_10
REMARK    2  A    between atoms: C_5  and  S_15
REMARK    3  A    between atoms: S_15  and  C_16
REMARK    4  A    between atoms: C_16  and  C_18
REMARK    5  A    between atoms: C_21  and  O_24
REMARK                            x       y       z     vdW  Elec       q    Type
REMARK                         _______ _______ _______ _____ _____    ______ ____
ROOT
ATOM      1  O   UNL     1      34.679 -15.640 -22.555  0.00  0.00    -0.411 OA
ATOM      2  N   UNL     1      34.597 -15.132 -20.378  0.00  0.00    -0.106 NA
ATOM      3  N   UNL     1      35.160 -16.389 -20.502  0.00  0.00    -0.101 NA
ATOM      4  C   UNL     1      34.337 -14.742 -21.597  0.00  0.00    +0.251 A 
ATOM      5  C   UNL     1      35.188 -16.644 -21.789  0.00  0.00    +0.279 A 
ENDROOT
BRANCH   4  10
ATOM      6  O   UNL     1      31.117 -11.066 -21.335  0.00  0.00    -0.435 OA
ATOM      7  O   UNL     1      31.977 -10.030 -23.334  0.00  0.00    -0.435 OA
ATOM      8  C   UNL     1      32.151 -11.766 -21.876  0.00  0.00    +0.177 C 
ATOM      9  C   UNL     1      32.642 -11.175 -23.017  0.00  0.00    +0.176 C 
ATOM     10  C   UNL     1      33.747 -13.515 -22.076  0.00  0.00    +0.058 C 
ATOM     11  C   UNL     1      32.683 -12.939 -21.378  0.00  0.00    +0.045 C 
ATOM     12  C   UNL     1      33.692 -11.723 -23.724  0.00  0.00    +0.040 C 
ATOM     13  C   UNL     1      34.249 -12.911 -23.242  0.00  0.00    +0.008 C 
ATOM     14  C   UNL     1      31.013  -9.967 -22.263  0.00  0.00    +0.429 C 
ENDBRANCH   4  10
BRANCH   5  15
ATOM     15  S   UNL     1      35.812 -18.119 -22.466  0.00  0.00    -0.050 S 
BRANCH  15  16
ATOM     16  C   UNL     1      36.543 -18.891 -20.996  0.00  0.00    +0.093 C 
BRANCH  16  18
ATOM     17  F   UNL     1      32.080 -20.704 -20.311  0.00  0.00    -0.201 F 
ATOM     18  C   UNL     1      35.613 -19.884 -20.355  0.00  0.00    -0.008 C 
ATOM     19  C   UNL     1      34.254 -19.832 -20.638  0.00  0.00    +0.029 C 
ATOM     20  C   UNL     1      36.125 -20.839 -19.487  0.00  0.00    -0.000 C 
ATOM     21  C   UNL     1      33.896 -21.715 -19.168  0.00  0.00    +0.166 C 
ATOM     22  C   UNL     1      33.392 -20.752 -20.041  0.00  0.00    +0.174 C 
ATOM     23  C   UNL     1      35.263 -21.759 -18.891  0.00  0.00    +0.039 C 
BRANCH  21  24
ATOM     24  O   UNL     1      33.056 -22.613 -18.584  0.00  0.00    -0.469 OA
ATOM     25  C   UNL     1      33.493 -23.213 -17.364  0.00  0.00    +0.253 C 
ENDBRANCH  21  24
ENDBRANCH  16  18
ENDBRANCH  15  16
ENDBRANCH   5  15
TORSDOF 5
ENDMDL
MODEL 4
REMARK VINA RESULT:     -10.9      1.678      2.143
REMARK  Name = 2079916
REMARK  5 active torsions:
REMARK  status: ('A' for Active; 'I' for Inactive)
REMARK    1  A    between atoms: C_4  and  C_10
REMARK    2  A    between atoms: C_5  and  S_15
REMARK    3  A    between atoms: S_15  and  C_16
REMARK    4  A    between atoms: C_16  and  C_18
REMARK    5  A    between atoms: C_21  and  O_24
REMARK                            x       y       z     vdW  Elec       q    Type
REMARK                         _______ _______ _______ _____ _____    ______ ____
ROOT
ATOM      1  O   UNL     1      34.511 -19.543 -21.900  0.00  0.00    -0.411 OA
ATOM      2  N   UNL     1      36.528 -18.853 -21.223  0.00  0.00    -0.106 NA
ATOM      3  N   UNL     1      36.215 -18.178 -22.389  0.00  0.00    -0.101 NA
ATOM      4  C   UNL     1      35.507 -19.631 -20.983  0.00  0.00    +0.251 A 
ATOM      5  C   UNL     1      35.030 -18.613 -22.748  0.00  0.00    +0.279 A 
ENDROOT
BRANCH   4  10
ATOM      6  O   UNL     1      32.640 -22.467 -18.210  0.00  0.00    -0.435 OA
ATOM      7  O   UNL     1      34.496 -23.205 -16.861  0.00  0.00    -0.435 OA
ATOM      8  C   UNL     1      33.819 -21.913 -18.605  0.00  0.00    +0.177 C 
ATOM      9  C   UNL     1      34.878 -22.334 -17.835  0.00  0.00    +0.176 C 
ATOM     10  C   UNL     1      35.279 -20.561 -19.903  0.00  0.00    +0.058 C 
ATOM     11  C   UNL     1      33.987 -21.026 -19.649  0.00  0.00    +0.045 C 
ATOM     12  C   UNL     1      36.165 -21.892 -18.065  0.00  0.00    +0.040 C 
ATOM     13  C   UNL     1      36.362 -20.992 -19.116  0.00  0.00    +0.008 C 
ATOM     14  C   UNL     1      33.077 -23.285 -17.105  0.00  0.00    +0.429 C 
ENDBRANCH   4  10
BRANCH   5  15
ATOM     15  S   UNL     1      34.191 -18.062 -24.167  0.00  0.00    -0.050 S 
BRANCH  15  16
ATOM     16  C   UNL     1      35.005 -16.466 -24.451  0.00  0.00    +0.093 C 
BRANCH  16  18
ATOM     17  F   UNL     1      34.463 -13.877 -20.367  0.00  0.00    -0.201 F 
ATOM     18  C   UNL     1      34.353 -15.352 -23.679  0.00  0.00    -0.008 C 
ATOM     19  C   UNL     1      34.719 -15.127 -22.358  0.00  0.00    +0.029 C 
ATOM     20  C   UNL     1      33.392 -14.563 -24.296  0.00  0.00    -0.000 C 
ATOM     21  C   UNL     1      33.146 -13.298 -22.253  0.00  0.00    +0.166 C 
ATOM     22  C   UNL     1      34.113 -14.096 -21.642  0.00  0.00    +0.174 C 
ATOM     23  C   UNL     1      32.786 -13.531 -23.580  0.00  0.00    +0.039 C 
BRANCH  21  24
ATOM     24  O   UNL     1      32.552 -12.291 -21.555  0.00  0.00    -0.469 OA
ATOM     25  C   UNL     1      32.070 -11.177 -22.306  0.00  0.00    +0.253 C 
ENDBRANCH  21  24
ENDBRANCH  16  18
ENDBRANCH  15  16
ENDBRANCH   5  15
TORSDOF 5
ENDMDL
MODEL 5
REMARK VINA RESULT:     -10.9      5.028     10.195
REMARK  Name = 2079916
REMARK  5 active torsions:
REMARK  status: ('A' for Active; 'I' for Inactive)
REMARK    1  A    between atoms: C_4  and  C_10
REMARK    2  A    between atoms: C_5  and  S_15
REMARK    3  A    between atoms: S_15  and  C_16
REMARK    4  A    between atoms: C_16  and  C_18
REMARK    5  A    between atoms: C_21  and  O_24
REMARK                            x       y       z     vdW  Elec       q    Type
REMARK                         _______ _______ _______ _____ _____    ______ ____
ROOT
ATOM      1  O   UNL     1      35.221 -20.096 -20.751  0.00  0.00    -0.411 OA
ATOM      2  N   UNL     1      36.907 -18.650 -20.489  0.00  0.00    -0.106 NA
ATOM      3  N   UNL     1      37.027 -19.627 -19.518  0.00  0.00    -0.101 NA
ATOM      4  C   UNL     1      35.844 -18.969 -21.178  0.00  0.00    +0.251 A 
ATOM      5  C   UNL     1      36.022 -20.449 -19.708  0.00  0.00    +0.279 A 
ENDROOT
BRANCH   4  10
ATOM      6  O   UNL     1      34.527 -15.001 -23.720  0.00  0.00    -0.435 OA
ATOM      7  O   UNL     1      33.541 -16.324 -25.477  0.00  0.00    -0.435 OA
ATOM      8  C   UNL     1      34.634 -16.337 -23.483  0.00  0.00    +0.177 C 
ATOM      9  C   UNL     1      34.070 -17.092 -24.485  0.00  0.00    +0.176 C 
ATOM     10  C   UNL     1      35.238 -18.313 -22.311  0.00  0.00    +0.058 C 
ATOM     11  C   UNL     1      35.227 -16.918 -22.380  0.00  0.00    +0.045 C 
ATOM     12  C   UNL     1      34.068 -18.471 -24.441  0.00  0.00    +0.040 C 
ATOM     13  C   UNL     1      34.662 -19.085 -23.335  0.00  0.00    +0.008 C 
ATOM     14  C   UNL     1      33.835 -15.000 -24.985  0.00  0.00    +0.429 C 
ENDBRANCH   4  10
BRANCH   5  15
ATOM     15  S   UNL     1      35.730 -21.857 -18.732  0.00  0.00    -0.050 S 
BRANCH  15  16
ATOM     16  C   UNL     1      36.842 -21.543 -17.333  0.00  0.00    +0.093 C 
BRANCH  16  18
ATOM     17  F   UNL     1      38.239 -24.162 -13.477  0.00  0.00    -0.201 F 
ATOM     18  C   UNL     1      36.519 -22.409 -16.147  0.00  0.00    -0.008 C 
ATOM     19  C   UNL     1      37.548 -22.890 -15.348  0.00  0.00    +0.029 C 
ATOM     20  C   UNL     1      35.195 -22.720 -15.866  0.00  0.00    -0.000 C 
ATOM     21  C   UNL     1      35.922 -24.013 -13.960  0.00  0.00    +0.166 C 
ATOM     22  C   UNL     1      37.248 -23.696 -14.250  0.00  0.00    +0.174 C 
ATOM     23  C   UNL     1      34.895 -23.524 -14.768  0.00  0.00    +0.039 C 
BRANCH  21  24
ATOM     24  O   UNL     1      35.627 -24.800 -12.889  0.00  0.00    -0.469 OA
ATOM     25  C   UNL     1      35.427 -24.144 -11.636  0.00  0.00    +0.253 C 
ENDBRANCH  21  24
ENDBRANCH  16  18
ENDBRANCH  15  16
ENDBRANCH   5  15
TORSDOF 5
ENDMDL
MODEL 6
REMARK VINA RESULT:     -10.8      4.577      9.371
REMARK  Name = 2079916
REMARK  5 active torsions:
REMARK  status: ('A' for Active; 'I' for Inactive)
REMARK    1  A    between atoms: C_4  and  C_10
REMARK    2  A    between atoms: C_5  and  S_15
REMARK    3  A    between atoms: S_15  and  C_16
REMARK    4  A    between atoms: C_16  and  C_18
REMARK    5  A    between atoms: C_21  and  O_24
REMARK                            x       y       z     vdW  Elec       q    Type
REMARK                         _______ _______ _______ _____ _____    ______ ____
ROOT
ATOM      1  O   UNL     1      35.436 -20.146 -20.644  0.00  0.00    -0.411 OA
ATOM      2  N   UNL     1      37.057 -18.617 -20.461  0.00  0.00    -0.106 NA
ATOM      3  N   UNL     1      37.250 -19.563 -19.472  0.00  0.00    -0.101 NA
ATOM      4  C   UNL     1      35.993 -19.001 -21.113  0.00  0.00    +0.251 A 
ATOM      5  C   UNL     1      36.281 -20.436 -19.616  0.00  0.00    +0.279 A 
ENDROOT
BRANCH   4  10
ATOM      6  O   UNL     1      34.465 -15.160 -23.731  0.00  0.00    -0.435 OA
ATOM      7  O   UNL     1      33.454 -16.569 -25.405  0.00  0.00    -0.435 OA
ATOM      8  C   UNL     1      34.620 -16.484 -23.455  0.00  0.00    +0.177 C 
ATOM      9  C   UNL     1      34.043 -17.288 -24.410  0.00  0.00    +0.176 C 
ATOM     10  C   UNL     1      35.325 -18.401 -22.243  0.00  0.00    +0.058 C 
ATOM     11  C   UNL     1      35.270 -17.010 -22.357  0.00  0.00    +0.045 C 
ATOM     12  C   UNL     1      34.083 -18.664 -24.321  0.00  0.00    +0.040 C 
ATOM     13  C   UNL     1      34.736 -19.224 -23.219  0.00  0.00    +0.008 C 
ATOM     14  C   UNL     1      33.726 -15.222 -24.968  0.00  0.00    +0.429 C 
ENDBRANCH   4  10
BRANCH   5  15
ATOM     15  S   UNL     1      36.083 -21.833 -18.602  0.00  0.00    -0.050 S 
BRANCH  15  16
ATOM     16  C   UNL     1      34.300 -22.130 -18.767  0.00  0.00    +0.093 C 
BRANCH  16  18
ATOM     17  F   UNL     1      30.375 -22.812 -15.974  0.00  0.00    -0.201 F 
ATOM     18  C   UNL     1      33.671 -22.540 -17.464  0.00  0.00    -0.008 C 
ATOM     19  C   UNL     1      32.290 -22.486 -17.323  0.00  0.00    +0.029 C 
ATOM     20  C   UNL     1      34.478 -22.965 -16.418  0.00  0.00    -0.000 C 
ATOM     21  C   UNL     1      32.509 -23.291 -15.057  0.00  0.00    +0.166 C 
ATOM     22  C   UNL     1      31.707 -22.863 -16.114  0.00  0.00    +0.174 C 
ATOM     23  C   UNL     1      33.895 -23.343 -15.209  0.00  0.00    +0.039 C 
BRANCH  21  24
ATOM     24  O   UNL     1      31.942 -23.659 -13.875  0.00  0.00    -0.469 OA
ATOM     25  C   UNL     1      31.646 -25.044 -13.700  0.00  0.00    +0.253 C 
ENDBRANCH  21  24
ENDBRANCH  16  18
ENDBRANCH  15  16
ENDBRANCH   5  15
TORSDOF 5
ENDMDL
MODEL 7
REMARK VINA RESULT:     -10.8      2.850      9.547
REMARK  Name = 2079916
REMARK  5 active torsions:
REMARK  status: ('A' for Active; 'I' for Inactive)
REMARK    1  A    between atoms: C_4  and  C_10
REMARK    2  A    between atoms: C_5  and  S_15
REMARK    3  A    between atoms: S_15  and  C_16
REMARK    4  A    between atoms: C_16  and  C_18
REMARK    5  A    between atoms: C_21  and  O_24
REMARK                            x       y       z     vdW  Elec       q    Type
REMARK                         _______ _______ _______ _____ _____    ______ ____
ROOT
ATOM      1  O   UNL     1      34.661 -15.639 -21.725  0.00  0.00    -0.411 OA
ATOM      2  N   UNL     1      34.431 -15.625 -23.950  0.00  0.00    -0.106 NA
ATOM      3  N   UNL     1      35.108 -16.778 -23.598  0.00  0.00    -0.101 NA
ATOM      4  C   UNL     1      34.194 -15.001 -22.828  0.00  0.00    +0.251 A 
ATOM      5  C   UNL     1      35.221 -16.744 -22.291  0.00  0.00    +0.279 A 
ENDROOT
BRANCH   4  10
ATOM      6  O   UNL     1      33.048 -10.379 -23.959  0.00  0.00    -0.435 OA
ATOM      7  O   UNL     1      31.661 -10.134 -22.004  0.00  0.00    -0.435 OA
ATOM      8  C   UNL     1      33.013 -11.511 -23.204  0.00  0.00    +0.177 C 
ATOM      9  C   UNL     1      32.221 -11.371 -22.088  0.00  0.00    +0.176 C 
ATOM     10  C   UNL     1      33.520 -13.748 -22.584  0.00  0.00    +0.058 C 
ATOM     11  C   UNL     1      33.677 -12.690 -23.482  0.00  0.00    +0.045 C 
ATOM     12  C   UNL     1      32.049 -12.401 -21.186  0.00  0.00    +0.040 C 
ATOM     13  C   UNL     1      32.710 -13.605 -21.443  0.00  0.00    +0.008 C 
ATOM     14  C   UNL     1      32.189  -9.511 -23.193  0.00  0.00    +0.429 C 
ENDBRANCH   4  10
BRANCH   5  15
ATOM     15  S   UNL     1      36.005 -17.983 -21.358  0.00  0.00    -0.050 S 
BRANCH  15  16
ATOM     16  C   UNL     1      34.912 -19.397 -21.675  0.00  0.00    +0.093 C 
BRANCH  16  18
ATOM     17  F   UNL     1      37.027 -21.972 -18.130  0.00  0.00    -0.201 F 
ATOM     18  C   UNL     1      34.825 -20.322 -20.492  0.00  0.00    -0.008 C 
ATOM     19  C   UNL     1      35.988 -20.723 -19.849  0.00  0.00    +0.029 C 
ATOM     20  C   UNL     1      33.582 -20.765 -20.061  0.00  0.00    -0.000 C 
ATOM     21  C   UNL     1      34.663 -22.034 -18.312  0.00  0.00    +0.166 C 
ATOM     22  C   UNL     1      35.906 -21.583 -18.754  0.00  0.00    +0.174 C 
ATOM     23  C   UNL     1      33.500 -21.625 -18.965  0.00  0.00    +0.039 C 
BRANCH  21  24
ATOM     24  O   UNL     1      34.581 -22.874 -17.245  0.00  0.00    -0.469 OA
ATOM     25  C   UNL     1      33.286 -23.371 -16.907  0.00  0.00    +0.253 C 
ENDBRANCH  21  24
ENDBRANCH  16  18
ENDBRANCH  15  16
ENDBRANCH   5  15
TORSDOF 5
ENDMDL
MODEL 8
REMARK VINA RESULT:     -10.6      5.059      7.329
REMARK  Name = 2079916
REMARK  5 active torsions:
REMARK  status: ('A' for Active; 'I' for Inactive)
REMARK    1  A    between atoms: C_4  and  C_10
REMARK    2  A    between atoms: C_5  and  S_15
REMARK    3  A    between atoms: S_15  and  C_16
REMARK    4  A    between atoms: C_16  and  C_18
REMARK    5  A    between atoms: C_21  and  O_24
REMARK                            x       y       z     vdW  Elec       q    Type
REMARK                         _______ _______ _______ _____ _____    ______ ____
ROOT
ATOM      1  O   UNL     1      33.765 -22.634 -16.525  0.00  0.00    -0.411 OA
ATOM      2  N   UNL     1      34.300 -24.051 -14.879  0.00  0.00    -0.106 NA
ATOM      3  N   UNL     1      35.474 -23.607 -15.459  0.00  0.00    -0.101 NA
ATOM      4  C   UNL     1      33.339 -23.456 -15.533  0.00  0.00    +0.251 A 
ATOM      5  C   UNL     1      35.114 -22.784 -16.415  0.00  0.00    +0.279 A 
ENDROOT
BRANCH   4  10
ATOM      6  O   UNL     1      28.746 -22.140 -16.591  0.00  0.00    -0.435 OA
ATOM      7  O   UNL     1      27.823 -23.676 -14.979  0.00  0.00    -0.435 OA
ATOM      8  C   UNL     1      29.710 -22.844 -15.937  0.00  0.00    +0.177 C 
ATOM      9  C   UNL     1      29.183 -23.721 -15.017  0.00  0.00    +0.176 C 
ATOM     10  C   UNL     1      31.908 -23.539 -15.364  0.00  0.00    +0.058 C 
ATOM     11  C   UNL     1      31.071 -22.729 -16.135  0.00  0.00    +0.045 C 
ATOM     12  C   UNL     1      29.987 -24.532 -14.243  0.00  0.00    +0.040 C 
ATOM     13  C   UNL     1      31.370 -24.435 -14.424  0.00  0.00    +0.008 C 
ATOM     14  C   UNL     1      27.553 -22.672 -15.980  0.00  0.00    +0.429 C 
ENDBRANCH   4  10
BRANCH   5  15
ATOM     15  S   UNL     1      36.239 -21.955 -17.449  0.00  0.00    -0.050 S 
BRANCH  15  16
ATOM     16  C   UNL     1      35.409 -22.108 -19.055  0.00  0.00    +0.093 C 
BRANCH  16  18
ATOM     17  F   UNL     1      37.918 -18.503 -21.148  0.00  0.00    -0.201 F 
ATOM     18  C   UNL     1      35.460 -20.828 -19.843  0.00  0.00    -0.008 C 
ATOM     19  C   UNL     1      36.688 -20.251 -20.136  0.00  0.00    +0.029 C 
ATOM     20  C   UNL     1      34.276 -20.238 -20.266  0.00  0.00    -0.000 C 
ATOM     21  C   UNL     1      35.551 -18.462 -21.294  0.00  0.00    +0.166 C 
ATOM     22  C   UNL     1      36.734 -19.063 -20.864  0.00  0.00    +0.174 C 
ATOM     23  C   UNL     1      34.322 -19.050 -20.996  0.00  0.00    +0.039 C 
BRANCH  21  24
ATOM     24  O   UNL     1      35.594 -17.302 -22.004  0.00  0.00    -0.469 OA
ATOM     25  C   UNL     1      35.038 -17.324 -23.319  0.00  0.00    +0.253 C 
ENDBRANCH  21  24
ENDBRANCH  16  18
ENDBRANCH  15  16
ENDBRANCH   5  15
TORSDOF 5
ENDMDL
MODEL 9
REMARK VINA RESULT:     -10.5      5.059     10.051
REMARK  Name = 2079916
REMARK  5 active torsions:
REMARK  status: ('A' for Active; 'I' for Inactive)
REMARK    1  A    between atoms: C_4  and  C_10
REMARK    2  A    between atoms: C_5  and  S_15
REMARK    3  A    between atoms: S_15  and  C_16
REMARK    4  A    between atoms: C_16  and  C_18
REMARK    5  A    between atoms: C_21  and  O_24
REMARK                            x       y       z     vdW  Elec       q    Type
REMARK                         _______ _______ _______ _____ _____    ______ ____
ROOT
ATOM      1  O   UNL     1      34.378 -20.656 -20.469  0.00  0.00    -0.411 OA
ATOM      2  N   UNL     1      36.377 -19.802 -19.945  0.00  0.00    -0.106 NA
ATOM      3  N   UNL     1      36.095 -20.812 -19.044  0.00  0.00    -0.101 NA
ATOM      4  C   UNL     1      35.351 -19.753 -20.750  0.00  0.00    +0.251 A 
ATOM      5  C   UNL     1      34.918 -21.281 -19.387  0.00  0.00    +0.279 A 
ENDROOT
BRANCH   4  10
ATOM      6  O   UNL     1      35.298 -15.403 -22.991  0.00  0.00    -0.435 OA
ATOM      7  O   UNL     1      34.407 -16.342 -25.023  0.00  0.00    -0.435 OA
ATOM      8  C   UNL     1      35.102 -16.746 -22.896  0.00  0.00    +0.177 C 
ATOM      9  C   UNL     1      34.593 -17.282 -24.057  0.00  0.00    +0.176 C 
ATOM     10  C   UNL     1      35.094 -18.894 -21.881  0.00  0.00    +0.058 C 
ATOM     11  C   UNL     1      35.364 -17.527 -21.789  0.00  0.00    +0.045 C 
ATOM     12  C   UNL     1      34.318 -18.629 -24.175  0.00  0.00    +0.040 C 
ATOM     13  C   UNL     1      34.575 -19.442 -23.067  0.00  0.00    +0.008 C 
ATOM     14  C   UNL     1      34.857 -15.153 -24.341  0.00  0.00    +0.429 C 
ENDBRANCH   4  10
BRANCH   5  15
ATOM     15  S   UNL     1      34.116 -22.576 -18.550  0.00  0.00    -0.050 S 
BRANCH  15  16
ATOM     16  C   UNL     1      35.046 -22.610 -16.993  0.00  0.00    +0.093 C 
BRANCH  16  18
ATOM     17  F   UNL     1      34.640 -24.401 -12.487  0.00  0.00    -0.201 F 
ATOM     18  C   UNL     1      34.207 -23.091 -15.842  0.00  0.00    -0.008 C 
ATOM     19  C   UNL     1      34.825 -23.529 -14.678  0.00  0.00    +0.029 C 
ATOM     20  C   UNL     1      32.823 -23.094 -15.958  0.00  0.00    -0.000 C 
ATOM     21  C   UNL     1      32.656 -23.985 -13.719  0.00  0.00    +0.166 C 
ATOM     22  C   UNL     1      34.046 -23.978 -13.612  0.00  0.00    +0.174 C 
ATOM     23  C   UNL     1      32.044 -23.542 -14.892  0.00  0.00    +0.039 C 
BRANCH  21  24
ATOM     24  O   UNL     1      31.893 -24.423 -12.680  0.00  0.00    -0.469 OA
ATOM     25  C   UNL     1      30.607 -24.955 -12.997  0.00  0.00    +0.253 C 
ENDBRANCH  21  24
ENDBRANCH  16  18
ENDBRANCH  15  16
ENDBRANCH   5  15
TORSDOF 5
ENDMDL
