MODEL 1
REMARK VINA RESULT:     -10.6      0.000      0.000
REMARK  Name = 9888484
REMARK  13 active torsions:
REMARK  status: ('A' for Active; 'I' for Inactive)
REMARK    1  A    between atoms: C_1  and  C_2
REMARK    2  A    between atoms: C_1  and  C_18
REMARK    3  A    between atoms: C_2  and  O_3
REMARK    4  A    between atoms: O_3  and  C_7
REMARK    5  A    between atoms: C_4  and  C_10
REMARK    6  A    between atoms: C_10  and  C_11
REMARK    7  A    between atoms: C_11  and  O_12
REMARK    8  A    between atoms: C_11  and  C_15
REMARK    9  A    between atoms: C_15  and  O_16
REMARK   10  A    between atoms: C_18  and  O_19
REMARK   11  A    between atoms: O_19  and  C_20
REMARK   12  A    between atoms: C_23  and  O_26
REMARK   13  A    between atoms: O_26  and  C_27
REMARK                            x       y       z     vdW  Elec       q    Type
REMARK                         _______ _______ _______ _____ _____    ______ ____
ROOT
ATOM      1  C   UNL     1      35.039 -17.544 -23.165  0.00  0.00    +0.095 C 
ENDROOT
BRANCH   1   2
ATOM      2  C   UNL     1      35.131 -18.958 -22.617  0.00  0.00    +0.209 C 
BRANCH   2   3
ATOM      3  O   UNL     1      35.412 -18.894 -21.225  0.00  0.00    -0.475 OA
BRANCH   3   7
ATOM      4  C   UNL     1      34.149 -22.101 -18.914  0.00  0.00    -0.019 C 
ATOM      5  C   UNL     1      35.510 -21.828 -19.041  0.00  0.00    -0.001 C 
ATOM      6  C   UNL     1      33.212 -21.298 -19.562  0.00  0.00    -0.001 C 
ATOM      7  C   UNL     1      34.995 -19.953 -20.461  0.00  0.00    +0.139 C 
ATOM      8  C   UNL     1      35.935 -20.749 -19.818  0.00  0.00    +0.037 C 
ATOM      9  C   UNL     1      33.637 -20.220 -20.339  0.00  0.00    +0.037 C 
BRANCH   4  10
ATOM     10  C   UNL     1      33.694 -23.254 -18.084  0.00  0.00    +0.067 C 
BRANCH  10  11
ATOM     11  C   UNL     1      33.749 -22.956 -16.576  0.00  0.00    +0.218 C 
BRANCH  11  12
ATOM     12  O   UNL     1      34.645 -23.877 -15.966  0.00  0.00    -0.342 OA
ATOM     13  C   UNL     1      35.732 -23.209 -15.341  0.00  0.00    +0.175 C 
ENDBRANCH  11  12
BRANCH  11  15
ATOM     14  O   UNL     1      32.203 -23.665 -14.838  0.00  0.00    -0.248 OA
ATOM     15  C   UNL     1      32.392 -23.141 -15.928  0.00  0.00    +0.342 C 
BRANCH  15  16
ATOM     16  O   UNL     1      31.388 -22.635 -16.689  0.00  0.00    -0.479 OA
ATOM     17  H   UNL     1      31.329 -21.711 -16.832  0.00  0.00    +0.295 HD
ENDBRANCH  15  16
ENDBRANCH  11  15
ENDBRANCH  10  11
ENDBRANCH   4  10
ENDBRANCH   3   7
ENDBRANCH   2   3
ENDBRANCH   1   2
BRANCH   1  18
ATOM     18  C   UNL     1      35.354 -16.500 -22.106  0.00  0.00    +0.209 C 
BRANCH  18  19
ATOM     19  O   UNL     1      35.267 -15.198 -22.670  0.00  0.00    -0.475 OA
BRANCH  19  20
ATOM     20  C   UNL     1      34.235 -14.406 -22.241  0.00  0.00    +0.139 C 
ATOM     21  C   UNL     1      34.036 -14.215 -20.879  0.00  0.00    +0.040 C 
ATOM     22  C   UNL     1      33.398 -13.800 -23.172  0.00  0.00    +0.040 C 
ATOM     23  C   UNL     1      32.142 -12.798 -21.369  0.00  0.00    +0.145 C 
ATOM     24  C   UNL     1      32.985 -13.409 -20.440  0.00  0.00    +0.041 C 
ATOM     25  C   UNL     1      32.348 -12.994 -22.734  0.00  0.00    +0.041 C 
BRANCH  23  26
ATOM     26  O   UNL     1      31.117 -12.010 -20.942  0.00  0.00    -0.453 OA
BRANCH  26  27
ATOM     27  C   UNL     1      31.427 -10.736 -20.495  0.00  0.00    +0.145 C 
ATOM     28  C   UNL     1      31.320 -10.451 -19.146  0.00  0.00    +0.037 C 
ATOM     29  C   UNL     1      31.836  -9.783 -21.409  0.00  0.00    +0.037 C 
ATOM     30  C   UNL     1      31.632  -9.168 -18.696  0.00  0.00    +0.003 C 
ATOM     31  C   UNL     1      32.149  -8.500 -20.959  0.00  0.00    +0.003 C 
ATOM     32  C   UNL     1      32.047  -8.193 -19.602  0.00  0.00    +0.000 C 
ENDBRANCH  26  27
ENDBRANCH  23  26
ENDBRANCH  19  20
ENDBRANCH  18  19
ENDBRANCH   1  18
TORSDOF 13
ENDMDL
MODEL 2
REMARK VINA RESULT:     -10.6      1.844     10.416
REMARK  Name = 9888484
REMARK  13 active torsions:
REMARK  status: ('A' for Active; 'I' for Inactive)
REMARK    1  A    between atoms: C_1  and  C_2
REMARK    2  A    between atoms: C_1  and  C_18
REMARK    3  A    between atoms: C_2  and  O_3
REMARK    4  A    between atoms: O_3  and  C_7
REMARK    5  A    between atoms: C_4  and  C_10
REMARK    6  A    between atoms: C_10  and  C_11
REMARK    7  A    between atoms: C_11  and  O_12
REMARK    8  A    between atoms: C_11  and  C_15
REMARK    9  A    between atoms: C_15  and  O_16
REMARK   10  A    between atoms: C_18  and  O_19
REMARK   11  A    between atoms: O_19  and  C_20
REMARK   12  A    between atoms: C_23  and  O_26
REMARK   13  A    between atoms: O_26  and  C_27
REMARK                            x       y       z     vdW  Elec       q    Type
REMARK                         _______ _______ _______ _____ _____    ______ ____
ROOT
ATOM      1  C   UNL     1      34.926 -19.422 -23.338  0.00  0.00    +0.095 C 
ENDROOT
BRANCH   1   2
ATOM      2  C   UNL     1      34.159 -18.328 -24.062  0.00  0.00    +0.209 C 
BRANCH   2   3
ATOM      3  O   UNL     1      35.033 -17.232 -24.294  0.00  0.00    -0.475 OA
BRANCH   3   7
ATOM      4  C   UNL     1      33.601 -13.461 -23.315  0.00  0.00    -0.019 C 
ATOM      5  C   UNL     1      34.512 -14.101 -22.474  0.00  0.00    -0.001 C 
ATOM      6  C   UNL     1      33.171 -14.088 -24.484  0.00  0.00    -0.001 C 
ATOM      7  C   UNL     1      34.561 -15.986 -23.970  0.00  0.00    +0.139 C 
ATOM      8  C   UNL     1      34.993 -15.368 -22.803  0.00  0.00    +0.037 C 
ATOM      9  C   UNL     1      33.653 -15.356 -24.813  0.00  0.00    +0.037 C 
BRANCH   4  10
ATOM     10  C   UNL     1      33.086 -12.106 -22.964  0.00  0.00    +0.067 C 
BRANCH  10  11
ATOM     11  C   UNL     1      31.718 -12.157 -22.263  0.00  0.00    +0.218 C 
BRANCH  11  12
ATOM     12  O   UNL     1      31.139 -10.859 -22.307  0.00  0.00    -0.342 OA
ATOM     13  C   UNL     1      31.995  -9.931 -22.959  0.00  0.00    +0.175 C 
ENDBRANCH  11  12
BRANCH  11  15
ATOM     14  O   UNL     1      32.147 -11.771 -19.900  0.00  0.00    -0.248 OA
ATOM     15  C   UNL     1      31.860 -12.544 -20.805  0.00  0.00    +0.342 C 
BRANCH  15  16
ATOM     16  O   UNL     1      31.610 -13.863 -20.598  0.00  0.00    -0.479 OA
ATOM     17  H   UNL     1      31.525 -14.443 -21.329  0.00  0.00    +0.295 HD
ENDBRANCH  15  16
ENDBRANCH  11  15
ENDBRANCH  10  11
ENDBRANCH   4  10
ENDBRANCH   3   7
ENDBRANCH   2   3
ENDBRANCH   1   2
BRANCH   1  18
ATOM     18  C   UNL     1      35.763 -18.871 -22.195  0.00  0.00    +0.209 C 
BRANCH  18  19
ATOM     19  O   UNL     1      34.961 -18.738 -21.029  0.00  0.00    -0.475 OA
BRANCH  19  20
ATOM     20  C   UNL     1      34.659 -19.890 -20.351  0.00  0.00    +0.139 C 
ATOM     21  C   UNL     1      35.685 -20.717 -19.910  0.00  0.00    +0.040 C 
ATOM     22  C   UNL     1      33.329 -20.220 -20.111  0.00  0.00    +0.040 C 
ATOM     23  C   UNL     1      34.047 -22.227 -18.975  0.00  0.00    +0.145 C 
ATOM     24  C   UNL     1      35.379 -21.890 -19.220  0.00  0.00    +0.041 C 
ATOM     25  C   UNL     1      33.023 -21.392 -19.421  0.00  0.00    +0.041 C 
BRANCH  23  26
ATOM     26  O   UNL     1      33.748 -23.371 -18.300  0.00  0.00    -0.453 OA
BRANCH  26  27
ATOM     27  C   UNL     1      33.408 -23.259 -16.963  0.00  0.00    +0.145 C 
ATOM     28  C   UNL     1      34.407 -23.299 -16.007  0.00  0.00    +0.037 C 
ATOM     29  C   UNL     1      32.078 -23.110 -16.616  0.00  0.00    +0.037 C 
ATOM     30  C   UNL     1      34.065 -23.188 -14.660  0.00  0.00    +0.003 C 
ATOM     31  C   UNL     1      31.735 -22.998 -15.269  0.00  0.00    +0.003 C 
ATOM     32  C   UNL     1      32.728 -23.036 -14.291  0.00  0.00    +0.000 C 
ENDBRANCH  26  27
ENDBRANCH  23  26
ENDBRANCH  19  20
ENDBRANCH  18  19
ENDBRANCH   1  18
TORSDOF 13
ENDMDL
MODEL 3
REMARK VINA RESULT:     -10.5      3.187      6.512
REMARK  Name = 9888484
REMARK  13 active torsions:
REMARK  status: ('A' for Active; 'I' for Inactive)
REMARK    1  A    between atoms: C_1  and  C_2
REMARK    2  A    between atoms: C_1  and  C_18
REMARK    3  A    between atoms: C_2  and  O_3
REMARK    4  A    between atoms: O_3  and  C_7
REMARK    5  A    between atoms: C_4  and  C_10
REMARK    6  A    between atoms: C_10  and  C_11
REMARK    7  A    between atoms: C_11  and  O_12
REMARK    8  A    between atoms: C_11  and  C_15
REMARK    9  A    between atoms: C_15  and  O_16
REMARK   10  A    between atoms: C_18  and  O_19
REMARK   11  A    between atoms: O_19  and  C_20
REMARK   12  A    between atoms: C_23  and  O_26
REMARK   13  A    between atoms: O_26  and  C_27
REMARK                            x       y       z     vdW  Elec       q    Type
REMARK                         _______ _______ _______ _____ _____    ______ ____
ROOT
ATOM      1  C   UNL     1      37.236 -22.352 -16.355  0.00  0.00    +0.095 C 
ENDROOT
BRANCH   1   2
ATOM      2  C   UNL     1      36.226 -22.967 -15.400  0.00  0.00    +0.209 C 
BRANCH   2   3
ATOM      3  O   UNL     1      35.208 -23.606 -16.158  0.00  0.00    -0.475 OA
BRANCH   3   7
ATOM      4  C   UNL     1      31.286 -22.825 -15.048  0.00  0.00    -0.019 C 
ATOM      5  C   UNL     1      31.636 -22.851 -16.398  0.00  0.00    -0.001 C 
ATOM      6  C   UNL     1      32.253 -23.059 -14.071  0.00  0.00    -0.001 C 
ATOM      7  C   UNL     1      33.912 -23.348 -15.792  0.00  0.00    +0.139 C 
ATOM      8  C   UNL     1      32.954 -23.114 -16.771  0.00  0.00    +0.037 C 
ATOM      9  C   UNL     1      33.571 -23.322 -14.445  0.00  0.00    +0.037 C 
BRANCH   4  10
ATOM     10  C   UNL     1      29.876 -22.543 -14.648  0.00  0.00    +0.067 C 
BRANCH  10  11
ATOM     11  C   UNL     1      28.897 -23.626 -15.131  0.00  0.00    +0.218 C 
BRANCH  11  12
ATOM     12  O   UNL     1      29.634 -24.812 -15.402  0.00  0.00    -0.342 OA
ATOM     13  C   UNL     1      29.570 -25.723 -14.314  0.00  0.00    +0.175 C 
ENDBRANCH  11  12
BRANCH  11  15
ATOM     14  O   UNL     1      28.030 -22.054 -16.772  0.00  0.00    -0.248 OA
ATOM     15  C   UNL     1      28.208 -23.212 -16.416  0.00  0.00    +0.342 C 
BRANCH  15  16
ATOM     16  O   UNL     1      27.819 -24.282 -17.156  0.00  0.00    -0.479 OA
ATOM     17  H   UNL     1      27.107 -24.818 -16.866  0.00  0.00    +0.295 HD
ENDBRANCH  15  16
ENDBRANCH  11  15
ENDBRANCH  10  11
ENDBRANCH   4  10
ENDBRANCH   3   7
ENDBRANCH   2   3
ENDBRANCH   1   2
BRANCH   1  18
ATOM     18  C   UNL     1      36.635 -21.216 -17.167  0.00  0.00    +0.209 C 
BRANCH  18  19
ATOM     19  O   UNL     1      36.228 -21.696 -18.441  0.00  0.00    -0.475 OA
BRANCH  19  20
ATOM     20  C   UNL     1      36.052 -20.761 -19.427  0.00  0.00    +0.139 C 
ATOM     21  C   UNL     1      34.803 -20.614 -20.020  0.00  0.00    +0.040 C 
ATOM     22  C   UNL     1      37.123 -19.969 -19.825  0.00  0.00    +0.040 C 
ATOM     23  C   UNL     1      35.693 -18.864 -21.428  0.00  0.00    +0.145 C 
ATOM     24  C   UNL     1      34.623 -19.663 -21.024  0.00  0.00    +0.041 C 
ATOM     25  C   UNL     1      36.943 -19.018 -20.828  0.00  0.00    +0.041 C 
BRANCH  23  26
ATOM     26  O   UNL     1      35.518 -17.934 -22.407  0.00  0.00    -0.453 OA
BRANCH  26  27
ATOM     27  C   UNL     1      35.142 -16.658 -22.022  0.00  0.00    +0.145 C 
ATOM     28  C   UNL     1      34.954 -16.386 -20.680  0.00  0.00    +0.037 C 
ATOM     29  C   UNL     1      34.964 -15.688 -22.992  0.00  0.00    +0.037 C 
ATOM     30  C   UNL     1      34.574 -15.101 -20.293  0.00  0.00    +0.003 C 
ATOM     31  C   UNL     1      34.584 -14.403 -22.606  0.00  0.00    +0.003 C 
ATOM     32  C   UNL     1      34.390 -14.109 -21.257  0.00  0.00    +0.000 C 
ENDBRANCH  26  27
ENDBRANCH  23  26
ENDBRANCH  19  20
ENDBRANCH  18  19
ENDBRANCH   1  18
TORSDOF 13
ENDMDL
MODEL 4
REMARK VINA RESULT:     -10.4      1.298     10.912
REMARK  Name = 9888484
REMARK  13 active torsions:
REMARK  status: ('A' for Active; 'I' for Inactive)
REMARK    1  A    between atoms: C_1  and  C_2
REMARK    2  A    between atoms: C_1  and  C_18
REMARK    3  A    between atoms: C_2  and  O_3
REMARK    4  A    between atoms: O_3  and  C_7
REMARK    5  A    between atoms: C_4  and  C_10
REMARK    6  A    between atoms: C_10  and  C_11
REMARK    7  A    between atoms: C_11  and  O_12
REMARK    8  A    between atoms: C_11  and  C_15
REMARK    9  A    between atoms: C_15  and  O_16
REMARK   10  A    between atoms: C_18  and  O_19
REMARK   11  A    between atoms: O_19  and  C_20
REMARK   12  A    between atoms: C_23  and  O_26
REMARK   13  A    between atoms: O_26  and  C_27
REMARK                            x       y       z     vdW  Elec       q    Type
REMARK                         _______ _______ _______ _____ _____    ______ ____
ROOT
ATOM      1  C   UNL     1      35.150 -17.624 -23.089  0.00  0.00    +0.095 C 
ENDROOT
BRANCH   1   2
ATOM      2  C   UNL     1      35.367 -16.533 -22.052  0.00  0.00    +0.209 C 
BRANCH   2   3
ATOM      3  O   UNL     1      35.323 -15.269 -22.700  0.00  0.00    -0.475 OA
BRANCH   3   7
ATOM      4  C   UNL     1      32.312 -12.667 -21.522  0.00  0.00    -0.019 C 
ATOM      5  C   UNL     1      32.858 -13.563 -20.603  0.00  0.00    -0.001 C 
ATOM      6  C   UNL     1      32.777 -12.646 -22.836  0.00  0.00    -0.001 C 
ATOM      7  C   UNL     1      34.329 -14.410 -22.310  0.00  0.00    +0.139 C 
ATOM      8  C   UNL     1      33.870 -14.438 -20.999  0.00  0.00    +0.037 C 
ATOM      9  C   UNL     1      33.789 -13.521 -23.232  0.00  0.00    +0.037 C 
BRANCH   4  10
ATOM     10  C   UNL     1      31.229 -11.732 -21.099  0.00  0.00    +0.067 C 
BRANCH  10  11
ATOM     11  C   UNL     1      31.775 -10.461 -20.427  0.00  0.00    +0.218 C 
BRANCH  11  12
ATOM     12  O   UNL     1      30.942 -10.144 -19.319  0.00  0.00    -0.342 OA
ATOM     13  C   UNL     1      31.648 -10.252 -18.091  0.00  0.00    +0.175 C 
ENDBRANCH  11  12
BRANCH  11  15
ATOM     14  O   UNL     1      31.077  -9.224 -22.402  0.00  0.00    -0.248 OA
ATOM     15  C   UNL     1      31.743  -9.279 -21.375  0.00  0.00    +0.342 C 
BRANCH  15  16
ATOM     16  O   UNL     1      32.530  -8.259 -20.949  0.00  0.00    -0.479 OA
ATOM     17  H   UNL     1      32.406  -7.899 -20.093  0.00  0.00    +0.295 HD
ENDBRANCH  15  16
ENDBRANCH  11  15
ENDBRANCH  10  11
ENDBRANCH   4  10
ENDBRANCH   3   7
ENDBRANCH   2   3
ENDBRANCH   1   2
BRANCH   1  18
ATOM     18  C   UNL     1      35.249 -19.015 -22.483  0.00  0.00    +0.209 C 
BRANCH  18  19
ATOM     19  O   UNL     1      35.249 -18.924 -21.065  0.00  0.00    -0.475 OA
BRANCH  19  20
ATOM     20  C   UNL     1      34.864 -20.043 -20.374  0.00  0.00    +0.139 C 
ATOM     21  C   UNL     1      35.830 -20.905 -19.868  0.00  0.00    +0.040 C 
ATOM     22  C   UNL     1      33.511 -20.305 -20.185  0.00  0.00    +0.040 C 
ATOM     23  C   UNL     1      34.084 -22.314 -18.971  0.00  0.00    +0.145 C 
ATOM     24  C   UNL     1      35.439 -22.045 -19.165  0.00  0.00    +0.041 C 
ATOM     25  C   UNL     1      33.120 -21.444 -19.482  0.00  0.00    +0.041 C 
BRANCH  23  26
ATOM     26  O   UNL     1      33.701 -23.425 -18.284  0.00  0.00    -0.453 OA
BRANCH  26  27
ATOM     27  C   UNL     1      33.333 -23.267 -16.958  0.00  0.00    +0.145 C 
ATOM     28  C   UNL     1      32.005 -23.037 -16.650  0.00  0.00    +0.037 C 
ATOM     29  C   UNL     1      34.304 -23.341 -15.977  0.00  0.00    +0.037 C 
ATOM     30  C   UNL     1      31.635 -22.876 -15.315  0.00  0.00    +0.003 C 
ATOM     31  C   UNL     1      33.935 -23.181 -14.641  0.00  0.00    +0.003 C 
ATOM     32  C   UNL     1      32.600 -22.949 -14.310  0.00  0.00    +0.000 C 
ENDBRANCH  26  27
ENDBRANCH  23  26
ENDBRANCH  19  20
ENDBRANCH  18  19
ENDBRANCH   1  18
TORSDOF 13
ENDMDL
MODEL 5
REMARK VINA RESULT:     -10.1      1.699      2.754
REMARK  Name = 9888484
REMARK  13 active torsions:
REMARK  status: ('A' for Active; 'I' for Inactive)
REMARK    1  A    between atoms: C_1  and  C_2
REMARK    2  A    between atoms: C_1  and  C_18
REMARK    3  A    between atoms: C_2  and  O_3
REMARK    4  A    between atoms: O_3  and  C_7
REMARK    5  A    between atoms: C_4  and  C_10
REMARK    6  A    between atoms: C_10  and  C_11
REMARK    7  A    between atoms: C_11  and  O_12
REMARK    8  A    between atoms: C_11  and  C_15
REMARK    9  A    between atoms: C_15  and  O_16
REMARK   10  A    between atoms: C_18  and  O_19
REMARK   11  A    between atoms: O_19  and  C_20
REMARK   12  A    between atoms: C_23  and  O_26
REMARK   13  A    between atoms: O_26  and  C_27
REMARK                            x       y       z     vdW  Elec       q    Type
REMARK                         _______ _______ _______ _____ _____    ______ ____
ROOT
ATOM      1  C   UNL     1      34.628 -15.953 -24.012  0.00  0.00    +0.095 C 
ENDROOT
BRANCH   1   2
ATOM      2  C   UNL     1      34.947 -17.347 -23.497  0.00  0.00    +0.209 C 
BRANCH   2   3
ATOM      3  O   UNL     1      35.509 -17.239 -22.197  0.00  0.00    -0.475 OA
BRANCH   3   7
ATOM      4  C   UNL     1      35.778 -20.734 -19.975  0.00  0.00    -0.019 C 
ATOM      5  C   UNL     1      34.572 -20.386 -20.584  0.00  0.00    -0.001 C 
ATOM      6  C   UNL     1      36.893 -19.908 -20.112  0.00  0.00    -0.001 C 
ATOM      7  C   UNL     1      35.597 -18.394 -21.463  0.00  0.00    +0.139 C 
ATOM      8  C   UNL     1      34.482 -19.211 -21.331  0.00  0.00    +0.037 C 
ATOM      9  C   UNL     1      36.802 -18.733 -20.859  0.00  0.00    +0.037 C 
BRANCH   4  10
ATOM     10  C   UNL     1      35.875 -21.990 -19.176  0.00  0.00    +0.067 C 
BRANCH  10  11
ATOM     11  C   UNL     1      34.943 -21.986 -17.952  0.00  0.00    +0.218 C 
BRANCH  11  12
ATOM     12  O   UNL     1      35.608 -22.635 -16.876  0.00  0.00    -0.342 OA
ATOM     13  C   UNL     1      36.864 -22.031 -16.601  0.00  0.00    +0.175 C 
ENDBRANCH  11  12
BRANCH  11  15
ATOM     14  O   UNL     1      32.536 -22.301 -18.093  0.00  0.00    -0.248 OA
ATOM     15  C   UNL     1      33.666 -22.752 -18.230  0.00  0.00    +0.342 C 
BRANCH  15  16
ATOM     16  O   UNL     1      33.911 -24.011 -18.675  0.00  0.00    -0.479 OA
ATOM     17  H   UNL     1      34.782 -24.264 -18.910  0.00  0.00    +0.295 HD
ENDBRANCH  15  16
ENDBRANCH  11  15
ENDBRANCH  10  11
ENDBRANCH   4  10
ENDBRANCH   3   7
ENDBRANCH   2   3
ENDBRANCH   1   2
BRANCH   1  18
ATOM     18  C   UNL     1      34.184 -15.021 -22.896  0.00  0.00    +0.209 C 
BRANCH  18  19
ATOM     19  O   UNL     1      34.652 -13.704 -23.152  0.00  0.00    -0.475 OA
BRANCH  19  20
ATOM     20  C   UNL     1      33.757 -12.683 -22.969  0.00  0.00    +0.139 C 
ATOM     21  C   UNL     1      33.901 -11.504 -23.692  0.00  0.00    +0.040 C 
ATOM     22  C   UNL     1      32.714 -12.835 -22.062  0.00  0.00    +0.040 C 
ATOM     23  C   UNL     1      31.942 -10.610 -22.598  0.00  0.00    +0.145 C 
ATOM     24  C   UNL     1      32.991 -10.464 -23.506  0.00  0.00    +0.041 C 
ATOM     25  C   UNL     1      31.804 -11.795 -21.875  0.00  0.00    +0.041 C 
BRANCH  23  26
ATOM     26  O   UNL     1      31.053  -9.595 -22.417  0.00  0.00    -0.453 OA
BRANCH  26  27
ATOM     27  C   UNL     1      31.523  -8.418 -21.859  0.00  0.00    +0.145 C 
ATOM     28  C   UNL     1      31.255  -7.218 -22.491  0.00  0.00    +0.037 C 
ATOM     29  C   UNL     1      32.251  -8.474 -20.684  0.00  0.00    +0.037 C 
ATOM     30  C   UNL     1      31.731  -6.033 -21.929  0.00  0.00    +0.003 C 
ATOM     31  C   UNL     1      32.727  -7.290 -20.122  0.00  0.00    +0.003 C 
ATOM     32  C   UNL     1      32.466  -6.069 -20.744  0.00  0.00    +0.000 C 
ENDBRANCH  26  27
ENDBRANCH  23  26
ENDBRANCH  19  20
ENDBRANCH  18  19
ENDBRANCH   1  18
TORSDOF 13
ENDMDL
MODEL 6
REMARK VINA RESULT:      -9.9      2.376      3.226
REMARK  Name = 9888484
REMARK  13 active torsions:
REMARK  status: ('A' for Active; 'I' for Inactive)
REMARK    1  A    between atoms: C_1  and  C_2
REMARK    2  A    between atoms: C_1  and  C_18
REMARK    3  A    between atoms: C_2  and  O_3
REMARK    4  A    between atoms: O_3  and  C_7
REMARK    5  A    between atoms: C_4  and  C_10
REMARK    6  A    between atoms: C_10  and  C_11
REMARK    7  A    between atoms: C_11  and  O_12
REMARK    8  A    between atoms: C_11  and  C_15
REMARK    9  A    between atoms: C_15  and  O_16
REMARK   10  A    between atoms: C_18  and  O_19
REMARK   11  A    between atoms: O_19  and  C_20
REMARK   12  A    between atoms: C_23  and  O_26
REMARK   13  A    between atoms: O_26  and  C_27
REMARK                            x       y       z     vdW  Elec       q    Type
REMARK                         _______ _______ _______ _____ _____    ______ ____
ROOT
ATOM      1  C   UNL     1      34.187 -15.937 -23.876  0.00  0.00    +0.095 C 
ENDROOT
BRANCH   1   2
ATOM      2  C   UNL     1      34.972 -17.196 -23.545  0.00  0.00    +0.209 C 
BRANCH   2   3
ATOM      3  O   UNL     1      35.489 -17.082 -22.226  0.00  0.00    -0.475 OA
BRANCH   3   7
ATOM      4  C   UNL     1      35.845 -20.597 -20.048  0.00  0.00    -0.019 C 
ATOM      5  C   UNL     1      36.970 -19.808 -20.288  0.00  0.00    -0.001 C 
ATOM      6  C   UNL     1      34.600 -20.205 -20.541  0.00  0.00    -0.001 C 
ATOM      7  C   UNL     1      35.607 -18.242 -21.506  0.00  0.00    +0.139 C 
ATOM      8  C   UNL     1      36.851 -18.626 -21.020  0.00  0.00    +0.037 C 
ATOM      9  C   UNL     1      34.481 -19.023 -21.273  0.00  0.00    +0.037 C 
BRANCH   4  10
ATOM     10  C   UNL     1      35.972 -21.861 -19.266  0.00  0.00    +0.067 C 
BRANCH  10  11
ATOM     11  C   UNL     1      34.998 -21.922 -18.077  0.00  0.00    +0.218 C 
BRANCH  11  12
ATOM     12  O   UNL     1      35.624 -22.634 -17.018  0.00  0.00    -0.342 OA
ATOM     13  C   UNL     1      36.818 -21.991 -16.593  0.00  0.00    +0.175 C 
ENDBRANCH  11  12
BRANCH  11  15
ATOM     14  O   UNL     1      32.596 -22.289 -18.172  0.00  0.00    -0.248 OA
ATOM     15  C   UNL     1      33.730 -22.665 -18.442  0.00  0.00    +0.342 C 
BRANCH  15  16
ATOM     16  O   UNL     1      33.985 -23.807 -19.131  0.00  0.00    -0.479 OA
ATOM     17  H   UNL     1      34.858 -24.145 -19.170  0.00  0.00    +0.295 HD
ENDBRANCH  15  16
ENDBRANCH  11  15
ENDBRANCH  10  11
ENDBRANCH   4  10
ENDBRANCH   3   7
ENDBRANCH   2   3
ENDBRANCH   1   2
BRANCH   1  18
ATOM     18  C   UNL     1      34.604 -14.760 -23.009  0.00  0.00    +0.209 C 
BRANCH  18  19
ATOM     19  O   UNL     1      33.474 -14.243 -22.320  0.00  0.00    -0.475 OA
BRANCH  19  20
ATOM     20  C   UNL     1      33.138 -12.939 -22.574  0.00  0.00    +0.139 C 
ATOM     21  C   UNL     1      32.293 -12.264 -21.702  0.00  0.00    +0.040 C 
ATOM     22  C   UNL     1      33.647 -12.303 -23.702  0.00  0.00    +0.040 C 
ATOM     23  C   UNL     1      32.458 -10.293 -23.089  0.00  0.00    +0.145 C 
ATOM     24  C   UNL     1      31.950 -10.937 -21.959  0.00  0.00    +0.041 C 
ATOM     25  C   UNL     1      33.305 -10.977 -23.960  0.00  0.00    +0.041 C 
BRANCH  23  26
ATOM     26  O   UNL     1      32.125  -8.997 -23.340  0.00  0.00    -0.453 OA
BRANCH  26  27
ATOM     27  C   UNL     1      33.155  -8.103 -23.579  0.00  0.00    +0.145 C 
ATOM     28  C   UNL     1      34.254  -8.101 -22.739  0.00  0.00    +0.037 C 
ATOM     29  C   UNL     1      33.058  -7.234 -24.650  0.00  0.00    +0.037 C 
ATOM     30  C   UNL     1      35.291  -7.198 -22.979  0.00  0.00    +0.003 C 
ATOM     31  C   UNL     1      34.095  -6.332 -24.890  0.00  0.00    +0.003 C 
ATOM     32  C   UNL     1      35.212  -6.315 -24.055  0.00  0.00    +0.000 C 
ENDBRANCH  26  27
ENDBRANCH  23  26
ENDBRANCH  19  20
ENDBRANCH  18  19
ENDBRANCH   1  18
TORSDOF 13
ENDMDL
MODEL 7
REMARK VINA RESULT:      -9.7      1.672      2.450
REMARK  Name = 9888484
REMARK  13 active torsions:
REMARK  status: ('A' for Active; 'I' for Inactive)
REMARK    1  A    between atoms: C_1  and  C_2
REMARK    2  A    between atoms: C_1  and  C_18
REMARK    3  A    between atoms: C_2  and  O_3
REMARK    4  A    between atoms: O_3  and  C_7
REMARK    5  A    between atoms: C_4  and  C_10
REMARK    6  A    between atoms: C_10  and  C_11
REMARK    7  A    between atoms: C_11  and  O_12
REMARK    8  A    between atoms: C_11  and  C_15
REMARK    9  A    between atoms: C_15  and  O_16
REMARK   10  A    between atoms: C_18  and  O_19
REMARK   11  A    between atoms: O_19  and  C_20
REMARK   12  A    between atoms: C_23  and  O_26
REMARK   13  A    between atoms: O_26  and  C_27
REMARK                            x       y       z     vdW  Elec       q    Type
REMARK                         _______ _______ _______ _____ _____    ______ ____
ROOT
ATOM      1  C   UNL     1      34.878 -18.321 -21.128  0.00  0.00    +0.095 C 
ENDROOT
BRANCH   1   2
ATOM      2  C   UNL     1      35.967 -19.261 -20.636  0.00  0.00    +0.209 C 
BRANCH   2   3
ATOM      3  O   UNL     1      35.479 -20.594 -20.686  0.00  0.00    -0.475 OA
BRANCH   3   7
ATOM      4  C   UNL     1      34.914 -22.519 -17.053  0.00  0.00    -0.019 C 
ATOM      5  C   UNL     1      36.171 -22.013 -17.386  0.00  0.00    -0.001 C 
ATOM      6  C   UNL     1      33.848 -22.379 -17.941  0.00  0.00    -0.001 C 
ATOM      7  C   UNL     1      35.293 -21.230 -19.486  0.00  0.00    +0.139 C 
ATOM      8  C   UNL     1      36.361 -21.366 -18.607  0.00  0.00    +0.037 C 
ATOM      9  C   UNL     1      34.038 -21.732 -19.162  0.00  0.00    +0.037 C 
BRANCH   4  10
ATOM     10  C   UNL     1      34.711 -23.212 -15.747  0.00  0.00    +0.067 C 
BRANCH  10  11
ATOM     11  C   UNL     1      35.988 -23.901 -15.238  0.00  0.00    +0.218 C 
BRANCH  11  12
ATOM     12  O   UNL     1      35.688 -25.264 -14.966  0.00  0.00    -0.342 OA
ATOM     13  C   UNL     1      36.865 -26.011 -14.694  0.00  0.00    +0.175 C 
ENDBRANCH  11  12
BRANCH  11  15
ATOM     14  O   UNL     1      37.617 -22.878 -13.750  0.00  0.00    -0.248 OA
ATOM     15  C   UNL     1      36.476 -23.273 -13.948  0.00  0.00    +0.342 C 
BRANCH  15  16
ATOM     16  O   UNL     1      35.488 -23.175 -13.022  0.00  0.00    -0.479 OA
ATOM     17  H   UNL     1      34.659 -22.807 -13.258  0.00  0.00    +0.295 HD
ENDBRANCH  15  16
ENDBRANCH  11  15
ENDBRANCH  10  11
ENDBRANCH   4  10
ENDBRANCH   3   7
ENDBRANCH   2   3
ENDBRANCH   1   2
BRANCH   1  18
ATOM     18  C   UNL     1      35.404 -16.915 -21.367  0.00  0.00    +0.209 C 
BRANCH  18  19
ATOM     19  O   UNL     1      35.004 -16.062 -20.303  0.00  0.00    -0.475 OA
BRANCH  19  20
ATOM     20  C   UNL     1      34.131 -15.053 -20.614  0.00  0.00    +0.139 C 
ATOM     21  C   UNL     1      33.035 -14.814 -19.792  0.00  0.00    +0.040 C 
ATOM     22  C   UNL     1      34.349 -14.277 -21.747  0.00  0.00    +0.040 C 
ATOM     23  C   UNL     1      32.359 -13.004 -21.243  0.00  0.00    +0.145 C 
ATOM     24  C   UNL     1      32.146 -13.787 -20.107  0.00  0.00    +0.041 C 
ATOM     25  C   UNL     1      33.461 -13.250 -22.063  0.00  0.00    +0.041 C 
BRANCH  23  26
ATOM     26  O   UNL     1      31.492 -12.001 -21.551  0.00  0.00    -0.453 OA
BRANCH  26  27
ATOM     27  C   UNL     1      31.680 -10.776 -20.932  0.00  0.00    +0.145 C 
ATOM     28  C   UNL     1      32.132  -9.705 -21.681  0.00  0.00    +0.037 C 
ATOM     29  C   UNL     1      31.411 -10.656 -19.581  0.00  0.00    +0.037 C 
ATOM     30  C   UNL     1      32.322  -8.472 -21.057  0.00  0.00    +0.003 C 
ATOM     31  C   UNL     1      31.600  -9.423 -18.957  0.00  0.00    +0.003 C 
ATOM     32  C   UNL     1      32.055  -8.331 -19.695  0.00  0.00    +0.000 C 
ENDBRANCH  26  27
ENDBRANCH  23  26
ENDBRANCH  19  20
ENDBRANCH  18  19
ENDBRANCH   1  18
TORSDOF 13
ENDMDL
MODEL 8
REMARK VINA RESULT:      -9.7      3.021     12.531
REMARK  Name = 9888484
REMARK  13 active torsions:
REMARK  status: ('A' for Active; 'I' for Inactive)
REMARK    1  A    between atoms: C_1  and  C_2
REMARK    2  A    between atoms: C_1  and  C_18
REMARK    3  A    between atoms: C_2  and  O_3
REMARK    4  A    between atoms: O_3  and  C_7
REMARK    5  A    between atoms: C_4  and  C_10
REMARK    6  A    between atoms: C_10  and  C_11
REMARK    7  A    between atoms: C_11  and  O_12
REMARK    8  A    between atoms: C_11  and  C_15
REMARK    9  A    between atoms: C_15  and  O_16
REMARK   10  A    between atoms: C_18  and  O_19
REMARK   11  A    between atoms: O_19  and  C_20
REMARK   12  A    between atoms: C_23  and  O_26
REMARK   13  A    between atoms: O_26  and  C_27
REMARK                            x       y       z     vdW  Elec       q    Type
REMARK                         _______ _______ _______ _____ _____    ______ ____
ROOT
ATOM      1  C   UNL     1      32.260 -13.600 -20.626  0.00  0.00    +0.095 C 
ENDROOT
BRANCH   1   2
ATOM      2  C   UNL     1      32.101 -12.271 -19.906  0.00  0.00    +0.209 C 
BRANCH   2   3
ATOM      3  O   UNL     1      31.169 -11.470 -20.621  0.00  0.00    -0.475 OA
BRANCH   3   7
ATOM      4  C   UNL     1      32.128  -7.460 -21.096  0.00  0.00    -0.019 C 
ATOM      5  C   UNL     1      31.788  -8.232 -22.207  0.00  0.00    -0.001 C 
ATOM      6  C   UNL     1      32.146  -8.036 -19.826  0.00  0.00    -0.001 C 
ATOM      7  C   UNL     1      31.485 -10.146 -20.779  0.00  0.00    +0.139 C 
ATOM      8  C   UNL     1      31.466  -9.580 -22.048  0.00  0.00    +0.037 C 
ATOM      9  C   UNL     1      31.824  -9.384 -19.667  0.00  0.00    +0.037 C 
BRANCH   4  10
ATOM     10  C   UNL     1      32.474  -6.019 -21.266  0.00  0.00    +0.067 C 
BRANCH  10  11
ATOM     11  C   UNL     1      31.586  -5.317 -22.307  0.00  0.00    +0.218 C 
BRANCH  11  12
ATOM     12  O   UNL     1      32.411  -4.490 -23.119  0.00  0.00    -0.342 OA
ATOM     13  C   UNL     1      32.711  -5.115 -24.359  0.00  0.00    +0.175 C 
ENDBRANCH  11  12
BRANCH  11  15
ATOM     14  O   UNL     1      29.416  -4.763 -21.359  0.00  0.00    -0.248 OA
ATOM     15  C   UNL     1      30.558  -4.424 -21.642  0.00  0.00    +0.342 C 
BRANCH  15  16
ATOM     16  O   UNL     1      31.052  -3.190 -21.367  0.00  0.00    -0.479 OA
ATOM     17  H   UNL     1      31.207  -2.934 -20.479  0.00  0.00    +0.295 HD
ENDBRANCH  15  16
ENDBRANCH  11  15
ENDBRANCH  10  11
ENDBRANCH   4  10
ENDBRANCH   3   7
ENDBRANCH   2   3
ENDBRANCH   1   2
BRANCH   1  18
ATOM     18  C   UNL     1      32.805 -13.425 -22.034  0.00  0.00    +0.209 C 
BRANCH  18  19
ATOM     19  O   UNL     1      34.203 -13.681 -22.046  0.00  0.00    -0.475 OA
BRANCH  19  20
ATOM     20  C   UNL     1      34.591 -14.994 -21.999  0.00  0.00    +0.139 C 
ATOM     21  C   UNL     1      34.734 -15.712 -23.181  0.00  0.00    +0.040 C 
ATOM     22  C   UNL     1      34.840 -15.596 -20.770  0.00  0.00    +0.040 C 
ATOM     23  C   UNL     1      35.380 -17.658 -21.904  0.00  0.00    +0.145 C 
ATOM     24  C   UNL     1      35.129 -17.049 -23.134  0.00  0.00    +0.041 C 
ATOM     25  C   UNL     1      35.235 -16.932 -20.723  0.00  0.00    +0.041 C 
BRANCH  23  26
ATOM     26  O   UNL     1      35.767 -18.963 -21.858  0.00  0.00    -0.453 OA
BRANCH  26  27
ATOM     27  C   UNL     1      35.144 -19.786 -20.935  0.00  0.00    +0.145 C 
ATOM     28  C   UNL     1      35.918 -20.515 -20.050  0.00  0.00    +0.037 C 
ATOM     29  C   UNL     1      33.763 -19.860 -20.923  0.00  0.00    +0.037 C 
ATOM     30  C   UNL     1      35.290 -21.345 -19.122  0.00  0.00    +0.003 C 
ATOM     31  C   UNL     1      33.135 -20.690 -19.995  0.00  0.00    +0.003 C 
ATOM     32  C   UNL     1      33.899 -21.432 -19.094  0.00  0.00    +0.000 C 
ENDBRANCH  26  27
ENDBRANCH  23  26
ENDBRANCH  19  20
ENDBRANCH  18  19
ENDBRANCH   1  18
TORSDOF 13
ENDMDL
MODEL 9
REMARK VINA RESULT:      -9.7      2.440      4.534
REMARK  Name = 9888484
REMARK  13 active torsions:
REMARK  status: ('A' for Active; 'I' for Inactive)
REMARK    1  A    between atoms: C_1  and  C_2
REMARK    2  A    between atoms: C_1  and  C_18
REMARK    3  A    between atoms: C_2  and  O_3
REMARK    4  A    between atoms: O_3  and  C_7
REMARK    5  A    between atoms: C_4  and  C_10
REMARK    6  A    between atoms: C_10  and  C_11
REMARK    7  A    between atoms: C_11  and  O_12
REMARK    8  A    between atoms: C_11  and  C_15
REMARK    9  A    between atoms: C_15  and  O_16
REMARK   10  A    between atoms: C_18  and  O_19
REMARK   11  A    between atoms: O_19  and  C_20
REMARK   12  A    between atoms: C_23  and  O_26
REMARK   13  A    between atoms: O_26  and  C_27
REMARK                            x       y       z     vdW  Elec       q    Type
REMARK                         _______ _______ _______ _____ _____    ______ ____
ROOT
ATOM      1  C   UNL     1      34.942 -20.267 -20.136  0.00  0.00    +0.095 C 
ENDROOT
BRANCH   1   2
ATOM      2  C   UNL     1      35.757 -21.350 -19.447  0.00  0.00    +0.209 C 
BRANCH   2   3
ATOM      3  O   UNL     1      34.882 -22.166 -18.680  0.00  0.00    -0.475 OA
BRANCH   3   7
ATOM      4  C   UNL     1      35.966 -22.888 -14.740  0.00  0.00    -0.019 C 
ATOM      5  C   UNL     1      36.875 -22.293 -15.615  0.00  0.00    -0.001 C 
ATOM      6  C   UNL     1      34.694 -23.241 -15.189  0.00  0.00    -0.001 C 
ATOM      7  C   UNL     1      35.241 -22.404 -17.379  0.00  0.00    +0.139 C 
ATOM      8  C   UNL     1      36.511 -22.050 -16.940  0.00  0.00    +0.037 C 
ATOM      9  C   UNL     1      34.330 -22.998 -16.513  0.00  0.00    +0.037 C 
BRANCH   4  10
ATOM     10  C   UNL     1      36.355 -23.149 -13.324  0.00  0.00    +0.067 C 
BRANCH  10  11
ATOM     11  C   UNL     1      37.445 -24.227 -13.199  0.00  0.00    +0.218 C 
BRANCH  11  12
ATOM     12  O   UNL     1      36.867 -25.490 -13.505  0.00  0.00    -0.342 OA
ATOM     13  C   UNL     1      37.596 -26.162 -14.522  0.00  0.00    +0.175 C 
ENDBRANCH  11  12
BRANCH  11  15
ATOM     14  O   UNL     1      38.561 -23.391 -11.207  0.00  0.00    -0.248 OA
ATOM     15  C   UNL     1      37.986 -24.303 -11.786  0.00  0.00    +0.342 C 
BRANCH  15  16
ATOM     16  O   UNL     1      37.743 -25.508 -11.208  0.00  0.00    -0.479 OA
ATOM     17  H   UNL     1      36.874 -25.857 -11.201  0.00  0.00    +0.295 HD
ENDBRANCH  15  16
ENDBRANCH  11  15
ENDBRANCH  10  11
ENDBRANCH   4  10
ENDBRANCH   3   7
ENDBRANCH   2   3
ENDBRANCH   1   2
BRANCH   1  18
ATOM     18  C   UNL     1      35.807 -19.367 -21.004  0.00  0.00    +0.209 C 
BRANCH  18  19
ATOM     19  O   UNL     1      35.742 -18.030 -20.528  0.00  0.00    -0.475 OA
BRANCH  19  20
ATOM     20  C   UNL     1      35.293 -17.081 -21.408  0.00  0.00    +0.139 C 
ATOM     21  C   UNL     1      34.923 -15.827 -20.937  0.00  0.00    +0.040 C 
ATOM     22  C   UNL     1      35.213 -17.381 -22.764  0.00  0.00    +0.040 C 
ATOM     23  C   UNL     1      34.382 -15.154 -23.193  0.00  0.00    +0.145 C 
ATOM     24  C   UNL     1      34.465 -14.860 -21.831  0.00  0.00    +0.041 C 
ATOM     25  C   UNL     1      34.755 -16.415 -23.658  0.00  0.00    +0.041 C 
BRANCH  23  26
ATOM     26  O   UNL     1      33.936 -14.210 -24.068  0.00  0.00    -0.453 OA
BRANCH  26  27
ATOM     27  C   UNL     1      33.408 -13.044 -23.541  0.00  0.00    +0.145 C 
ATOM     28  C   UNL     1      32.306 -13.117 -22.710  0.00  0.00    +0.037 C 
ATOM     29  C   UNL     1      33.996 -11.834 -23.862  0.00  0.00    +0.037 C 
ATOM     30  C   UNL     1      31.773 -11.942 -22.181  0.00  0.00    +0.003 C 
ATOM     31  C   UNL     1      33.464 -10.658 -23.333  0.00  0.00    +0.003 C 
ATOM     32  C   UNL     1      32.353 -10.712 -22.492  0.00  0.00    +0.000 C 
ENDBRANCH  26  27
ENDBRANCH  23  26
ENDBRANCH  19  20
ENDBRANCH  18  19
ENDBRANCH   1  18
TORSDOF 13
ENDMDL
