MODEL 1
REMARK VINA RESULT:     -11.8      0.000      0.000
REMARK  Name = 2267
REMARK  3 active torsions:
REMARK  status: ('A' for Active; 'I' for Inactive)
REMARK    1  A    between atoms: N_2  and  C_13
REMARK    2  A    between atoms: C_6  and  C_21
REMARK    3  A    between atoms: C_21  and  C_23
REMARK                            x       y       z     vdW  Elec       q    Type
REMARK                         _______ _______ _______ _____ _____    ______ ____
ROOT
ATOM      1  O   UNL     1      33.858 -23.556 -12.757  0.00  0.00    -0.266 OA
ATOM      2  N   UNL     1      34.808 -23.776 -14.863  0.00  0.00    -0.219 N 
ATOM      3  N   UNL     1      34.678 -23.753 -16.222  0.00  0.00    -0.171 NA
ATOM      4  C   UNL     1      33.755 -23.538 -13.982  0.00  0.00    +0.276 A 
ATOM      5  C   UNL     1      32.439 -23.248 -14.581  0.00  0.00    +0.059 A 
ATOM      6  C   UNL     1      33.524 -23.498 -16.753  0.00  0.00    +0.083 A 
ATOM      7  C   UNL     1      32.311 -23.226 -15.965  0.00  0.00    +0.020 A 
ATOM      8  C   UNL     1      31.327 -22.998 -13.768  0.00  0.00    +0.005 C 
ATOM      9  C   UNL     1      31.070 -22.954 -16.549  0.00  0.00    +0.001 C 
ATOM     10  C   UNL     1      30.090 -22.726 -14.351  0.00  0.00    +0.000 C 
ATOM     11  C   UNL     1      29.962 -22.705 -15.739  0.00  0.00    +0.000 C 
ENDROOT
BRANCH   2  13
ATOM     12  N   UNL     1      38.833 -25.233 -13.794  0.00  0.00    +0.386 N 
ATOM     13  C   UNL     1      36.144 -24.073 -14.386  0.00  0.00    +0.106 C 
ATOM     14  C   UNL     1      36.305 -23.500 -12.975  0.00  0.00    +0.022 C 
ATOM     15  C   UNL     1      36.372 -25.587 -14.411  0.00  0.00    +0.002 C 
ATOM     16  C   UNL     1      37.725 -23.526 -12.414  0.00  0.00    -0.021 C 
ATOM     17  C   UNL     1      37.838 -26.015 -14.534  0.00  0.00    -0.075 C 
ATOM     18  C   UNL     1      38.429 -24.884 -12.432  0.00  0.00    -0.077 C 
ATOM     19  C   UNL     1      40.122 -25.928 -13.807  0.00  0.00    -0.101 C 
ATOM     20  H   UNL     1      38.919 -24.340 -14.279  0.00  0.00    -0.080 HD
ENDBRANCH   2  13
BRANCH   6  21
ATOM     21  C   UNL     1      33.442 -23.487 -18.262  0.00  0.00    +0.074 C 
BRANCH  21  23
ATOM     22 CL   UNL     1      36.454 -18.806 -20.505  0.00  0.00    -0.082 Cl
ATOM     23  C   UNL     1      34.192 -22.320 -18.820  0.00  0.00    -0.016 C 
ATOM     24  C   UNL     1      33.516 -21.348 -19.553  0.00  0.00    -0.003 C 
ATOM     25  C   UNL     1      35.565 -22.211 -18.606  0.00  0.00    -0.003 C 
ATOM     26  C   UNL     1      34.216 -20.260 -20.075  0.00  0.00    +0.011 C 
ATOM     27  C   UNL     1      36.264 -21.124 -19.128  0.00  0.00    +0.011 C 
ATOM     28  C   UNL     1      35.590 -20.147 -19.862  0.00  0.00    +0.058 C 
ENDBRANCH  21  23
ENDBRANCH   6  21
TORSDOF 3
ENDMDL
MODEL 2
REMARK VINA RESULT:     -11.0     10.501     13.800
REMARK  Name = 2267
REMARK  3 active torsions:
REMARK  status: ('A' for Active; 'I' for Inactive)
REMARK    1  A    between atoms: N_2  and  C_13
REMARK    2  A    between atoms: C_6  and  C_21
REMARK    3  A    between atoms: C_21  and  C_23
REMARK                            x       y       z     vdW  Elec       q    Type
REMARK                         _______ _______ _______ _____ _____    ______ ____
ROOT
ATOM      1  O   UNL     1      33.077 -13.694 -19.767  0.00  0.00    -0.266 OA
ATOM      2  N   UNL     1      32.732 -12.945 -21.936  0.00  0.00    -0.219 N 
ATOM      3  N   UNL     1      32.321 -11.963 -22.791  0.00  0.00    -0.171 NA
ATOM      4  C   UNL     1      32.711 -12.819 -20.548  0.00  0.00    +0.276 A 
ATOM      5  C   UNL     1      32.212 -11.543 -20.003  0.00  0.00    +0.059 A 
ATOM      6  C   UNL     1      31.883 -10.839 -22.318  0.00  0.00    +0.083 A 
ATOM      7  C   UNL     1      31.795 -10.546 -20.877  0.00  0.00    +0.020 A 
ATOM      8  C   UNL     1      32.157 -11.333 -18.621  0.00  0.00    +0.005 C 
ATOM      9  C   UNL     1      31.318  -9.330 -20.378  0.00  0.00    +0.001 C 
ATOM     10  C   UNL     1      31.681 -10.121 -18.122  0.00  0.00    +0.000 C 
ATOM     11  C   UNL     1      31.263  -9.122 -18.999  0.00  0.00    +0.000 C 
ENDROOT
BRANCH   2  13
ATOM     12  N   UNL     1      34.553 -16.701 -23.363  0.00  0.00    +0.386 N 
ATOM     13  C   UNL     1      33.200 -14.154 -22.581  0.00  0.00    +0.106 C 
ATOM     14  C   UNL     1      33.124 -13.966 -24.100  0.00  0.00    +0.022 C 
ATOM     15  C   UNL     1      34.627 -14.462 -22.121  0.00  0.00    +0.002 C 
ATOM     16  C   UNL     1      33.366 -15.224 -24.930  0.00  0.00    -0.021 C 
ATOM     17  C   UNL     1      35.026 -15.939 -22.203  0.00  0.00    -0.075 C 
ATOM     18  C   UNL     1      34.660 -15.986 -24.635  0.00  0.00    -0.077 C 
ATOM     19  C   UNL     1      35.236 -17.995 -23.420  0.00  0.00    -0.101 C 
ATOM     20  H   UNL     1      33.553 -16.846 -23.227  0.00  0.00    -0.080 HD
ENDBRANCH   2  13
BRANCH   6  21
ATOM     21  C   UNL     1      31.442  -9.791 -23.312  0.00  0.00    +0.074 C 
BRANCH  21  23
ATOM     22 CL   UNL     1      35.887  -5.903 -24.385  0.00  0.00    -0.082 Cl
ATOM     23  C   UNL     1      32.550  -8.822 -23.578  0.00  0.00    -0.016 C 
ATOM     24  C   UNL     1      32.262  -7.575 -24.129  0.00  0.00    -0.003 C 
ATOM     25  C   UNL     1      33.864  -9.170 -23.276  0.00  0.00    -0.003 C 
ATOM     26  C   UNL     1      33.295  -6.671 -24.378  0.00  0.00    +0.011 C 
ATOM     27  C   UNL     1      34.897  -8.267 -23.526  0.00  0.00    +0.011 C 
ATOM     28  C   UNL     1      34.612  -7.017 -24.077  0.00  0.00    +0.058 C 
ENDBRANCH  21  23
ENDBRANCH   6  21
TORSDOF 3
ENDMDL
MODEL 3
REMARK VINA RESULT:     -10.6      2.735      6.516
REMARK  Name = 2267
REMARK  3 active torsions:
REMARK  status: ('A' for Active; 'I' for Inactive)
REMARK    1  A    between atoms: N_2  and  C_13
REMARK    2  A    between atoms: C_6  and  C_21
REMARK    3  A    between atoms: C_21  and  C_23
REMARK                            x       y       z     vdW  Elec       q    Type
REMARK                         _______ _______ _______ _____ _____    ______ ____
ROOT
ATOM      1  O   UNL     1      37.347 -22.316 -14.978  0.00  0.00    -0.266 OA
ATOM      2  N   UNL     1      35.123 -22.904 -15.281  0.00  0.00    -0.219 N 
ATOM      3  N   UNL     1      33.999 -23.534 -14.829  0.00  0.00    -0.171 NA
ATOM      4  C   UNL     1      36.329 -22.879 -14.583  0.00  0.00    +0.276 A 
ATOM      5  C   UNL     1      36.362 -23.583 -13.288  0.00  0.00    +0.059 A 
ATOM      6  C   UNL     1      34.022 -24.153 -13.692  0.00  0.00    +0.083 A 
ATOM      7  C   UNL     1      35.216 -24.224 -12.832  0.00  0.00    +0.020 A 
ATOM      8  C   UNL     1      37.533 -23.609 -12.523  0.00  0.00    +0.005 C 
ATOM      9  C   UNL     1      35.231 -24.897 -11.607  0.00  0.00    +0.001 C 
ATOM     10  C   UNL     1      37.548 -24.280 -11.300  0.00  0.00    +0.000 C 
ATOM     11  C   UNL     1      36.399 -24.922 -10.844  0.00  0.00    +0.000 C 
ENDROOT
BRANCH   2  13
ATOM     12  N   UNL     1      34.042 -21.142 -19.180  0.00  0.00    +0.386 N 
ATOM     13  C   UNL     1      34.975 -22.248 -16.565  0.00  0.00    +0.106 C 
ATOM     14  C   UNL     1      36.331 -22.243 -17.278  0.00  0.00    +0.022 C 
ATOM     15  C   UNL     1      33.905 -22.970 -17.389  0.00  0.00    +0.002 C 
ATOM     16  C   UNL     1      36.404 -21.391 -18.543  0.00  0.00    -0.021 C 
ATOM     17  C   UNL     1      33.212 -22.102 -18.445  0.00  0.00    -0.075 C 
ATOM     18  C   UNL     1      35.338 -21.672 -19.604  0.00  0.00    -0.077 C 
ATOM     19  C   UNL     1      33.290 -20.600 -20.313  0.00  0.00    -0.101 C 
ATOM     20  H   UNL     1      34.267 -20.393 -18.526  0.00  0.00    -0.080 HD
ENDBRANCH   2  13
BRANCH   6  21
ATOM     21  C   UNL     1      32.750 -24.833 -13.244  0.00  0.00    +0.074 C 
BRANCH  21  23
ATOM     22 CL   UNL     1      28.009 -22.537 -16.121  0.00  0.00    -0.082 Cl
ATOM     23  C   UNL     1      31.569 -24.261 -13.962  0.00  0.00    -0.016 C 
ATOM     24  C   UNL     1      31.311 -22.894 -13.893  0.00  0.00    -0.003 C 
ATOM     25  C   UNL     1      30.730 -25.098 -14.695  0.00  0.00    -0.003 C 
ATOM     26  C   UNL     1      30.210 -22.360 -14.561  0.00  0.00    +0.011 C 
ATOM     27  C   UNL     1      29.629 -24.564 -15.363  0.00  0.00    +0.011 C 
ATOM     28  C   UNL     1      29.368 -23.195 -15.297  0.00  0.00    +0.058 C 
ENDBRANCH  21  23
ENDBRANCH   6  21
TORSDOF 3
ENDMDL
MODEL 4
REMARK VINA RESULT:     -10.1      1.944      5.771
REMARK  Name = 2267
REMARK  3 active torsions:
REMARK  status: ('A' for Active; 'I' for Inactive)
REMARK    1  A    between atoms: N_2  and  C_13
REMARK    2  A    between atoms: C_6  and  C_21
REMARK    3  A    between atoms: C_21  and  C_23
REMARK                            x       y       z     vdW  Elec       q    Type
REMARK                         _______ _______ _______ _____ _____    ______ ____
ROOT
ATOM      1  O   UNL     1      32.716 -24.559 -12.355  0.00  0.00    -0.266 OA
ATOM      2  N   UNL     1      33.183 -23.943 -14.544  0.00  0.00    -0.219 N 
ATOM      3  N   UNL     1      34.086 -23.542 -15.487  0.00  0.00    -0.171 NA
ATOM      4  C   UNL     1      33.518 -24.198 -13.215  0.00  0.00    +0.276 A 
ATOM      5  C   UNL     1      34.931 -24.017 -12.838  0.00  0.00    +0.059 A 
ATOM      6  C   UNL     1      35.329 -23.382 -15.161  0.00  0.00    +0.083 A 
ATOM      7  C   UNL     1      35.846 -23.608 -13.801  0.00  0.00    +0.020 A 
ATOM      8  C   UNL     1      35.352 -24.251 -11.524  0.00  0.00    +0.005 C 
ATOM      9  C   UNL     1      37.190 -23.430 -13.460  0.00  0.00    +0.001 C 
ATOM     10  C   UNL     1      36.693 -24.073 -11.184  0.00  0.00    +0.000 C 
ATOM     11  C   UNL     1      37.609 -23.663 -12.150  0.00  0.00    +0.000 C 
ENDROOT
BRANCH   2  13
ATOM     12  N   UNL     1      29.078 -23.722 -16.145  0.00  0.00    +0.386 N 
ATOM     13  C   UNL     1      31.825 -24.087 -15.026  0.00  0.00    +0.106 C 
ATOM     14  C   UNL     1      31.134 -25.203 -14.236  0.00  0.00    +0.022 C 
ATOM     15  C   UNL     1      31.086 -22.753 -14.882  0.00  0.00    +0.002 C 
ATOM     16  C   UNL     1      29.772 -25.639 -14.770  0.00  0.00    -0.021 C 
ATOM     17  C   UNL     1      29.919 -22.556 -15.856  0.00  0.00    -0.075 C 
ATOM     18  C   UNL     1      28.742 -24.525 -14.969  0.00  0.00    -0.077 C 
ATOM     19  C   UNL     1      27.875 -23.301 -16.866  0.00  0.00    -0.101 C 
ATOM     20  H   UNL     1      29.634 -24.341 -16.735  0.00  0.00    -0.080 HD
ENDBRANCH   2  13
BRANCH   6  21
ATOM     21  C   UNL     1      36.280 -22.936 -16.247  0.00  0.00    +0.074 C 
BRANCH  21  23
ATOM     22 CL   UNL     1      33.270 -20.360 -20.756  0.00  0.00    -0.082 Cl
ATOM     23  C   UNL     1      35.530 -22.296 -17.371  0.00  0.00    -0.016 C 
ATOM     24  C   UNL     1      36.196 -21.450 -18.256  0.00  0.00    -0.003 C 
ATOM     25  C   UNL     1      34.168 -22.545 -17.528  0.00  0.00    -0.003 C 
ATOM     26  C   UNL     1      35.497 -20.852 -19.304  0.00  0.00    +0.011 C 
ATOM     27  C   UNL     1      33.469 -21.945 -18.576  0.00  0.00    +0.011 C 
ATOM     28  C   UNL     1      34.133 -21.099 -19.464  0.00  0.00    +0.058 C 
ENDBRANCH  21  23
ENDBRANCH   6  21
TORSDOF 3
ENDMDL
MODEL 5
REMARK VINA RESULT:     -10.0     12.904     16.705
REMARK  Name = 2267
REMARK  3 active torsions:
REMARK  status: ('A' for Active; 'I' for Inactive)
REMARK    1  A    between atoms: N_2  and  C_13
REMARK    2  A    between atoms: C_6  and  C_21
REMARK    3  A    between atoms: C_21  and  C_23
REMARK                            x       y       z     vdW  Elec       q    Type
REMARK                         _______ _______ _______ _____ _____    ______ ____
ROOT
ATOM      1  O   UNL     1      33.072  -6.297 -20.906  0.00  0.00    -0.266 OA
ATOM      2  N   UNL     1      32.906  -7.724 -22.728  0.00  0.00    -0.219 N 
ATOM      3  N   UNL     1      32.566  -8.943 -23.243  0.00  0.00    -0.171 NA
ATOM      4  C   UNL     1      32.769  -7.389 -21.382  0.00  0.00    +0.276 A 
ATOM      5  C   UNL     1      32.224  -8.428 -20.490  0.00  0.00    +0.059 A 
ATOM      6  C   UNL     1      32.086  -9.859 -22.463  0.00  0.00    +0.083 A 
ATOM      7  C   UNL     1      31.880  -9.667 -21.018  0.00  0.00    +0.020 A 
ATOM      8  C   UNL     1      32.055  -8.174 -19.124  0.00  0.00    +0.005 C 
ATOM      9  C   UNL     1      31.363 -10.664 -20.185  0.00  0.00    +0.001 C 
ATOM     10  C   UNL     1      31.539  -9.169 -18.293  0.00  0.00    +0.000 C 
ATOM     11  C   UNL     1      31.195 -10.410 -18.823  0.00  0.00    +0.000 C 
ENDROOT
BRANCH   2  13
ATOM     12  N   UNL     1      33.901  -4.892 -25.962  0.00  0.00    +0.386 N 
ATOM     13  C   UNL     1      33.432  -6.783 -23.696  0.00  0.00    +0.106 C 
ATOM     14  C   UNL     1      34.938  -7.021 -23.851  0.00  0.00    +0.022 C 
ATOM     15  C   UNL     1      32.694  -6.950 -25.027  0.00  0.00    +0.002 C 
ATOM     16  C   UNL     1      35.689  -5.968 -24.662  0.00  0.00    -0.021 C 
ATOM     17  C   UNL     1      32.678  -5.701 -25.915  0.00  0.00    -0.075 C 
ATOM     18  C   UNL     1      35.134  -5.674 -26.057  0.00  0.00    -0.077 C 
ATOM     19  C   UNL     1      33.806  -3.910 -27.044  0.00  0.00    -0.101 C 
ATOM     20  H   UNL     1      33.964  -4.411 -25.065  0.00  0.00    -0.080 HD
ENDBRANCH   2  13
BRANCH   6  21
ATOM     21  C   UNL     1      31.728 -11.187 -23.089  0.00  0.00    +0.074 C 
BRANCH  21  23
ATOM     22 CL   UNL     1      34.944 -15.615 -20.626  0.00  0.00    -0.082 Cl
ATOM     23  C   UNL     1      32.530 -12.290 -22.474  0.00  0.00    -0.016 C 
ATOM     24  C   UNL     1      33.821 -12.545 -22.930  0.00  0.00    -0.003 C 
ATOM     25  C   UNL     1      31.981 -13.058 -21.450  0.00  0.00    -0.003 C 
ATOM     26  C   UNL     1      34.569 -13.573 -22.357  0.00  0.00    +0.011 C 
ATOM     27  C   UNL     1      32.729 -14.088 -20.878  0.00  0.00    +0.011 C 
ATOM     28  C   UNL     1      34.023 -14.345 -21.331  0.00  0.00    +0.058 C 
ENDBRANCH  21  23
ENDBRANCH   6  21
TORSDOF 3
ENDMDL
MODEL 6
REMARK VINA RESULT:      -9.8      1.693      5.677
REMARK  Name = 2267
REMARK  3 active torsions:
REMARK  status: ('A' for Active; 'I' for Inactive)
REMARK    1  A    between atoms: N_2  and  C_13
REMARK    2  A    between atoms: C_6  and  C_21
REMARK    3  A    between atoms: C_21  and  C_23
REMARK                            x       y       z     vdW  Elec       q    Type
REMARK                         _______ _______ _______ _____ _____    ______ ____
ROOT
ATOM      1  O   UNL     1      34.799 -25.971 -13.959  0.00  0.00    -0.266 OA
ATOM      2  N   UNL     1      34.704 -23.881 -14.963  0.00  0.00    -0.219 N 
ATOM      3  N   UNL     1      35.346 -22.807 -15.510  0.00  0.00    -0.171 NA
ATOM      4  C   UNL     1      35.364 -24.998 -14.454  0.00  0.00    +0.276 A 
ATOM      5  C   UNL     1      36.837 -24.989 -14.521  0.00  0.00    +0.059 A 
ATOM      6  C   UNL     1      36.640 -22.794 -15.572  0.00  0.00    +0.083 A 
ATOM      7  C   UNL     1      37.486 -23.893 -15.077  0.00  0.00    +0.020 A 
ATOM      8  C   UNL     1      37.578 -26.070 -14.031  0.00  0.00    +0.005 C 
ATOM      9  C   UNL     1      38.882 -23.867 -15.148  0.00  0.00    +0.001 C 
ATOM     10  C   UNL     1      38.970 -26.044 -14.102  0.00  0.00    +0.000 C 
ATOM     11  C   UNL     1      39.620 -24.945 -14.659  0.00  0.00    +0.000 C 
ENDROOT
BRANCH   2  13
ATOM     12  N   UNL     1      30.363 -23.348 -15.547  0.00  0.00    +0.386 N 
ATOM     13  C   UNL     1      33.259 -23.780 -14.948  0.00  0.00    +0.106 C 
ATOM     14  C   UNL     1      32.799 -23.480 -13.518  0.00  0.00    +0.022 C 
ATOM     15  C   UNL     1      32.811 -22.691 -15.926  0.00  0.00    +0.002 C 
ATOM     16  C   UNL     1      31.293 -23.567 -13.281  0.00  0.00    -0.021 C 
ATOM     17  C   UNL     1      31.391 -22.863 -16.475  0.00  0.00    -0.075 C 
ATOM     18  C   UNL     1      30.417 -22.734 -14.220  0.00  0.00    -0.077 C 
ATOM     19  C   UNL     1      29.038 -23.199 -16.151  0.00  0.00    -0.101 C 
ATOM     20  H   UNL     1      30.560 -24.336 -15.388  0.00  0.00    -0.080 HD
ENDBRANCH   2  13
BRANCH   6  21
ATOM     21  C   UNL     1      37.294 -21.578 -16.187  0.00  0.00    +0.074 C 
BRANCH  21  23
ATOM     22 CL   UNL     1      34.854 -20.346 -21.530  0.00  0.00    -0.082 Cl
ATOM     23  C   UNL     1      36.686 -21.272 -17.518  0.00  0.00    -0.016 C 
ATOM     24  C   UNL     1      37.214 -20.248 -18.302  0.00  0.00    -0.003 C 
ATOM     25  C   UNL     1      35.594 -22.010 -17.969  0.00  0.00    -0.003 C 
ATOM     26  C   UNL     1      36.647 -19.962 -19.544  0.00  0.00    +0.011 C 
ATOM     27  C   UNL     1      35.027 -21.724 -19.210  0.00  0.00    +0.011 C 
ATOM     28  C   UNL     1      35.554 -20.699 -19.998  0.00  0.00    +0.058 C 
ENDBRANCH  21  23
ENDBRANCH   6  21
TORSDOF 3
ENDMDL
MODEL 7
REMARK VINA RESULT:      -9.8     14.144     17.462
REMARK  Name = 2267
REMARK  3 active torsions:
REMARK  status: ('A' for Active; 'I' for Inactive)
REMARK    1  A    between atoms: N_2  and  C_13
REMARK    2  A    between atoms: C_6  and  C_21
REMARK    3  A    between atoms: C_21  and  C_23
REMARK                            x       y       z     vdW  Elec       q    Type
REMARK                         _______ _______ _______ _____ _____    ______ ____
ROOT
ATOM      1  O   UNL     1      31.816  -8.323 -20.443  0.00  0.00    -0.266 OA
ATOM      2  N   UNL     1      32.256  -8.815 -22.668  0.00  0.00    -0.219 N 
ATOM      3  N   UNL     1      32.322  -8.414 -23.972  0.00  0.00    -0.171 NA
ATOM      4  C   UNL     1      31.880  -7.976 -21.621  0.00  0.00    +0.276 A 
ATOM      5  C   UNL     1      31.541  -6.585 -21.972  0.00  0.00    +0.059 A 
ATOM      6  C   UNL     1      32.026  -7.193 -24.286  0.00  0.00    +0.083 A 
ATOM      7  C   UNL     1      31.609  -6.182 -23.300  0.00  0.00    +0.020 A 
ATOM      8  C   UNL     1      31.152  -5.676 -20.981  0.00  0.00    +0.005 C 
ATOM      9  C   UNL     1      31.290  -4.866 -23.650  0.00  0.00    +0.001 C 
ATOM     10  C   UNL     1      30.834  -4.364 -21.330  0.00  0.00    +0.000 C 
ATOM     11  C   UNL     1      30.903  -3.961 -22.662  0.00  0.00    +0.000 C 
ENDROOT
BRANCH   2  13
ATOM     12  N   UNL     1      33.751 -12.962 -22.497  0.00  0.00    +0.386 N 
ATOM     13  C   UNL     1      32.608 -10.202 -22.441  0.00  0.00    +0.106 C 
ATOM     14  C   UNL     1      31.389 -10.937 -21.877  0.00  0.00    +0.022 C 
ATOM     15  C   UNL     1      33.090 -10.829 -23.753  0.00  0.00    +0.002 C 
ATOM     16  C   UNL     1      31.653 -12.352 -21.369  0.00  0.00    -0.021 C 
ATOM     17  C   UNL     1      34.037 -12.022 -23.585  0.00  0.00    -0.075 C 
ATOM     18  C   UNL     1      32.335 -13.303 -22.355  0.00  0.00    -0.077 C 
ATOM     19  C   UNL     1      34.576 -14.162 -22.646  0.00  0.00    -0.101 C 
ATOM     20  H   UNL     1      33.994 -12.484 -21.630  0.00  0.00    -0.080 HD
ENDBRANCH   2  13
BRANCH   6  21
ATOM     21  C   UNL     1      32.117  -6.808 -25.744  0.00  0.00    +0.074 C 
BRANCH  21  23
ATOM     22 CL   UNL     1      37.354  -4.108 -26.887  0.00  0.00    -0.082 Cl
ATOM     23  C   UNL     1      33.422  -6.134 -26.028  0.00  0.00    -0.016 C 
ATOM     24  C   UNL     1      33.598  -5.441 -27.223  0.00  0.00    -0.003 C 
ATOM     25  C   UNL     1      34.457  -6.205 -25.098  0.00  0.00    -0.003 C 
ATOM     26  C   UNL     1      34.815  -4.813 -27.489  0.00  0.00    +0.011 C 
ATOM     27  C   UNL     1      35.673  -5.578 -25.364  0.00  0.00    +0.011 C 
ATOM     28  C   UNL     1      35.853  -4.882 -26.560  0.00  0.00    +0.058 C 
ENDBRANCH  21  23
ENDBRANCH   6  21
TORSDOF 3
ENDMDL
MODEL 8
REMARK VINA RESULT:      -9.1     14.040     17.621
REMARK  Name = 2267
REMARK  3 active torsions:
REMARK  status: ('A' for Active; 'I' for Inactive)
REMARK    1  A    between atoms: N_2  and  C_13
REMARK    2  A    between atoms: C_6  and  C_21
REMARK    3  A    between atoms: C_21  and  C_23
REMARK                            x       y       z     vdW  Elec       q    Type
REMARK                         _______ _______ _______ _____ _____    ______ ____
ROOT
ATOM      1  O   UNL     1      35.742  -9.269 -23.446  0.00  0.00    -0.266 OA
ATOM      2  N   UNL     1      33.429  -9.369 -23.288  0.00  0.00    -0.219 N 
ATOM      3  N   UNL     1      32.208  -8.801 -23.513  0.00  0.00    -0.171 NA
ATOM      4  C   UNL     1      34.636  -8.770 -23.642  0.00  0.00    +0.276 A 
ATOM      5  C   UNL     1      34.558  -7.450 -24.294  0.00  0.00    +0.059 A 
ATOM      6  C   UNL     1      32.133  -7.642 -24.086  0.00  0.00    +0.083 A 
ATOM      7  C   UNL     1      33.312  -6.875 -24.520  0.00  0.00    +0.020 A 
ATOM      8  C   UNL     1      35.723  -6.778 -24.682  0.00  0.00    +0.005 C 
ATOM      9  C   UNL     1      33.220  -5.623 -25.136  0.00  0.00    +0.001 C 
ATOM     10  C   UNL     1      35.630  -5.529 -25.296  0.00  0.00    +0.000 C 
ATOM     11  C   UNL     1      34.382  -4.954 -25.522  0.00  0.00    +0.000 C 
ENDROOT
BRANCH   2  13
ATOM     12  N   UNL     1      33.691 -13.521 -21.820  0.00  0.00    +0.386 N 
ATOM     13  C   UNL     1      33.385 -10.664 -22.640  0.00  0.00    +0.106 C 
ATOM     14  C   UNL     1      32.041 -10.814 -21.921  0.00  0.00    +0.022 C 
ATOM     15  C   UNL     1      33.593 -11.765 -23.684  0.00  0.00    +0.002 C 
ATOM     16  C   UNL     1      31.920 -12.025 -21.001  0.00  0.00    -0.021 C 
ATOM     17  C   UNL     1      34.170 -13.074 -23.132  0.00  0.00    -0.075 C 
ATOM     18  C   UNL     1      32.247 -13.382 -21.629  0.00  0.00    -0.077 C 
ATOM     19  C   UNL     1      34.131 -14.896 -21.572  0.00  0.00    -0.101 C 
ATOM     20  H   UNL     1      34.108 -12.897 -21.131  0.00  0.00    -0.080 HD
ENDBRANCH   2  13
BRANCH   6  21
ATOM     21  C   UNL     1      30.755  -7.064 -24.307  0.00  0.00    +0.074 C 
BRANCH  21  23
ATOM     22 CL   UNL     1      30.205  -1.786 -21.503  0.00  0.00    -0.082 Cl
ATOM     23  C   UNL     1      30.619  -5.748 -23.609  0.00  0.00    -0.016 C 
ATOM     24  C   UNL     1      30.590  -5.702 -22.217  0.00  0.00    -0.003 C 
ATOM     25  C   UNL     1      30.520  -4.574 -24.353  0.00  0.00    -0.003 C 
ATOM     26  C   UNL     1      30.462  -4.476 -21.565  0.00  0.00    +0.011 C 
ATOM     27  C   UNL     1      30.392  -3.348 -23.701  0.00  0.00    +0.011 C 
ATOM     28  C   UNL     1      30.363  -3.299 -22.307  0.00  0.00    +0.058 C 
ENDBRANCH  21  23
ENDBRANCH   6  21
TORSDOF 3
ENDMDL
