MODEL 1
REMARK VINA RESULT:     -10.9      0.000      0.000
REMARK  Name = 60939
REMARK  9 active torsions:
REMARK  status: ('A' for Active; 'I' for Inactive)
REMARK    1  A    between atoms: N_3  and  C_22
REMARK    2  A    between atoms: N_4  and  N_8
REMARK    3  A    between atoms: N_8  and  C_9
REMARK    4  A    between atoms: C_9  and  C_11
REMARK    5  A    between atoms: C_12  and  C_16
REMARK    6  A    between atoms: C_22  and  C_23
REMARK    7  A    between atoms: C_23  and  C_24
REMARK    8  A    between atoms: C_24  and  C_25
REMARK    9  A    between atoms: C_25  and  N_26
REMARK                            x       y       z     vdW  Elec       q    Type
REMARK                         _______ _______ _______ _____ _____    ______ ____
ROOT
ATOM      1  O   UNL     1      33.091 -11.706 -23.491  0.00  0.00    -0.273 OA
ATOM      2  O   UNL     1      32.296 -14.062 -19.611  0.00  0.00    -0.251 OA
ATOM      3  N   UNL     1      32.362 -12.647 -21.476  0.00  0.00    -0.212 N 
ATOM      4  N   UNL     1      33.925 -14.224 -21.288  0.00  0.00    -0.181 N 
ATOM      5  C   UNL     1      33.190 -12.520 -22.583  0.00  0.00    +0.254 C 
ATOM      6  C   UNL     1      32.799 -13.688 -20.662  0.00  0.00    +0.328 C 
ATOM      7  C   UNL     1      34.279 -13.574 -22.516  0.00  0.00    +0.200 C 
ENDROOT
BRANCH   4   8
ATOM      8  N   UNL     1      34.618 -15.256 -20.787  0.00  0.00    -0.118 NA
BRANCH   8   9
ATOM      9  C   UNL     1      35.296 -15.906 -21.677  0.00  0.00    +0.176 C 
BRANCH   9  11
ATOM     10  O   UNL     1      34.920 -18.113 -20.786  0.00  0.00    -0.456 OA
ATOM     11  C   UNL     1      35.130 -17.336 -21.880  0.00  0.00    +0.142 C 
ATOM     12  C   UNL     1      34.797 -19.390 -21.235  0.00  0.00    +0.145 C 
ATOM     13  C   UNL     1      35.142 -18.102 -23.023  0.00  0.00    +0.038 C 
ATOM     14  C   UNL     1      34.927 -19.437 -22.602  0.00  0.00    +0.040 C 
BRANCH  12  16
ATOM     15 CL   UNL     1      33.838 -23.490 -17.035  0.00  0.00    -0.082 Cl
ATOM     16  C   UNL     1      34.566 -20.380 -20.220  0.00  0.00    +0.035 C 
ATOM     17  C   UNL     1      33.262 -20.691 -19.833  0.00  0.00    +0.004 C 
ATOM     18  C   UNL     1      35.645 -21.032 -19.621  0.00  0.00    +0.004 C 
ATOM     19  C   UNL     1      33.037 -21.652 -18.848  0.00  0.00    +0.011 C 
ATOM     20  C   UNL     1      35.420 -21.992 -18.637  0.00  0.00    +0.011 C 
ATOM     21  C   UNL     1      34.116 -22.303 -18.250  0.00  0.00    +0.058 C 
ENDBRANCH  12  16
ENDBRANCH   9  11
ENDBRANCH   8   9
ENDBRANCH   4   8
BRANCH   3  22
ATOM     22  C   UNL     1      31.217 -11.820 -21.211  0.00  0.00    +0.102 C 
BRANCH  22  23
ATOM     23  C   UNL     1      31.490 -10.777 -20.132  0.00  0.00    +0.020 C 
BRANCH  23  24
ATOM     24  C   UNL     1      31.848  -9.406 -20.714  0.00  0.00    -0.021 C 
BRANCH  24  25
ATOM     25  C   UNL     1      31.289  -9.244 -22.127  0.00  0.00    -0.077 C 
BRANCH  25  26
ATOM     26  N   UNL     1      32.302  -8.669 -23.010  0.00  0.00    +0.384 N 
ATOM     27  N   UNL     1      33.956  -6.497 -23.961  0.00  0.00    +0.383 N 
ATOM     28  C   UNL     1      33.457  -8.195 -22.237  0.00  0.00    -0.101 C 
ATOM     29  C   UNL     1      31.737  -7.575 -23.809  0.00  0.00    -0.101 C 
ATOM     30  C   UNL     1      34.520  -7.590 -23.161  0.00  0.00    -0.101 C 
ATOM     31  C   UNL     1      32.800  -6.969 -24.733  0.00  0.00    -0.101 C 
ATOM     32  C   UNL     1      34.969  -5.923 -24.844  0.00  0.00    -0.101 C 
ATOM     33  H   UNL     1      32.619  -9.401 -23.645  0.00  0.00    -0.080 HD
ATOM     34  H   UNL     1      33.640  -5.763 -23.326  0.00  0.00    -0.080 HD
ENDBRANCH  25  26
ENDBRANCH  24  25
ENDBRANCH  23  24
ENDBRANCH  22  23
ENDBRANCH   3  22
TORSDOF 9
ENDMDL
MODEL 2
REMARK VINA RESULT:     -10.8      4.278      8.170
REMARK  Name = 60939
REMARK  9 active torsions:
REMARK  status: ('A' for Active; 'I' for Inactive)
REMARK    1  A    between atoms: N_3  and  C_22
REMARK    2  A    between atoms: N_4  and  N_8
REMARK    3  A    between atoms: N_8  and  C_9
REMARK    4  A    between atoms: C_9  and  C_11
REMARK    5  A    between atoms: C_12  and  C_16
REMARK    6  A    between atoms: C_22  and  C_23
REMARK    7  A    between atoms: C_23  and  C_24
REMARK    8  A    between atoms: C_24  and  C_25
REMARK    9  A    between atoms: C_25  and  N_26
REMARK                            x       y       z     vdW  Elec       q    Type
REMARK                         _______ _______ _______ _____ _____    ______ ____
ROOT
ATOM      1  O   UNL     1      36.957 -20.083 -19.689  0.00  0.00    -0.273 OA
ATOM      2  O   UNL     1      32.470 -20.967 -20.255  0.00  0.00    -0.251 OA
ATOM      3  N   UNL     1      34.685 -20.205 -20.233  0.00  0.00    -0.212 N 
ATOM      4  N   UNL     1      34.165 -21.984 -18.996  0.00  0.00    -0.181 N 
ATOM      5  C   UNL     1      35.852 -20.601 -19.596  0.00  0.00    +0.254 C 
ATOM      6  C   UNL     1      33.631 -21.041 -19.874  0.00  0.00    +0.328 C 
ATOM      7  C   UNL     1      35.565 -21.817 -18.737  0.00  0.00    +0.200 C 
ENDROOT
BRANCH   4   8
ATOM      8  N   UNL     1      33.435 -22.962 -18.441  0.00  0.00    -0.118 NA
BRANCH   8   9
ATOM      9  C   UNL     1      32.996 -22.673 -17.258  0.00  0.00    +0.176 C 
BRANCH   9  11
ATOM     10  O   UNL     1      34.809 -23.722 -16.066  0.00  0.00    -0.456 OA
ATOM     11  C   UNL     1      33.509 -23.328 -16.066  0.00  0.00    +0.142 C 
ATOM     12  C   UNL     1      35.041 -24.298 -14.857  0.00  0.00    +0.145 C 
ATOM     13  C   UNL     1      32.907 -23.647 -14.870  0.00  0.00    +0.038 C 
ATOM     14  C   UNL     1      33.903 -24.278 -14.086  0.00  0.00    +0.040 C 
BRANCH  12  16
ATOM     15 CL   UNL     1      40.570 -26.320 -14.019  0.00  0.00    -0.082 Cl
ATOM     16  C   UNL     1      36.376 -24.786 -14.654  0.00  0.00    +0.035 C 
ATOM     17  C   UNL     1      36.589 -26.133 -14.359  0.00  0.00    +0.004 C 
ATOM     18  C   UNL     1      37.461 -23.914 -14.753  0.00  0.00    +0.004 C 
ATOM     19  C   UNL     1      37.886 -26.607 -14.162  0.00  0.00    +0.011 C 
ATOM     20  C   UNL     1      38.757 -24.388 -14.556  0.00  0.00    +0.011 C 
ATOM     21  C   UNL     1      38.970 -25.734 -14.261  0.00  0.00    +0.058 C 
ENDBRANCH  12  16
ENDBRANCH   9  11
ENDBRANCH   8   9
ENDBRANCH   4   8
BRANCH   3  22
ATOM     22  C   UNL     1      34.580 -19.090 -21.135  0.00  0.00    +0.102 C 
BRANCH  22  23
ATOM     23  C   UNL     1      34.985 -19.453 -22.559  0.00  0.00    +0.020 C 
BRANCH  23  24
ATOM     24  C   UNL     1      34.193 -18.676 -23.614  0.00  0.00    -0.021 C 
BRANCH  24  25
ATOM     25  C   UNL     1      34.956 -17.433 -24.072  0.00  0.00    -0.077 C 
BRANCH  25  26
ATOM     26  N   UNL     1      34.236 -16.223 -23.678  0.00  0.00    +0.384 N 
ATOM     27  N   UNL     1      33.923 -13.355 -23.503  0.00  0.00    +0.383 N 
ATOM     28  C   UNL     1      33.882 -15.421 -24.856  0.00  0.00    -0.101 C 
ATOM     29  C   UNL     1      35.032 -15.426 -22.737  0.00  0.00    -0.101 C 
ATOM     30  C   UNL     1      33.128 -14.151 -24.444  0.00  0.00    -0.101 C 
ATOM     31  C   UNL     1      34.279 -14.156 -22.325  0.00  0.00    -0.101 C 
ATOM     32  C   UNL     1      33.202 -12.146 -23.108  0.00  0.00    -0.101 C 
ATOM     33  H   UNL     1      33.375 -16.506 -23.211  0.00  0.00    -0.080 HD
ATOM     34  H   UNL     1      34.784 -13.069 -23.969  0.00  0.00    -0.080 HD
ENDBRANCH  25  26
ENDBRANCH  24  25
ENDBRANCH  23  24
ENDBRANCH  22  23
ENDBRANCH   3  22
TORSDOF 9
ENDMDL
MODEL 3
REMARK VINA RESULT:     -10.8      1.428      1.830
REMARK  Name = 60939
REMARK  9 active torsions:
REMARK  status: ('A' for Active; 'I' for Inactive)
REMARK    1  A    between atoms: N_3  and  C_22
REMARK    2  A    between atoms: N_4  and  N_8
REMARK    3  A    between atoms: N_8  and  C_9
REMARK    4  A    between atoms: C_9  and  C_11
REMARK    5  A    between atoms: C_12  and  C_16
REMARK    6  A    between atoms: C_22  and  C_23
REMARK    7  A    between atoms: C_23  and  C_24
REMARK    8  A    between atoms: C_24  and  C_25
REMARK    9  A    between atoms: C_25  and  N_26
REMARK                            x       y       z     vdW  Elec       q    Type
REMARK                         _______ _______ _______ _____ _____    ______ ____
ROOT
ATOM      1  O   UNL     1      33.340 -11.737 -23.813  0.00  0.00    -0.273 OA
ATOM      2  O   UNL     1      32.229 -13.963 -19.934  0.00  0.00    -0.251 OA
ATOM      3  N   UNL     1      32.463 -12.594 -21.821  0.00  0.00    -0.212 N 
ATOM      4  N   UNL     1      33.929 -14.245 -21.522  0.00  0.00    -0.181 N 
ATOM      5  C   UNL     1      33.350 -12.535 -22.886  0.00  0.00    +0.254 C 
ATOM      6  C   UNL     1      32.803 -13.638 -20.965  0.00  0.00    +0.328 C 
ATOM      7  C   UNL     1      34.377 -13.641 -22.743  0.00  0.00    +0.200 C 
ENDROOT
BRANCH   4   8
ATOM      8  N   UNL     1      34.540 -15.301 -20.967  0.00  0.00    -0.118 NA
BRANCH   8   9
ATOM      9  C   UNL     1      35.274 -15.970 -21.797  0.00  0.00    +0.176 C 
BRANCH   9  11
ATOM     10  O   UNL     1      34.893 -18.155 -20.855  0.00  0.00    -0.456 OA
ATOM     11  C   UNL     1      35.133 -17.407 -21.963  0.00  0.00    +0.142 C 
ATOM     12  C   UNL     1      34.802 -19.446 -21.270  0.00  0.00    +0.145 C 
ATOM     13  C   UNL     1      35.198 -18.207 -23.081  0.00  0.00    +0.038 C 
ATOM     14  C   UNL     1      34.983 -19.531 -22.630  0.00  0.00    +0.040 C 
BRANCH  12  16
ATOM     15 CL   UNL     1      33.741 -23.427 -16.981  0.00  0.00    -0.082 Cl
ATOM     16  C   UNL     1      34.546 -20.409 -20.235  0.00  0.00    +0.035 C 
ATOM     17  C   UNL     1      35.607 -21.080 -19.628  0.00  0.00    +0.004 C 
ATOM     18  C   UNL     1      33.235 -20.670 -19.834  0.00  0.00    +0.004 C 
ATOM     19  C   UNL     1      35.359 -22.014 -18.623  0.00  0.00    +0.011 C 
ATOM     20  C   UNL     1      32.986 -21.604 -18.829  0.00  0.00    +0.011 C 
ATOM     21  C   UNL     1      34.048 -22.276 -18.223  0.00  0.00    +0.058 C 
ENDBRANCH  12  16
ENDBRANCH   9  11
ENDBRANCH   8   9
ENDBRANCH   4   8
BRANCH   3  22
ATOM     22  C   UNL     1      31.351 -11.703 -21.629  0.00  0.00    +0.102 C 
BRANCH  22  23
ATOM     23  C   UNL     1      31.412 -10.974 -20.292  0.00  0.00    +0.020 C 
BRANCH  23  24
ATOM     24  C   UNL     1      31.628  -9.466 -20.450  0.00  0.00    -0.021 C 
BRANCH  24  25
ATOM     25  C   UNL     1      31.968  -9.108 -21.897  0.00  0.00    -0.077 C 
BRANCH  25  26
ATOM     26  N   UNL     1      31.974  -7.656 -22.070  0.00  0.00    +0.384 N 
ATOM     27  N   UNL     1      30.871  -5.012 -21.686  0.00  0.00    +0.383 N 
ATOM     28  C   UNL     1      32.056  -6.977 -20.771  0.00  0.00    -0.101 C 
ATOM     29  C   UNL     1      30.782  -7.214 -22.804  0.00  0.00    -0.101 C 
ATOM     30  C   UNL     1      32.062  -5.454 -20.952  0.00  0.00    -0.101 C 
ATOM     31  C   UNL     1      30.787  -5.691 -22.985  0.00  0.00    -0.101 C 
ATOM     32  C   UNL     1      30.879  -3.560 -21.860  0.00  0.00    -0.101 C 
ATOM     33  H   UNL     1      32.798  -7.408 -22.616  0.00  0.00    -0.080 HD
ATOM     34  H   UNL     1      30.046  -5.259 -21.139  0.00  0.00    -0.080 HD
ENDBRANCH  25  26
ENDBRANCH  24  25
ENDBRANCH  23  24
ENDBRANCH  22  23
ENDBRANCH   3  22
TORSDOF 9
ENDMDL
MODEL 4
REMARK VINA RESULT:     -10.7      4.365     11.536
REMARK  Name = 60939
REMARK  9 active torsions:
REMARK  status: ('A' for Active; 'I' for Inactive)
REMARK    1  A    between atoms: N_3  and  C_22
REMARK    2  A    between atoms: N_4  and  N_8
REMARK    3  A    between atoms: N_8  and  C_9
REMARK    4  A    between atoms: C_9  and  C_11
REMARK    5  A    between atoms: C_12  and  C_16
REMARK    6  A    between atoms: C_22  and  C_23
REMARK    7  A    between atoms: C_23  and  C_24
REMARK    8  A    between atoms: C_24  and  C_25
REMARK    9  A    between atoms: C_25  and  N_26
REMARK                            x       y       z     vdW  Elec       q    Type
REMARK                         _______ _______ _______ _____ _____    ______ ____
ROOT
ATOM      1  O   UNL     1      33.371 -15.623 -25.850  0.00  0.00    -0.273 OA
ATOM      2  O   UNL     1      35.023 -15.487 -21.551  0.00  0.00    -0.251 OA
ATOM      3  N   UNL     1      34.400 -15.910 -23.769  0.00  0.00    -0.212 N 
ATOM      4  N   UNL     1      33.622 -14.070 -22.783  0.00  0.00    -0.181 N 
ATOM      5  C   UNL     1      33.605 -15.263 -24.705  0.00  0.00    +0.254 C 
ATOM      6  C   UNL     1      34.421 -15.194 -22.575  0.00  0.00    +0.328 C 
ATOM      7  C   UNL     1      33.045 -13.994 -24.093  0.00  0.00    +0.200 C 
ENDROOT
BRANCH   4   8
ATOM      8  N   UNL     1      33.409 -13.140 -21.841  0.00  0.00    -0.118 NA
BRANCH   8   9
ATOM      9  C   UNL     1      32.324 -12.457 -22.022  0.00  0.00    +0.176 C 
BRANCH   9  11
ATOM     10  O   UNL     1      32.075 -10.070 -21.808  0.00  0.00    -0.456 OA
ATOM     11  C   UNL     1      32.004 -11.291 -21.216  0.00  0.00    +0.142 C 
ATOM     12  C   UNL     1      31.734  -9.158 -20.859  0.00  0.00    +0.145 C 
ATOM     13  C   UNL     1      31.622 -11.169 -19.900  0.00  0.00    +0.038 C 
ATOM     14  C   UNL     1      31.448  -9.784 -19.668  0.00  0.00    +0.040 C 
BRANCH  12  16
ATOM     15 CL   UNL     1      31.788  -3.486 -22.642  0.00  0.00    -0.082 Cl
ATOM     16  C   UNL     1      31.746  -7.789 -21.289  0.00  0.00    +0.035 C 
ATOM     17  C   UNL     1      32.324  -6.809 -20.482  0.00  0.00    +0.004 C 
ATOM     18  C   UNL     1      31.182  -7.437 -22.516  0.00  0.00    +0.004 C 
ATOM     19  C   UNL     1      32.337  -5.478 -20.900  0.00  0.00    +0.011 C 
ATOM     20  C   UNL     1      31.194  -6.107 -22.934  0.00  0.00    +0.011 C 
ATOM     21  C   UNL     1      31.772  -5.128 -22.126  0.00  0.00    +0.058 C 
ENDBRANCH  12  16
ENDBRANCH   9  11
ENDBRANCH   8   9
ENDBRANCH   4   8
BRANCH   3  22
ATOM     22  C   UNL     1      35.102 -17.142 -24.001  0.00  0.00    +0.102 C 
BRANCH  22  23
ATOM     23  C   UNL     1      34.207 -18.364 -23.823  0.00  0.00    +0.020 C 
BRANCH  23  24
ATOM     24  C   UNL     1      34.815 -19.408 -22.881  0.00  0.00    -0.021 C 
BRANCH  24  25
ATOM     25  C   UNL     1      35.343 -18.756 -21.603  0.00  0.00    -0.077 C 
BRANCH  25  26
ATOM     26  N   UNL     1      34.948 -19.540 -20.434  0.00  0.00    +0.384 N 
ATOM     27  N   UNL     1      34.200 -22.003 -19.118  0.00  0.00    +0.383 N 
ATOM     28  C   UNL     1      35.941 -20.585 -20.148  0.00  0.00    -0.101 C 
ATOM     29  C   UNL     1      33.621 -20.136 -20.630  0.00  0.00    -0.101 C 
ATOM     30  C   UNL     1      35.527 -21.408 -18.924  0.00  0.00    -0.101 C 
ATOM     31  C   UNL     1      33.207 -20.960 -19.406  0.00  0.00    -0.101 C 
ATOM     32  C   UNL     1      33.806 -22.786 -17.948  0.00  0.00    -0.101 C 
ATOM     33  H   UNL     1      34.904 -18.911 -19.633  0.00  0.00    -0.080 HD
ATOM     34  H   UNL     1      34.245 -22.635 -19.919  0.00  0.00    -0.080 HD
ENDBRANCH  25  26
ENDBRANCH  24  25
ENDBRANCH  23  24
ENDBRANCH  22  23
ENDBRANCH   3  22
TORSDOF 9
ENDMDL
MODEL 5
REMARK VINA RESULT:     -10.6      7.616     12.790
REMARK  Name = 60939
REMARK  9 active torsions:
REMARK  status: ('A' for Active; 'I' for Inactive)
REMARK    1  A    between atoms: N_3  and  C_22
REMARK    2  A    between atoms: N_4  and  N_8
REMARK    3  A    between atoms: N_8  and  C_9
REMARK    4  A    between atoms: C_9  and  C_11
REMARK    5  A    between atoms: C_12  and  C_16
REMARK    6  A    between atoms: C_22  and  C_23
REMARK    7  A    between atoms: C_23  and  C_24
REMARK    8  A    between atoms: C_24  and  C_25
REMARK    9  A    between atoms: C_25  and  N_26
REMARK                            x       y       z     vdW  Elec       q    Type
REMARK                         _______ _______ _______ _____ _____    ______ ____
ROOT
ATOM      1  O   UNL     1      37.858 -25.011 -13.835  0.00  0.00    -0.273 OA
ATOM      2  O   UNL     1      34.417 -22.640 -15.777  0.00  0.00    -0.251 OA
ATOM      3  N   UNL     1      35.863 -24.073 -14.618  0.00  0.00    -0.212 N 
ATOM      4  N   UNL     1      36.751 -22.443 -15.852  0.00  0.00    -0.181 N 
ATOM      5  C   UNL     1      37.241 -24.184 -14.492  0.00  0.00    +0.254 C 
ATOM      6  C   UNL     1      35.539 -23.009 -15.456  0.00  0.00    +0.328 C 
ATOM      7  C   UNL     1      37.907 -23.095 -15.310  0.00  0.00    +0.200 C 
ENDROOT
BRANCH   4   8
ATOM      8  N   UNL     1      36.830 -21.384 -16.668  0.00  0.00    -0.118 NA
BRANCH   8   9
ATOM      9  C   UNL     1      36.827 -21.696 -17.925  0.00  0.00    +0.176 C 
BRANCH   9  11
ATOM     10  O   UNL     1      35.978 -20.331 -19.720  0.00  0.00    -0.456 OA
ATOM     11  C   UNL     1      35.741 -21.312 -18.811  0.00  0.00    +0.142 C 
ATOM     12  C   UNL     1      34.824 -20.161 -20.418  0.00  0.00    +0.145 C 
ATOM     13  C   UNL     1      34.448 -21.770 -18.920  0.00  0.00    +0.038 C 
ATOM     14  C   UNL     1      33.853 -21.021 -19.963  0.00  0.00    +0.040 C 
BRANCH  12  16
ATOM     15 CL   UNL     1      35.007 -15.997 -24.659  0.00  0.00    -0.082 Cl
ATOM     16  C   UNL     1      34.867 -19.155 -21.442  0.00  0.00    +0.035 C 
ATOM     17  C   UNL     1      35.322 -17.871 -21.140  0.00  0.00    +0.004 C 
ATOM     18  C   UNL     1      34.457 -19.462 -22.740  0.00  0.00    +0.004 C 
ATOM     19  C   UNL     1      35.364 -16.894 -22.134  0.00  0.00    +0.011 C 
ATOM     20  C   UNL     1      34.499 -18.486 -23.734  0.00  0.00    +0.011 C 
ATOM     21  C   UNL     1      34.954 -17.202 -23.432  0.00  0.00    +0.058 C 
ENDBRANCH  12  16
ENDBRANCH   9  11
ENDBRANCH   8   9
ENDBRANCH   4   8
BRANCH   3  22
ATOM     22  C   UNL     1      34.909 -24.934 -13.975  0.00  0.00    +0.102 C 
BRANCH  22  23
ATOM     23  C   UNL     1      34.226 -24.264 -12.788  0.00  0.00    +0.020 C 
BRANCH  23  24
ATOM     24  C   UNL     1      32.782 -23.856 -13.091  0.00  0.00    -0.021 C 
BRANCH  24  25
ATOM     25  C   UNL     1      31.943 -25.065 -13.505  0.00  0.00    -0.077 C 
BRANCH  25  26
ATOM     26  N   UNL     1      31.006 -24.692 -14.563  0.00  0.00    +0.384 N 
ATOM     27  N   UNL     1      28.752 -23.210 -15.603  0.00  0.00    +0.383 N 
ATOM     28  C   UNL     1      31.110 -23.260 -14.871  0.00  0.00    -0.101 C 
ATOM     29  C   UNL     1      29.629 -25.034 -14.185  0.00  0.00    -0.101 C 
ATOM     30  C   UNL     1      30.127 -22.868 -15.980  0.00  0.00    -0.101 C 
ATOM     31  C   UNL     1      28.645 -24.642 -15.293  0.00  0.00    -0.101 C 
ATOM     32  C   UNL     1      27.815 -22.839 -16.662  0.00  0.00    -0.101 C 
ATOM     33  H   UNL     1      31.250 -25.220 -15.401  0.00  0.00    -0.080 HD
ATOM     34  H   UNL     1      28.506 -22.681 -14.765  0.00  0.00    -0.080 HD
ENDBRANCH  25  26
ENDBRANCH  24  25
ENDBRANCH  23  24
ENDBRANCH  22  23
ENDBRANCH   3  22
TORSDOF 9
ENDMDL
MODEL 6
REMARK VINA RESULT:     -10.5      2.312      3.957
REMARK  Name = 60939
REMARK  9 active torsions:
REMARK  status: ('A' for Active; 'I' for Inactive)
REMARK    1  A    between atoms: N_3  and  C_22
REMARK    2  A    between atoms: N_4  and  N_8
REMARK    3  A    between atoms: N_8  and  C_9
REMARK    4  A    between atoms: C_9  and  C_11
REMARK    5  A    between atoms: C_12  and  C_16
REMARK    6  A    between atoms: C_22  and  C_23
REMARK    7  A    between atoms: C_23  and  C_24
REMARK    8  A    between atoms: C_24  and  C_25
REMARK    9  A    between atoms: C_25  and  N_26
REMARK                            x       y       z     vdW  Elec       q    Type
REMARK                         _______ _______ _______ _____ _____    ______ ____
ROOT
ATOM      1  O   UNL     1      34.848 -16.368 -24.825  0.00  0.00    -0.273 OA
ATOM      2  O   UNL     1      34.991 -15.698 -20.268  0.00  0.00    -0.251 OA
ATOM      3  N   UNL     1      34.823 -15.634 -22.604  0.00  0.00    -0.212 N 
ATOM      4  N   UNL     1      35.319 -17.576 -21.630  0.00  0.00    -0.181 N 
ATOM      5  C   UNL     1      34.968 -16.564 -23.623  0.00  0.00    +0.254 C 
ATOM      6  C   UNL     1      35.040 -16.235 -21.366  0.00  0.00    +0.328 C 
ATOM      7  C   UNL     1      35.304 -17.916 -23.023  0.00  0.00    +0.200 C 
ENDROOT
BRANCH   4   8
ATOM      8  N   UNL     1      35.579 -18.472 -20.667  0.00  0.00    -0.118 NA
BRANCH   8   9
ATOM      9  C   UNL     1      35.203 -19.675 -20.962  0.00  0.00    +0.176 C 
BRANCH   9  11
ATOM     10  O   UNL     1      35.510 -20.989 -18.966  0.00  0.00    -0.456 OA
ATOM     11  C   UNL     1      34.676 -20.584 -19.959  0.00  0.00    +0.142 C 
ATOM     12  C   UNL     1      34.789 -21.821 -18.169  0.00  0.00    +0.145 C 
ATOM     13  C   UNL     1      33.430 -21.149 -19.805  0.00  0.00    +0.038 C 
ATOM     14  C   UNL     1      33.505 -21.953 -18.642  0.00  0.00    +0.040 C 
BRANCH  12  16
ATOM     15 CL   UNL     1      37.728 -24.060 -13.509  0.00  0.00    -0.082 Cl
ATOM     16  C   UNL     1      35.499 -22.363 -17.044  0.00  0.00    +0.035 C 
ATOM     17  C   UNL     1      36.855 -22.083 -16.875  0.00  0.00    +0.004 C 
ATOM     18  C   UNL     1      34.832 -23.167 -16.119  0.00  0.00    +0.004 C 
ATOM     19  C   UNL     1      37.545 -22.608 -15.782  0.00  0.00    +0.011 C 
ATOM     20  C   UNL     1      35.521 -23.692 -15.027  0.00  0.00    +0.011 C 
ATOM     21  C   UNL     1      36.877 -23.413 -14.858  0.00  0.00    +0.058 C 
ENDBRANCH  12  16
ENDBRANCH   9  11
ENDBRANCH   8   9
ENDBRANCH   4   8
BRANCH   3  22
ATOM     22  C   UNL     1      34.497 -14.248 -22.799  0.00  0.00    +0.102 C 
BRANCH  22  23
ATOM     23  C   UNL     1      33.104 -13.900 -22.285  0.00  0.00    +0.020 C 
BRANCH  23  24
ATOM     24  C   UNL     1      32.527 -12.646 -22.948  0.00  0.00    -0.021 C 
BRANCH  24  25
ATOM     25  C   UNL     1      31.603 -11.892 -21.992  0.00  0.00    -0.077 C 
BRANCH  25  26
ATOM     26  N   UNL     1      31.724 -10.451 -22.201  0.00  0.00    +0.384 N 
ATOM     27  N   UNL     1      33.127  -7.930 -22.013  0.00  0.00    +0.383 N 
ATOM     28  C   UNL     1      32.865 -10.145 -23.074  0.00  0.00    -0.101 C 
ATOM     29  C   UNL     1      31.859  -9.747 -20.920  0.00  0.00    -0.101 C 
ATOM     30  C   UNL     1      32.994  -8.634 -23.293  0.00  0.00    -0.101 C 
ATOM     31  C   UNL     1      31.988  -8.235 -21.138  0.00  0.00    -0.101 C 
ATOM     32  C   UNL     1      33.248  -6.488 -22.223  0.00  0.00    -0.101 C 
ATOM     33  H   UNL     1      30.873 -10.126 -22.658  0.00  0.00    -0.080 HD
ATOM     34  H   UNL     1      33.980  -8.253 -21.555  0.00  0.00    -0.080 HD
ENDBRANCH  25  26
ENDBRANCH  24  25
ENDBRANCH  23  24
ENDBRANCH  22  23
ENDBRANCH   3  22
TORSDOF 9
ENDMDL
MODEL 7
REMARK VINA RESULT:     -10.5      1.488      2.277
REMARK  Name = 60939
REMARK  9 active torsions:
REMARK  status: ('A' for Active; 'I' for Inactive)
REMARK    1  A    between atoms: N_3  and  C_22
REMARK    2  A    between atoms: N_4  and  N_8
REMARK    3  A    between atoms: N_8  and  C_9
REMARK    4  A    between atoms: C_9  and  C_11
REMARK    5  A    between atoms: C_12  and  C_16
REMARK    6  A    between atoms: C_22  and  C_23
REMARK    7  A    between atoms: C_23  and  C_24
REMARK    8  A    between atoms: C_24  and  C_25
REMARK    9  A    between atoms: C_25  and  N_26
REMARK                            x       y       z     vdW  Elec       q    Type
REMARK                         _______ _______ _______ _____ _____    ______ ____
ROOT
ATOM      1  O   UNL     1      32.278 -12.767 -19.510  0.00  0.00    -0.273 OA
ATOM      2  O   UNL     1      33.043 -13.253 -24.029  0.00  0.00    -0.251 OA
ATOM      3  N   UNL     1      32.382 -12.713 -21.847  0.00  0.00    -0.212 N 
ATOM      4  N   UNL     1      33.933 -14.289 -22.125  0.00  0.00    -0.181 N 
ATOM      5  C   UNL     1      32.729 -13.158 -20.579  0.00  0.00    +0.254 C 
ATOM      6  C   UNL     1      33.109 -13.401 -22.816  0.00  0.00    +0.328 C 
ATOM      7  C   UNL     1      33.790 -14.235 -20.699  0.00  0.00    +0.200 C 
ENDROOT
BRANCH   4   8
ATOM      8  N   UNL     1      34.785 -15.123 -22.737  0.00  0.00    -0.118 NA
BRANCH   8   9
ATOM      9  C   UNL     1      35.348 -15.970 -21.936  0.00  0.00    +0.176 C 
BRANCH   9  11
ATOM     10  O   UNL     1      34.957 -18.135 -20.953  0.00  0.00    -0.456 OA
ATOM     11  C   UNL     1      35.165 -17.405 -22.080  0.00  0.00    +0.142 C 
ATOM     12  C   UNL     1      34.817 -19.428 -21.349  0.00  0.00    +0.145 C 
ATOM     13  C   UNL     1      35.159 -18.216 -23.191  0.00  0.00    +0.038 C 
ATOM     14  C   UNL     1      34.934 -19.531 -22.715  0.00  0.00    +0.040 C 
BRANCH  12  16
ATOM     15 CL   UNL     1      33.855 -23.345 -16.980  0.00  0.00    -0.082 Cl
ATOM     16  C   UNL     1      34.585 -20.373 -20.293  0.00  0.00    +0.035 C 
ATOM     17  C   UNL     1      33.281 -20.669 -19.896  0.00  0.00    +0.004 C 
ATOM     18  C   UNL     1      35.664 -20.997 -19.665  0.00  0.00    +0.004 C 
ATOM     19  C   UNL     1      33.055 -21.588 -18.871  0.00  0.00    +0.011 C 
ATOM     20  C   UNL     1      35.438 -21.915 -18.641  0.00  0.00    +0.011 C 
ATOM     21  C   UNL     1      34.134 -22.211 -18.244  0.00  0.00    +0.058 C 
ENDBRANCH  12  16
ENDBRANCH   9  11
ENDBRANCH   8   9
ENDBRANCH   4   8
BRANCH   3  22
ATOM     22  C   UNL     1      31.411 -11.690 -22.120  0.00  0.00    +0.102 C 
BRANCH  22  23
ATOM     23  C   UNL     1      32.000 -10.287 -22.023  0.00  0.00    +0.020 C 
BRANCH  23  24
ATOM     24  C   UNL     1      32.614  -9.812 -23.343  0.00  0.00    -0.021 C 
BRANCH  24  25
ATOM     25  C   UNL     1      33.374  -8.499 -23.156  0.00  0.00    -0.077 C 
BRANCH  25  26
ATOM     26  N   UNL     1      32.467  -7.451 -22.691  0.00  0.00    +0.384 N 
ATOM     27  N   UNL     1      31.754  -4.692 -22.206  0.00  0.00    +0.383 N 
ATOM     28  C   UNL     1      32.102  -6.552 -23.794  0.00  0.00    -0.101 C 
ATOM     29  C   UNL     1      33.070  -6.691 -21.590  0.00  0.00    -0.101 C 
ATOM     30  C   UNL     1      31.152  -5.451 -23.307  0.00  0.00    -0.101 C 
ATOM     31  C   UNL     1      32.121  -5.590 -21.103  0.00  0.00    -0.101 C 
ATOM     32  C   UNL     1      30.846  -3.645 -21.741  0.00  0.00    -0.101 C 
ATOM     33  H   UNL     1      31.619  -7.898 -22.347  0.00  0.00    -0.080 HD
ATOM     34  H   UNL     1      32.603  -4.242 -22.550  0.00  0.00    -0.080 HD
ENDBRANCH  25  26
ENDBRANCH  24  25
ENDBRANCH  23  24
ENDBRANCH  22  23
ENDBRANCH   3  22
TORSDOF 9
ENDMDL
MODEL 8
REMARK VINA RESULT:     -10.4      3.806      7.670
REMARK  Name = 60939
REMARK  9 active torsions:
REMARK  status: ('A' for Active; 'I' for Inactive)
REMARK    1  A    between atoms: N_3  and  C_22
REMARK    2  A    between atoms: N_4  and  N_8
REMARK    3  A    between atoms: N_8  and  C_9
REMARK    4  A    between atoms: C_9  and  C_11
REMARK    5  A    between atoms: C_12  and  C_16
REMARK    6  A    between atoms: C_22  and  C_23
REMARK    7  A    between atoms: C_23  and  C_24
REMARK    8  A    between atoms: C_24  and  C_25
REMARK    9  A    between atoms: C_25  and  N_26
REMARK                            x       y       z     vdW  Elec       q    Type
REMARK                         _______ _______ _______ _____ _____    ______ ____
ROOT
ATOM      1  O   UNL     1      32.543 -20.563 -20.346  0.00  0.00    -0.273 OA
ATOM      2  O   UNL     1      37.074 -19.785 -20.040  0.00  0.00    -0.251 OA
ATOM      3  N   UNL     1      34.770 -19.853 -20.452  0.00  0.00    -0.212 N 
ATOM      4  N   UNL     1      35.643 -21.365 -19.069  0.00  0.00    -0.181 N 
ATOM      5  C   UNL     1      33.721 -20.657 -20.029  0.00  0.00    +0.254 C 
ATOM      6  C   UNL     1      35.965 -20.274 -19.876  0.00  0.00    +0.328 C 
ATOM      7  C   UNL     1      34.252 -21.711 -19.077  0.00  0.00    +0.200 C 
ENDROOT
BRANCH   4   8
ATOM      8  N   UNL     1      36.554 -22.035 -18.348  0.00  0.00    -0.118 NA
BRANCH   8   9
ATOM      9  C   UNL     1      36.676 -21.602 -17.135  0.00  0.00    +0.176 C 
BRANCH   9  11
ATOM     10  O   UNL     1      34.819 -22.649 -16.013  0.00  0.00    -0.456 OA
ATOM     11  C   UNL     1      36.139 -22.331 -15.998  0.00  0.00    +0.142 C 
ATOM     12  C   UNL     1      34.568 -23.320 -14.857  0.00  0.00    +0.145 C 
ATOM     13  C   UNL     1      36.735 -22.791 -14.846  0.00  0.00    +0.038 C 
ATOM     14  C   UNL     1      35.713 -23.432 -14.105  0.00  0.00    +0.040 C 
BRANCH  12  16
ATOM     15 CL   UNL     1      28.944 -25.107 -14.121  0.00  0.00    -0.082 Cl
ATOM     16  C   UNL     1      33.210 -23.751 -14.678  0.00  0.00    +0.035 C 
ATOM     17  C   UNL     1      32.216 -23.305 -15.551  0.00  0.00    +0.004 C 
ATOM     18  C   UNL     1      32.884 -24.616 -13.634  0.00  0.00    +0.004 C 
ATOM     19  C   UNL     1      30.897 -23.725 -15.378  0.00  0.00    +0.011 C 
ATOM     20  C   UNL     1      31.565 -25.035 -13.461  0.00  0.00    +0.011 C 
ATOM     21  C   UNL     1      30.572 -24.590 -14.333  0.00  0.00    +0.058 C 
ENDBRANCH  12  16
ENDBRANCH   9  11
ENDBRANCH   8   9
ENDBRANCH   4   8
BRANCH   3  22
ATOM     22  C   UNL     1      34.639 -18.743 -21.356  0.00  0.00    +0.102 C 
BRANCH  22  23
ATOM     23  C   UNL     1      35.079 -19.091 -22.773  0.00  0.00    +0.020 C 
BRANCH  23  24
ATOM     24  C   UNL     1      34.201 -18.435 -23.843  0.00  0.00    -0.021 C 
BRANCH  24  25
ATOM     25  C   UNL     1      34.846 -17.155 -24.375  0.00  0.00    -0.077 C 
BRANCH  25  26
ATOM     26  N   UNL     1      34.142 -15.982 -23.861  0.00  0.00    +0.384 N 
ATOM     27  N   UNL     1      33.870 -13.142 -23.391  0.00  0.00    +0.383 N 
ATOM     28  C   UNL     1      33.806 -15.057 -24.951  0.00  0.00    -0.101 C 
ATOM     29  C   UNL     1      34.944 -15.299 -22.840  0.00  0.00    -0.101 C 
ATOM     30  C   UNL     1      33.069 -13.825 -24.413  0.00  0.00    -0.101 C 
ATOM     31  C   UNL     1      34.208 -14.067 -22.301  0.00  0.00    -0.101 C 
ATOM     32  C   UNL     1      33.165 -11.970 -22.876  0.00  0.00    -0.101 C 
ATOM     33  H   UNL     1      33.274 -16.299 -23.430  0.00  0.00    -0.080 HD
ATOM     34  H   UNL     1      34.738 -12.823 -23.822  0.00  0.00    -0.080 HD
ENDBRANCH  25  26
ENDBRANCH  24  25
ENDBRANCH  23  24
ENDBRANCH  22  23
ENDBRANCH   3  22
TORSDOF 9
ENDMDL
MODEL 9
REMARK VINA RESULT:     -10.4      5.630     12.812
REMARK  Name = 60939
REMARK  9 active torsions:
REMARK  status: ('A' for Active; 'I' for Inactive)
REMARK    1  A    between atoms: N_3  and  C_22
REMARK    2  A    between atoms: N_4  and  N_8
REMARK    3  A    between atoms: N_8  and  C_9
REMARK    4  A    between atoms: C_9  and  C_11
REMARK    5  A    between atoms: C_12  and  C_16
REMARK    6  A    between atoms: C_22  and  C_23
REMARK    7  A    between atoms: C_23  and  C_24
REMARK    8  A    between atoms: C_24  and  C_25
REMARK    9  A    between atoms: C_25  and  N_26
REMARK                            x       y       z     vdW  Elec       q    Type
REMARK                         _______ _______ _______ _____ _____    ______ ____
ROOT
ATOM      1  O   UNL     1      36.831 -22.384 -17.229  0.00  0.00    -0.273 OA
ATOM      2  O   UNL     1      32.667 -22.098 -19.183  0.00  0.00    -0.251 OA
ATOM      3  N   UNL     1      34.615 -22.547 -17.961  0.00  0.00    -0.212 N 
ATOM      4  N   UNL     1      34.674 -20.929 -19.492  0.00  0.00    -0.181 N 
ATOM      5  C   UNL     1      35.902 -22.030 -17.943  0.00  0.00    +0.254 C 
ATOM      6  C   UNL     1      33.842 -21.886 -18.912  0.00  0.00    +0.328 C 
ATOM      7  C   UNL     1      36.008 -20.915 -18.966  0.00  0.00    +0.200 C 
ENDROOT
BRANCH   4   8
ATOM      8  N   UNL     1      34.267 -20.094 -20.458  0.00  0.00    -0.118 NA
BRANCH   8   9
ATOM      9  C   UNL     1      35.203 -19.766 -21.289  0.00  0.00    +0.176 C 
BRANCH   9  11
ATOM     10  O   UNL     1      34.729 -17.661 -22.362  0.00  0.00    -0.456 OA
ATOM     11  C   UNL     1      34.930 -18.998 -22.493  0.00  0.00    +0.142 C 
ATOM     12  C   UNL     1      34.498 -17.179 -23.612  0.00  0.00    +0.145 C 
ATOM     13  C   UNL     1      34.831 -19.376 -23.812  0.00  0.00    +0.038 C 
ATOM     14  C   UNL     1      34.549 -18.194 -24.538  0.00  0.00    +0.040 C 
BRANCH  12  16
ATOM     15 CL   UNL     1      33.505 -11.326 -23.943  0.00  0.00    -0.082 Cl
ATOM     16  C   UNL     1      34.259 -15.766 -23.692  0.00  0.00    +0.035 C 
ATOM     17  C   UNL     1      33.651 -15.224 -24.825  0.00  0.00    +0.004 C 
ATOM     18  C   UNL     1      34.634 -14.933 -22.637  0.00  0.00    +0.004 C 
ATOM     19  C   UNL     1      33.418 -13.851 -24.903  0.00  0.00    +0.011 C 
ATOM     20  C   UNL     1      34.401 -13.561 -22.714  0.00  0.00    +0.011 C 
ATOM     21  C   UNL     1      33.793 -13.019 -23.847  0.00  0.00    +0.058 C 
ENDBRANCH  12  16
ENDBRANCH   9  11
ENDBRANCH   8   9
ENDBRANCH   4   8
BRANCH   3  22
ATOM     22  C   UNL     1      34.147 -23.613 -17.118  0.00  0.00    +0.102 C 
BRANCH  22  23
ATOM     23  C   UNL     1      33.429 -23.100 -15.875  0.00  0.00    +0.020 C 
BRANCH  23  24
ATOM     24  C   UNL     1      34.302 -23.168 -14.618  0.00  0.00    -0.021 C 
BRANCH  24  25
ATOM     25  C   UNL     1      34.323 -24.582 -14.038  0.00  0.00    -0.077 C 
BRANCH  25  26
ATOM     26  N   UNL     1      35.701 -25.018 -13.817  0.00  0.00    +0.384 N 
ATOM     27  N   UNL     1      38.443 -25.405 -14.643  0.00  0.00    +0.383 N 
ATOM     28  C   UNL     1      36.630 -23.886 -13.933  0.00  0.00    -0.101 C 
ATOM     29  C   UNL     1      36.069 -26.081 -14.759  0.00  0.00    -0.101 C 
ATOM     30  C   UNL     1      38.075 -24.342 -13.702  0.00  0.00    -0.101 C 
ATOM     31  C   UNL     1      37.515 -26.537 -14.529  0.00  0.00    -0.101 C 
ATOM     32  C   UNL     1      39.821 -25.842 -14.421  0.00  0.00    -0.101 C 
ATOM     33  H   UNL     1      35.765 -25.390 -12.870  0.00  0.00    -0.080 HD
ATOM     34  H   UNL     1      38.381 -25.033 -15.591  0.00  0.00    -0.080 HD
ENDBRANCH  25  26
ENDBRANCH  24  25
ENDBRANCH  23  24
ENDBRANCH  22  23
ENDBRANCH   3  22
TORSDOF 9
ENDMDL
