MODEL 1
REMARK VINA RESULT:     -10.9      0.000      0.000
REMARK  Name = 447492
REMARK  5 active torsions:
REMARK  status: ('A' for Active; 'I' for Inactive)
REMARK    1  A    between atoms: C_2  and  C_17
REMARK    2  A    between atoms: C_8  and  C_13
REMARK    3  A    between atoms: C_18  and  O_29
REMARK    4  A    between atoms: C_19  and  C_23
REMARK    5  A    between atoms: C_21  and  O_31
REMARK                            x       y       z     vdW  Elec       q    Type
REMARK                         _______ _______ _______ _____ _____    ______ ____
ROOT
ATOM      1  N   UNL     1      35.963 -21.272 -18.393  0.00  0.00    -0.312 N 
ATOM      2  C   UNL     1      34.727 -21.804 -18.139  0.00  0.00    +0.051 C 
ATOM      3  C   UNL     1      34.618 -20.560 -20.024  0.00  0.00    +0.015 C 
ATOM      4  C   UNL     1      35.925 -20.508 -19.538  0.00  0.00    +0.048 C 
ATOM      5  C   UNL     1      33.873 -21.381 -19.131  0.00  0.00    +0.016 C 
ATOM      6  C   UNL     1      34.304 -19.855 -21.203  0.00  0.00    +0.004 C 
ATOM      7  C   UNL     1      36.939 -19.782 -20.173  0.00  0.00    +0.015 C 
ATOM      8  C   UNL     1      35.308 -19.124 -21.849  0.00  0.00    +0.031 C 
ATOM      9  C   UNL     1      36.605 -19.089 -21.340  0.00  0.00    +0.004 C 
ATOM     10  H   UNL     1      36.762 -21.415 -17.836  0.00  0.00    +0.152 HD
ENDROOT
BRANCH   8  13
ATOM     11  N   UNL     1      35.471 -17.101 -23.281  0.00  0.00    -0.343 N 
ATOM     12  N   UNL     1      34.231 -18.951 -23.990  0.00  0.00    -0.285 NA
ATOM     13  C   UNL     1      34.992 -18.392 -23.066  0.00  0.00    +0.117 C 
ATOM     14  H   UNL     1      35.244 -16.625 -24.112  0.00  0.00    +0.144 HD
ATOM     15  H   UNL     1      36.037 -16.668 -22.603  0.00  0.00    +0.144 HD
ATOM     16  H   UNL     1      34.014 -18.459 -24.815  0.00  0.00    +0.188 HD
ENDBRANCH   8  13
BRANCH   2  17
ATOM     17  C   UNL     1      34.477 -22.649 -16.996  0.00  0.00    +0.050 C 
ATOM     18  C   UNL     1      35.529 -23.130 -16.214  0.00  0.00    +0.135 C 
ATOM     19  C   UNL     1      35.264 -23.944 -15.113  0.00  0.00    +0.037 C 
ATOM     20  C   UNL     1      33.161 -22.984 -16.674  0.00  0.00    +0.041 C 
ATOM     21  C   UNL     1      32.897 -23.798 -15.574  0.00  0.00    +0.139 C 
ATOM     22  C   UNL     1      33.948 -24.279 -14.793  0.00  0.00    +0.040 C 
BRANCH  19  23
ATOM     23  C   UNL     1      36.340 -24.456 -14.288  0.00  0.00    +0.003 C 
ATOM     24  C   UNL     1      36.789 -23.716 -13.195  0.00  0.00    +0.000 C 
ATOM     25  C   UNL     1      36.922 -25.685 -14.588  0.00  0.00    +0.000 C 
ATOM     26  C   UNL     1      37.824 -24.208 -12.399  0.00  0.00    +0.000 C 
ATOM     27  C   UNL     1      37.958 -26.178 -13.793  0.00  0.00    +0.000 C 
ATOM     28  C   UNL     1      38.409 -25.439 -12.699  0.00  0.00    +0.000 C 
ENDBRANCH  19  23
BRANCH  18  29
ATOM     29  O   UNL     1      36.818 -22.802 -16.526  0.00  0.00    -0.505 OA
ATOM     30  H   UNL     1      37.232 -23.189 -17.273  0.00  0.00    +0.292 HD
ENDBRANCH  18  29
BRANCH  21  31
ATOM     31  O   UNL     1      31.613 -24.125 -15.262  0.00  0.00    -0.471 OA
ATOM     32  C   UNL     1      30.599 -23.189 -15.623  0.00  0.00    +0.252 C 
ENDBRANCH  21  31
ENDBRANCH   2  17
TORSDOF 5
ENDMDL
MODEL 2
REMARK VINA RESULT:     -10.7      8.467     13.749
REMARK  Name = 447492
REMARK  5 active torsions:
REMARK  status: ('A' for Active; 'I' for Inactive)
REMARK    1  A    between atoms: C_2  and  C_17
REMARK    2  A    between atoms: C_8  and  C_13
REMARK    3  A    between atoms: C_18  and  O_29
REMARK    4  A    between atoms: C_19  and  C_23
REMARK    5  A    between atoms: C_21  and  O_31
REMARK                            x       y       z     vdW  Elec       q    Type
REMARK                         _______ _______ _______ _____ _____    ______ ____
ROOT
ATOM      1  N   UNL     1      33.345 -13.486 -23.713  0.00  0.00    -0.312 N 
ATOM      2  C   UNL     1      33.492 -12.885 -22.491  0.00  0.00    +0.051 C 
ATOM      3  C   UNL     1      34.380 -14.962 -22.399  0.00  0.00    +0.015 C 
ATOM      4  C   UNL     1      33.878 -14.755 -23.685  0.00  0.00    +0.048 C 
ATOM      5  C   UNL     1      34.129 -13.774 -21.656  0.00  0.00    +0.016 C 
ATOM      6  C   UNL     1      34.988 -16.198 -22.099  0.00  0.00    +0.004 C 
ATOM      7  C   UNL     1      33.953 -15.725 -24.691  0.00  0.00    +0.015 C 
ATOM      8  C   UNL     1      35.069 -17.178 -23.095  0.00  0.00    +0.031 C 
ATOM      9  C   UNL     1      34.559 -16.943 -24.371  0.00  0.00    +0.004 C 
ATOM     10  H   UNL     1      32.919 -13.070 -24.497  0.00  0.00    +0.152 HD
ENDROOT
BRANCH   8  13
ATOM     11  N   UNL     1      36.926 -18.526 -22.145  0.00  0.00    -0.343 N 
ATOM     12  N   UNL     1      35.094 -19.581 -23.142  0.00  0.00    -0.285 NA
ATOM     13  C   UNL     1      35.695 -18.456 -22.793  0.00  0.00    +0.117 C 
ATOM     14  H   UNL     1      37.331 -19.402 -21.951  0.00  0.00    +0.144 HD
ATOM     15  H   UNL     1      37.390 -17.699 -21.880  0.00  0.00    +0.144 HD
ATOM     16  H   UNL     1      35.515 -20.447 -22.939  0.00  0.00    +0.188 HD
ENDBRANCH   8  13
BRANCH   2  17
ATOM     17  C   UNL     1      33.021 -11.545 -22.235  0.00  0.00    +0.050 C 
ATOM     18  C   UNL     1      33.478 -10.465 -22.992  0.00  0.00    +0.135 C 
ATOM     19  C   UNL     1      33.008  -9.179 -22.728  0.00  0.00    +0.037 C 
ATOM     20  C   UNL     1      32.091 -11.336 -21.215  0.00  0.00    +0.041 C 
ATOM     21  C   UNL     1      31.621 -10.050 -20.952  0.00  0.00    +0.139 C 
ATOM     22  C   UNL     1      32.079  -8.971 -21.707  0.00  0.00    +0.040 C 
BRANCH  19  23
ATOM     23  C   UNL     1      33.470  -8.043 -23.500  0.00  0.00    +0.003 C 
ATOM     24  C   UNL     1      32.655  -7.498 -24.491  0.00  0.00    +0.000 C 
ATOM     25  C   UNL     1      34.727  -7.497 -23.249  0.00  0.00    +0.000 C 
ATOM     26  C   UNL     1      33.099  -6.403 -25.234  0.00  0.00    +0.000 C 
ATOM     27  C   UNL     1      35.172  -6.403 -23.991  0.00  0.00    +0.000 C 
ATOM     28  C   UNL     1      34.358  -5.856 -24.984  0.00  0.00    +0.000 C 
ENDBRANCH  19  23
BRANCH  18  29
ATOM     29  O   UNL     1      34.387 -10.668 -23.992  0.00  0.00    -0.505 OA
ATOM     30  H   UNL     1      34.320 -10.183 -24.791  0.00  0.00    +0.292 HD
ENDBRANCH  18  29
BRANCH  21  31
ATOM     31  O   UNL     1      30.716  -9.847 -19.956  0.00  0.00    -0.471 OA
ATOM     32  C   UNL     1      31.132 -10.159 -18.627  0.00  0.00    +0.252 C 
ENDBRANCH  21  31
ENDBRANCH   2  17
TORSDOF 5
ENDMDL
MODEL 3
REMARK VINA RESULT:     -10.2      1.418      4.171
REMARK  Name = 447492
REMARK  5 active torsions:
REMARK  status: ('A' for Active; 'I' for Inactive)
REMARK    1  A    between atoms: C_2  and  C_17
REMARK    2  A    between atoms: C_8  and  C_13
REMARK    3  A    between atoms: C_18  and  O_29
REMARK    4  A    between atoms: C_19  and  C_23
REMARK    5  A    between atoms: C_21  and  O_31
REMARK                            x       y       z     vdW  Elec       q    Type
REMARK                         _______ _______ _______ _____ _____    ______ ____
ROOT
ATOM      1  N   UNL     1      35.856 -21.026 -18.692  0.00  0.00    -0.312 N 
ATOM      2  C   UNL     1      34.619 -21.553 -18.434  0.00  0.00    +0.051 C 
ATOM      3  C   UNL     1      34.513 -20.323 -20.328  0.00  0.00    +0.015 C 
ATOM      4  C   UNL     1      35.820 -20.270 -19.843  0.00  0.00    +0.048 C 
ATOM      5  C   UNL     1      33.765 -21.135 -19.430  0.00  0.00    +0.016 C 
ATOM      6  C   UNL     1      34.200 -19.625 -21.512  0.00  0.00    +0.004 C 
ATOM      7  C   UNL     1      36.836 -19.551 -20.483  0.00  0.00    +0.015 C 
ATOM      8  C   UNL     1      35.206 -18.901 -22.163  0.00  0.00    +0.031 C 
ATOM      9  C   UNL     1      36.504 -18.866 -21.655  0.00  0.00    +0.004 C 
ATOM     10  H   UNL     1      36.655 -21.167 -18.135  0.00  0.00    +0.152 HD
ENDROOT
BRANCH   8  13
ATOM     11  N   UNL     1      35.350 -16.879 -23.598  0.00  0.00    -0.343 N 
ATOM     12  N   UNL     1      34.152 -18.752 -24.318  0.00  0.00    -0.285 NA
ATOM     13  C   UNL     1      34.892 -18.177 -23.386  0.00  0.00    +0.117 C 
ATOM     14  H   UNL     1      35.125 -16.407 -24.432  0.00  0.00    +0.144 HD
ATOM     15  H   UNL     1      35.900 -16.434 -22.914  0.00  0.00    +0.144 HD
ATOM     16  H   UNL     1      33.938 -18.265 -25.146  0.00  0.00    +0.188 HD
ENDBRANCH   8  13
BRANCH   2  17
ATOM     17  C   UNL     1      34.367 -22.389 -17.286  0.00  0.00    +0.050 C 
ATOM     18  C   UNL     1      33.066 -22.742 -16.924  0.00  0.00    +0.135 C 
ATOM     19  C   UNL     1      32.846 -23.553 -15.810  0.00  0.00    +0.037 C 
ATOM     20  C   UNL     1      35.448 -22.850 -16.532  0.00  0.00    +0.041 C 
ATOM     21  C   UNL     1      35.228 -23.661 -15.419  0.00  0.00    +0.139 C 
ATOM     22  C   UNL     1      33.928 -24.012 -15.058  0.00  0.00    +0.040 C 
BRANCH  19  23
ATOM     23  C   UNL     1      31.504 -23.930 -15.416  0.00  0.00    +0.003 C 
ATOM     24  C   UNL     1      30.420 -23.139 -15.793  0.00  0.00    +0.000 C 
ATOM     25  C   UNL     1      31.299 -25.084 -14.661  0.00  0.00    +0.000 C 
ATOM     26  C   UNL     1      29.127 -23.502 -15.414  0.00  0.00    +0.000 C 
ATOM     27  C   UNL     1      30.008 -25.447 -14.281  0.00  0.00    +0.000 C 
ATOM     28  C   UNL     1      28.921 -24.657 -14.658  0.00  0.00    +0.000 C 
ENDBRANCH  19  23
BRANCH  18  29
ATOM     29  O   UNL     1      32.007 -22.293 -17.661  0.00  0.00    -0.505 OA
ATOM     30  H   UNL     1      31.201 -22.773 -17.665  0.00  0.00    +0.292 HD
ENDBRANCH  18  29
BRANCH  21  31
ATOM     31  O   UNL     1      36.282 -24.108 -14.684  0.00  0.00    -0.471 OA
ATOM     32  C   UNL     1      37.518 -23.410 -14.831  0.00  0.00    +0.252 C 
ENDBRANCH  21  31
ENDBRANCH   2  17
TORSDOF 5
ENDMDL
MODEL 4
REMARK VINA RESULT:     -10.2      1.180      2.010
REMARK  Name = 447492
REMARK  5 active torsions:
REMARK  status: ('A' for Active; 'I' for Inactive)
REMARK    1  A    between atoms: C_2  and  C_17
REMARK    2  A    between atoms: C_8  and  C_13
REMARK    3  A    between atoms: C_18  and  O_29
REMARK    4  A    between atoms: C_19  and  C_23
REMARK    5  A    between atoms: C_21  and  O_31
REMARK                            x       y       z     vdW  Elec       q    Type
REMARK                         _______ _______ _______ _____ _____    ______ ____
ROOT
ATOM      1  N   UNL     1      33.032 -21.895 -18.198  0.00  0.00    -0.312 N 
ATOM      2  C   UNL     1      34.123 -22.342 -17.501  0.00  0.00    +0.051 C 
ATOM      3  C   UNL     1      34.830 -21.133 -19.276  0.00  0.00    +0.015 C 
ATOM      4  C   UNL     1      33.434 -21.155 -19.287  0.00  0.00    +0.048 C 
ATOM      5  C   UNL     1      35.251 -21.886 -18.144  0.00  0.00    +0.016 C 
ATOM      6  C   UNL     1      35.505 -20.432 -20.295  0.00  0.00    +0.004 C 
ATOM      7  C   UNL     1      32.676 -20.509 -20.270  0.00  0.00    +0.015 C 
ATOM      8  C   UNL     1      34.760 -19.783 -21.286  0.00  0.00    +0.031 C 
ATOM      9  C   UNL     1      33.367 -19.821 -21.271  0.00  0.00    +0.004 C 
ATOM     10  H   UNL     1      32.096 -22.079 -17.955  0.00  0.00    +0.152 HD
ENDROOT
BRANCH   8  13
ATOM     11  N   UNL     1      34.898 -18.936 -23.617  0.00  0.00    -0.343 N 
ATOM     12  N   UNL     1      36.625 -18.505 -22.101  0.00  0.00    -0.285 NA
ATOM     13  C   UNL     1      35.449 -19.058 -22.342  0.00  0.00    +0.117 C 
ATOM     14  H   UNL     1      35.382 -18.441 -24.317  0.00  0.00    +0.144 HD
ATOM     15  H   UNL     1      34.025 -19.343 -23.816  0.00  0.00    +0.144 HD
ATOM     16  H   UNL     1      37.094 -18.014 -22.814  0.00  0.00    +0.188 HD
ENDBRANCH   8  13
BRANCH   2  17
ATOM     17  C   UNL     1      33.994 -23.146 -16.310  0.00  0.00    +0.050 C 
ATOM     18  C   UNL     1      35.121 -23.629 -15.642  0.00  0.00    +0.135 C 
ATOM     19  C   UNL     1      34.973 -24.403 -14.492  0.00  0.00    +0.037 C 
ATOM     20  C   UNL     1      32.719 -23.440 -15.824  0.00  0.00    +0.041 C 
ATOM     21  C   UNL     1      32.572 -24.214 -14.674  0.00  0.00    +0.139 C 
ATOM     22  C   UNL     1      33.697 -24.697 -14.008  0.00  0.00    +0.040 C 
BRANCH  19  23
ATOM     23  C   UNL     1      36.129 -24.915 -13.783  0.00  0.00    +0.003 C 
ATOM     24  C   UNL     1      36.731 -26.101 -14.201  0.00  0.00    +0.000 C 
ATOM     25  C   UNL     1      36.636 -24.221 -12.687  0.00  0.00    +0.000 C 
ATOM     26  C   UNL     1      37.844 -26.594 -13.520  0.00  0.00    +0.000 C 
ATOM     27  C   UNL     1      37.748 -24.714 -12.005  0.00  0.00    +0.000 C 
ATOM     28  C   UNL     1      38.353 -25.900 -12.421  0.00  0.00    +0.000 C 
ENDBRANCH  19  23
BRANCH  18  29
ATOM     29  O   UNL     1      36.370 -23.341 -16.115  0.00  0.00    -0.505 OA
ATOM     30  H   UNL     1      36.571 -23.477 -17.021  0.00  0.00    +0.292 HD
ENDBRANCH  18  29
BRANCH  21  31
ATOM     31  O   UNL     1      31.327 -24.501 -14.203  0.00  0.00    -0.471 OA
ATOM     32  C   UNL     1      30.907 -23.820 -13.021  0.00  0.00    +0.252 C 
ENDBRANCH  21  31
ENDBRANCH   2  17
TORSDOF 5
ENDMDL
MODEL 5
REMARK VINA RESULT:      -9.6     10.522     14.487
REMARK  Name = 447492
REMARK  5 active torsions:
REMARK  status: ('A' for Active; 'I' for Inactive)
REMARK    1  A    between atoms: C_2  and  C_17
REMARK    2  A    between atoms: C_8  and  C_13
REMARK    3  A    between atoms: C_18  and  O_29
REMARK    4  A    between atoms: C_19  and  C_23
REMARK    5  A    between atoms: C_21  and  O_31
REMARK                            x       y       z     vdW  Elec       q    Type
REMARK                         _______ _______ _______ _____ _____    ______ ____
ROOT
ATOM      1  N   UNL     1      33.285  -8.268 -23.627  0.00  0.00    -0.312 N 
ATOM      2  C   UNL     1      32.222  -8.858 -22.996  0.00  0.00    +0.051 C 
ATOM      3  C   UNL     1      31.557  -6.877 -23.858  0.00  0.00    +0.015 C 
ATOM      4  C   UNL     1      32.908  -7.057 -24.162  0.00  0.00    +0.048 C 
ATOM      5  C   UNL     1      31.138  -8.020 -23.122  0.00  0.00    +0.016 C 
ATOM      6  C   UNL     1      30.914  -5.701 -24.296  0.00  0.00    +0.004 C 
ATOM      7  C   UNL     1      33.652  -6.117 -24.884  0.00  0.00    +0.015 C 
ATOM      8  C   UNL     1      31.646  -4.752 -25.019  0.00  0.00    +0.031 C 
ATOM      9  C   UNL     1      32.994  -4.959 -25.308  0.00  0.00    +0.004 C 
ATOM     10  H   UNL     1      34.189  -8.654 -23.687  0.00  0.00    +0.152 HD
ENDROOT
BRANCH   8  13
ATOM     11  N   UNL     1      29.970  -2.942 -24.735  0.00  0.00    -0.343 N 
ATOM     12  N   UNL     1      31.358  -2.978 -26.615  0.00  0.00    -0.285 NA
ATOM     13  C   UNL     1      30.990  -3.536 -25.475  0.00  0.00    +0.117 C 
ATOM     14  H   UNL     1      29.539  -2.119 -25.062  0.00  0.00    +0.144 HD
ATOM     15  H   UNL     1      29.681  -3.344 -23.885  0.00  0.00    +0.144 HD
ATOM     16  H   UNL     1      30.915  -2.156 -26.926  0.00  0.00    +0.188 HD
ENDBRANCH   8  13
BRANCH   2  17
ATOM     17  C   UNL     1      32.335 -10.140 -22.343  0.00  0.00    +0.050 C 
ATOM     18  C   UNL     1      32.840 -11.251 -23.022  0.00  0.00    +0.135 C 
ATOM     19  C   UNL     1      32.941 -12.480 -22.370  0.00  0.00    +0.037 C 
ATOM     20  C   UNL     1      31.933 -10.261 -21.012  0.00  0.00    +0.041 C 
ATOM     21  C   UNL     1      32.035 -11.491 -20.362  0.00  0.00    +0.139 C 
ATOM     22  C   UNL     1      32.538 -12.600 -21.040  0.00  0.00    +0.040 C 
BRANCH  19  23
ATOM     23  C   UNL     1      33.460 -13.646 -23.056  0.00  0.00    +0.003 C 
ATOM     24  C   UNL     1      34.465 -14.410 -22.464  0.00  0.00    +0.000 C 
ATOM     25  C   UNL     1      32.954 -14.002 -24.304  0.00  0.00    +0.000 C 
ATOM     26  C   UNL     1      34.965 -15.534 -23.123  0.00  0.00    +0.000 C 
ATOM     27  C   UNL     1      33.454 -15.125 -24.964  0.00  0.00    +0.000 C 
ATOM     28  C   UNL     1      34.459 -15.891 -24.373  0.00  0.00    +0.000 C 
ENDBRANCH  19  23
BRANCH  18  29
ATOM     29  O   UNL     1      33.235 -11.133 -24.324  0.00  0.00    -0.505 OA
ATOM     30  H   UNL     1      32.611 -10.902 -24.985  0.00  0.00    +0.292 HD
ENDBRANCH  18  29
BRANCH  21  31
ATOM     31  O   UNL     1      31.640 -11.608 -19.064  0.00  0.00    -0.471 OA
ATOM     32  C   UNL     1      31.676 -10.426 -18.265  0.00  0.00    +0.252 C 
ENDBRANCH  21  31
ENDBRANCH   2  17
TORSDOF 5
ENDMDL
MODEL 6
REMARK VINA RESULT:      -9.5      1.797      4.328
REMARK  Name = 447492
REMARK  5 active torsions:
REMARK  status: ('A' for Active; 'I' for Inactive)
REMARK    1  A    between atoms: C_2  and  C_17
REMARK    2  A    between atoms: C_8  and  C_13
REMARK    3  A    between atoms: C_18  and  O_29
REMARK    4  A    between atoms: C_19  and  C_23
REMARK    5  A    between atoms: C_21  and  O_31
REMARK                            x       y       z     vdW  Elec       q    Type
REMARK                         _______ _______ _______ _____ _____    ______ ____
ROOT
ATOM      1  N   UNL     1      34.023 -21.924 -18.308  0.00  0.00    -0.312 N 
ATOM      2  C   UNL     1      35.014 -22.231 -17.414  0.00  0.00    +0.051 C 
ATOM      3  C   UNL     1      35.856 -20.859 -19.002  0.00  0.00    +0.015 C 
ATOM      4  C   UNL     1      34.509 -21.089 -19.288  0.00  0.00    +0.048 C 
ATOM      5  C   UNL     1      36.161 -21.587 -17.817  0.00  0.00    +0.016 C 
ATOM      6  C   UNL     1      36.599 -20.025 -19.861  0.00  0.00    +0.004 C 
ATOM      7  C   UNL     1      33.865 -20.524 -20.395  0.00  0.00    +0.015 C 
ATOM      8  C   UNL     1      35.969 -19.454 -20.972  0.00  0.00    +0.031 C 
ATOM      9  C   UNL     1      34.622 -19.701 -21.233  0.00  0.00    +0.004 C 
ATOM     10  H   UNL     1      33.097 -22.255 -18.257  0.00  0.00    +0.152 HD
ENDROOT
BRANCH   8  13
ATOM     11  N   UNL     1      36.094 -17.736 -22.761  0.00  0.00    -0.343 N 
ATOM     12  N   UNL     1      38.050 -18.618 -21.835  0.00  0.00    -0.285 NA
ATOM     13  C   UNL     1      36.729 -18.593 -21.864  0.00  0.00    +0.117 C 
ATOM     14  H   UNL     1      36.628 -17.162 -23.356  0.00  0.00    +0.144 HD
ATOM     15  H   UNL     1      35.111 -17.705 -22.799  0.00  0.00    +0.144 HD
ATOM     16  H   UNL     1      38.568 -18.037 -22.438  0.00  0.00    +0.188 HD
ENDBRANCH   8  13
BRANCH   2  17
ATOM     17  C   UNL     1      34.782 -23.093 -16.281  0.00  0.00    +0.050 C 
ATOM     18  C   UNL     1      33.488 -23.352 -15.826  0.00  0.00    +0.135 C 
ATOM     19  C   UNL     1      33.288 -24.190 -14.729  0.00  0.00    +0.037 C 
ATOM     20  C   UNL     1      35.875 -23.676 -15.637  0.00  0.00    +0.041 C 
ATOM     21  C   UNL     1      35.674 -24.514 -14.540  0.00  0.00    +0.139 C 
ATOM     22  C   UNL     1      34.382 -24.771 -14.086  0.00  0.00    +0.040 C 
BRANCH  19  23
ATOM     23  C   UNL     1      31.953 -24.471 -14.239  0.00  0.00    +0.003 C 
ATOM     24  C   UNL     1      31.117 -25.328 -14.952  0.00  0.00    +0.000 C 
ATOM     25  C   UNL     1      31.510 -23.885 -13.055  0.00  0.00    +0.000 C 
ATOM     26  C   UNL     1      29.832 -25.600 -14.481  0.00  0.00    +0.000 C 
ATOM     27  C   UNL     1      30.225 -24.156 -12.583  0.00  0.00    +0.000 C 
ATOM     28  C   UNL     1      29.386 -25.014 -13.296  0.00  0.00    +0.000 C 
ENDBRANCH  19  23
BRANCH  18  29
ATOM     29  O   UNL     1      32.417 -22.784 -16.456  0.00  0.00    -0.505 OA
ATOM     30  H   UNL     1      31.564 -22.836 -16.069  0.00  0.00    +0.292 HD
ENDBRANCH  18  29
BRANCH  21  31
ATOM     31  O   UNL     1      36.741 -25.079 -13.912  0.00  0.00    -0.471 OA
ATOM     32  C   UNL     1      37.188 -26.343 -14.402  0.00  0.00    +0.252 C 
ENDBRANCH  21  31
ENDBRANCH   2  17
TORSDOF 5
ENDMDL
MODEL 7
REMARK VINA RESULT:      -9.4     10.285     14.376
REMARK  Name = 447492
REMARK  5 active torsions:
REMARK  status: ('A' for Active; 'I' for Inactive)
REMARK    1  A    between atoms: C_2  and  C_17
REMARK    2  A    between atoms: C_8  and  C_13
REMARK    3  A    between atoms: C_18  and  O_29
REMARK    4  A    between atoms: C_19  and  C_23
REMARK    5  A    between atoms: C_21  and  O_31
REMARK                            x       y       z     vdW  Elec       q    Type
REMARK                         _______ _______ _______ _____ _____    ______ ____
ROOT
ATOM      1  N   UNL     1      34.216  -8.311 -23.552  0.00  0.00    -0.312 N 
ATOM      2  C   UNL     1      32.956  -8.847 -23.525  0.00  0.00    +0.051 C 
ATOM      3  C   UNL     1      32.908  -6.918 -24.704  0.00  0.00    +0.015 C 
ATOM      4  C   UNL     1      34.216  -7.133 -24.265  0.00  0.00    +0.048 C 
ATOM      5  C   UNL     1      32.124  -8.007 -24.229  0.00  0.00    +0.016 C 
ATOM      6  C   UNL     1      32.629  -5.767 -25.466  0.00  0.00    +0.004 C 
ATOM      7  C   UNL     1      35.263  -6.250 -24.551  0.00  0.00    +0.015 C 
ATOM      8  C   UNL     1      33.667  -4.874 -25.760  0.00  0.00    +0.031 C 
ATOM      9  C   UNL     1      34.964  -5.115 -25.309  0.00  0.00    +0.004 C 
ATOM     10  H   UNL     1      35.007  -8.711 -23.123  0.00  0.00    +0.152 HD
ENDROOT
BRANCH   8  13
ATOM     11  N   UNL     1      34.216  -2.564 -26.488  0.00  0.00    -0.343 N 
ATOM     12  N   UNL     1      32.325  -3.648 -27.332  0.00  0.00    -0.285 NA
ATOM     13  C   UNL     1      33.387  -3.683 -26.546  0.00  0.00    +0.117 C 
ATOM     14  H   UNL     1      34.008  -1.768 -27.028  0.00  0.00    +0.144 HD
ATOM     15  H   UNL     1      35.010  -2.571 -25.907  0.00  0.00    +0.144 HD
ATOM     16  H   UNL     1      32.133  -2.843 -27.865  0.00  0.00    +0.188 HD
ENDBRANCH   8  13
BRANCH   2  17
ATOM     17  C   UNL     1      32.665 -10.085 -22.844  0.00  0.00    +0.050 C 
ATOM     18  C   UNL     1      33.246 -11.286 -23.255  0.00  0.00    +0.135 C 
ATOM     19  C   UNL     1      32.952 -12.471 -22.581  0.00  0.00    +0.037 C 
ATOM     20  C   UNL     1      31.791 -10.073 -21.756  0.00  0.00    +0.041 C 
ATOM     21  C   UNL     1      31.497 -11.258 -21.083  0.00  0.00    +0.139 C 
ATOM     22  C   UNL     1      32.077 -12.457 -21.494  0.00  0.00    +0.040 C 
BRANCH  19  23
ATOM     23  C   UNL     1      33.543 -13.729 -22.992  0.00  0.00    +0.003 C 
ATOM     24  C   UNL     1      33.208 -14.285 -24.225  0.00  0.00    +0.000 C 
ATOM     25  C   UNL     1      34.445 -14.380 -22.153  0.00  0.00    +0.000 C 
ATOM     26  C   UNL     1      33.777 -15.496 -24.622  0.00  0.00    +0.000 C 
ATOM     27  C   UNL     1      35.014 -15.591 -22.548  0.00  0.00    +0.000 C 
ATOM     28  C   UNL     1      34.680 -16.149 -23.783  0.00  0.00    +0.000 C 
ENDBRANCH  19  23
BRANCH  18  29
ATOM     29  O   UNL     1      34.104 -11.301 -24.319  0.00  0.00    -0.505 OA
ATOM     30  H   UNL     1      33.828 -10.962 -25.148  0.00  0.00    +0.292 HD
ENDBRANCH  18  29
BRANCH  21  31
ATOM     31  O   UNL     1      30.642 -11.244 -20.023  0.00  0.00    -0.471 OA
ATOM     32  C   UNL     1      30.933 -10.331 -18.966  0.00  0.00    +0.252 C 
ENDBRANCH  21  31
ENDBRANCH   2  17
TORSDOF 5
ENDMDL
MODEL 8
REMARK VINA RESULT:      -8.9      8.290     13.308
REMARK  Name = 447492
REMARK  5 active torsions:
REMARK  status: ('A' for Active; 'I' for Inactive)
REMARK    1  A    between atoms: C_2  and  C_17
REMARK    2  A    between atoms: C_8  and  C_13
REMARK    3  A    between atoms: C_18  and  O_29
REMARK    4  A    between atoms: C_19  and  C_23
REMARK    5  A    between atoms: C_21  and  O_31
REMARK                            x       y       z     vdW  Elec       q    Type
REMARK                         _______ _______ _______ _____ _____    ______ ____
ROOT
ATOM      1  N   UNL     1      33.443 -13.681 -22.580  0.00  0.00    -0.312 N 
ATOM      2  C   UNL     1      33.279 -13.178 -21.316  0.00  0.00    +0.051 C 
ATOM      3  C   UNL     1      34.393 -15.141 -21.187  0.00  0.00    +0.015 C 
ATOM      4  C   UNL     1      34.119 -14.878 -22.531  0.00  0.00    +0.048 C 
ATOM      5  C   UNL     1      33.857 -14.060 -20.432  0.00  0.00    +0.016 C 
ATOM      6  C   UNL     1      35.088 -16.321 -20.854  0.00  0.00    +0.004 C 
ATOM      7  C   UNL     1      34.506 -15.740 -23.563  0.00  0.00    +0.015 C 
ATOM      8  C   UNL     1      35.480 -17.193 -21.877  0.00  0.00    +0.031 C 
ATOM      9  C   UNL     1      35.193 -16.905 -23.210  0.00  0.00    +0.004 C 
ATOM     10  H   UNL     1      33.121 -13.247 -23.403  0.00  0.00    +0.152 HD
ENDROOT
BRANCH   8  13
ATOM     11  N   UNL     1      35.641 -19.372 -20.696  0.00  0.00    -0.343 N 
ATOM     12  N   UNL     1      37.403 -18.626 -22.039  0.00  0.00    -0.285 NA
ATOM     13  C   UNL     1      36.197 -18.414 -21.542  0.00  0.00    +0.117 C 
ATOM     14  H   UNL     1      36.144 -20.191 -20.483  0.00  0.00    +0.144 HD
ATOM     15  H   UNL     1      34.746 -19.231 -20.314  0.00  0.00    +0.144 HD
ATOM     16  H   UNL     1      37.891 -19.451 -21.814  0.00  0.00    +0.188 HD
ENDBRANCH   8  13
BRANCH   2  17
ATOM     17  C   UNL     1      32.600 -11.929 -21.071  0.00  0.00    +0.050 C 
ATOM     18  C   UNL     1      32.491 -10.961 -22.072  0.00  0.00    +0.135 C 
ATOM     19  C   UNL     1      31.829  -9.761 -21.813  0.00  0.00    +0.037 C 
ATOM     20  C   UNL     1      32.043 -11.694 -19.813  0.00  0.00    +0.041 C 
ATOM     21  C   UNL     1      31.381 -10.494 -19.555  0.00  0.00    +0.139 C 
ATOM     22  C   UNL     1      31.274  -9.527 -20.554  0.00  0.00    +0.040 C 
BRANCH  19  23
ATOM     23  C   UNL     1      31.705  -8.742 -22.836  0.00  0.00    +0.003 C 
ATOM     24  C   UNL     1      32.123  -9.010 -24.138  0.00  0.00    +0.000 C 
ATOM     25  C   UNL     1      31.168  -7.496 -22.515  0.00  0.00    +0.000 C 
ATOM     26  C   UNL     1      32.004  -8.029 -25.124  0.00  0.00    +0.000 C 
ATOM     27  C   UNL     1      31.049  -6.515 -23.500  0.00  0.00    +0.000 C 
ATOM     28  C   UNL     1      31.467  -6.782 -24.804  0.00  0.00    +0.000 C 
ENDBRANCH  19  23
BRANCH  18  29
ATOM     29  O   UNL     1      33.033 -11.189 -23.305  0.00  0.00    -0.505 OA
ATOM     30  H   UNL     1      33.963 -11.159 -23.421  0.00  0.00    +0.292 HD
ENDBRANCH  18  29
BRANCH  21  31
ATOM     31  O   UNL     1      30.841 -10.266 -18.327  0.00  0.00    -0.471 OA
ATOM     32  C   UNL     1      31.682 -10.491 -17.196  0.00  0.00    +0.252 C 
ENDBRANCH  21  31
ENDBRANCH   2  17
TORSDOF 5
ENDMDL
MODEL 9
REMARK VINA RESULT:      -8.1     12.862     18.071
REMARK  Name = 447492
REMARK  5 active torsions:
REMARK  status: ('A' for Active; 'I' for Inactive)
REMARK    1  A    between atoms: C_2  and  C_17
REMARK    2  A    between atoms: C_8  and  C_13
REMARK    3  A    between atoms: C_18  and  O_29
REMARK    4  A    between atoms: C_19  and  C_23
REMARK    5  A    between atoms: C_21  and  O_31
REMARK                            x       y       z     vdW  Elec       q    Type
REMARK                         _______ _______ _______ _____ _____    ______ ____
ROOT
ATOM      1  N   UNL     1      31.651  -8.038 -20.653  0.00  0.00    -0.312 N 
ATOM      2  C   UNL     1      31.683  -7.761 -21.993  0.00  0.00    +0.051 C 
ATOM      3  C   UNL     1      31.977  -9.982 -21.696  0.00  0.00    +0.015 C 
ATOM      4  C   UNL     1      31.828  -9.387 -20.442  0.00  0.00    +0.048 C 
ATOM      5  C   UNL     1      31.883  -8.944 -22.665  0.00  0.00    +0.016 C 
ATOM      6  C   UNL     1      32.174 -11.376 -21.766  0.00  0.00    +0.004 C 
ATOM      7  C   UNL     1      31.868 -10.117 -19.249  0.00  0.00    +0.015 C 
ATOM      8  C   UNL     1      32.217 -12.119 -20.580  0.00  0.00    +0.031 C 
ATOM      9  C   UNL     1      32.065 -11.498 -19.342  0.00  0.00    +0.004 C 
ATOM     10  H   UNL     1      31.521  -7.368 -19.942  0.00  0.00    +0.152 HD
ENDROOT
BRANCH   8  13
ATOM     11  N   UNL     1      32.163 -14.376 -19.545  0.00  0.00    -0.343 N 
ATOM     12  N   UNL     1      32.865 -14.111 -21.758  0.00  0.00    -0.285 NA
ATOM     13  C   UNL     1      32.421 -13.558 -20.644  0.00  0.00    +0.117 C 
ATOM     14  H   UNL     1      32.308 -15.348 -19.610  0.00  0.00    +0.144 HD
ATOM     15  H   UNL     1      31.834 -13.983 -18.705  0.00  0.00    +0.144 HD
ATOM     16  H   UNL     1      33.005 -15.085 -21.804  0.00  0.00    +0.188 HD
ENDBRANCH   8  13
BRANCH   2  17
ATOM     17  C   UNL     1      31.523  -6.420 -22.502  0.00  0.00    +0.050 C 
ATOM     18  C   UNL     1      32.106  -6.034 -23.710  0.00  0.00    +0.135 C 
ATOM     19  C   UNL     1      31.937  -4.733 -24.183  0.00  0.00    +0.037 C 
ATOM     20  C   UNL     1      30.770  -5.501 -21.769  0.00  0.00    +0.041 C 
ATOM     21  C   UNL     1      30.602  -4.200 -22.242  0.00  0.00    +0.139 C 
ATOM     22  C   UNL     1      31.185  -3.816 -23.448  0.00  0.00    +0.040 C 
BRANCH  19  23
ATOM     23  C   UNL     1      32.535  -4.311 -25.434  0.00  0.00    +0.003 C 
ATOM     24  C   UNL     1      31.721  -3.987 -26.518  0.00  0.00    +0.000 C 
ATOM     25  C   UNL     1      33.921  -4.228 -25.550  0.00  0.00    +0.000 C 
ATOM     26  C   UNL     1      32.295  -3.579 -27.723  0.00  0.00    +0.000 C 
ATOM     27  C   UNL     1      34.496  -3.822 -26.754  0.00  0.00    +0.000 C 
ATOM     28  C   UNL     1      33.683  -3.497 -27.841  0.00  0.00    +0.000 C 
ENDBRANCH  19  23
BRANCH  18  29
ATOM     29  O   UNL     1      32.842  -6.932 -24.430  0.00  0.00    -0.505 OA
ATOM     30  H   UNL     1      33.650  -6.666 -24.826  0.00  0.00    +0.292 HD
ENDBRANCH  18  29
BRANCH  21  31
ATOM     31  O   UNL     1      29.869  -3.305 -21.525  0.00  0.00    -0.471 OA
ATOM     32  C   UNL     1      30.031  -1.925 -21.848  0.00  0.00    +0.252 C 
ENDBRANCH  21  31
ENDBRANCH   2  17
TORSDOF 5
ENDMDL
