MODEL 1
REMARK VINA RESULT:     -11.4      0.000      0.000
REMARK  Name = 158376
REMARK  11 active torsions:
REMARK  status: ('A' for Active; 'I' for Inactive)
REMARK    1  A    between atoms: C_1  and  N_22
REMARK    2  A    between atoms: C_2  and  C_9
REMARK    3  A    between atoms: N_8  and  CA_11
REMARK    4  A    between atoms: CA_11  and  C_13
REMARK    5  A    between atoms: CA_11  and  CB_16
REMARK    6  A    between atoms: C_13  and  O_14
REMARK    7  A    between atoms: CB_16  and  CG_17
REMARK    8  A    between atoms: CG_17  and  CD_19
REMARK    9  A    between atoms: CD_19  and  OE1_20
REMARK   10  A    between atoms: N_22  and  C_24
REMARK   11  A    between atoms: C_24  and  C_29
REMARK                            x       y       z     vdW  Elec       q    Type
REMARK                         _______ _______ _______ _____ _____    ______ ____
ROOT
ATOM      1  C   UNL     1      34.301 -23.079 -15.870  0.00  0.00    +0.048 C 
ATOM      2  C   UNL     1      35.345 -21.983 -18.214  0.00  0.00    +0.053 C 
ATOM      3  C   UNL     1      35.585 -22.534 -15.873  0.00  0.00    +0.015 C 
ATOM      4  C   UNL     1      33.539 -23.076 -17.038  0.00  0.00    +0.015 C 
ATOM      5  C   UNL     1      36.107 -21.986 -17.045  0.00  0.00    +0.006 C 
ATOM      6  C   UNL     1      34.062 -22.528 -18.210  0.00  0.00    +0.006 C 
ENDROOT
BRANCH   2   9
ATOM      7  O   UNL     1      36.973 -21.815 -19.892  0.00  0.00    -0.270 OA
ATOM      8  N   UNL     1      35.130 -20.418 -20.069  0.00  0.00    -0.293 N 
ATOM      9  C   ACE A   0      35.901 -21.399 -19.461  0.00  0.00    +0.246 C 
ATOM     10  H   UNL     1      34.283 -20.151 -19.646  0.00  0.00    +0.150 HD
BRANCH   8  11
ATOM     11  CA  UNL     1      35.522 -19.774 -21.298  0.00  0.00    +0.172 C 
BRANCH  11  13
ATOM     12  OXT UNL     1      37.682 -18.711 -20.929  0.00  0.00    -0.248 OA
ATOM     13  C   UNL     1      36.459 -18.639 -20.941  0.00  0.00    +0.332 C 
BRANCH  13  14
ATOM     14  O   UNL     1      35.785 -17.491 -20.667  0.00  0.00    -0.479 OA
ATOM     15  H   UNL     1      36.225 -16.666 -20.717  0.00  0.00    +0.295 HD
ENDBRANCH  13  14
ENDBRANCH  11  13
BRANCH  11  16
ATOM     16  CB  UNL     1      34.322 -19.342 -22.150  0.00  0.00    +0.043 C 
BRANCH  16  17
ATOM     17  CG  UNL     1      34.582 -19.220 -23.656  0.00  0.00    +0.112 C 
BRANCH  17  19
ATOM     18  OE2 UNL     1      33.763 -17.432 -25.094  0.00  0.00    -0.250 OA
ATOM     19  CD  UNL     1      34.485 -17.804 -24.179  0.00  0.00    +0.314 C 
BRANCH  19  20
ATOM     20  OE1 UNL     1      35.341 -16.971 -23.530  0.00  0.00    -0.480 OA
ATOM     21  HE1 UNL     1      35.725 -16.247 -23.985  0.00  0.00    +0.295 HD
ENDBRANCH  19  20
ENDBRANCH  17  19
ENDBRANCH  16  17
ENDBRANCH  11  16
ENDBRANCH   8  11
ENDBRANCH   2   9
BRANCH   1  22
ATOM     22  N   UNL     1      33.772 -23.633 -14.686  0.00  0.00    -0.302 N 
ATOM     23  C   UNL     1      32.544 -23.113 -14.117  0.00  0.00    +0.112 C 
BRANCH  22  24
ATOM     24  C   UNL     1      34.442 -24.738 -14.030  0.00  0.00    +0.118 C 
BRANCH  24  29
ATOM     25  O   UNL     1      37.568 -23.437 -12.547  0.00  0.00    -0.427 OA
ATOM     26  N   UNL     1      39.321 -24.968 -13.079  0.00  0.00    -0.294 NA
ATOM     27  N   UNL     1      38.590 -26.882 -14.397  0.00  0.00    -0.317 NA
ATOM     28  N   UNL     1      40.825 -26.631 -13.746  0.00  0.00    -0.283 N 
ATOM     29  C   UNL     1      35.834 -24.462 -13.552  0.00  0.00    +0.031 C 
ATOM     30  C   UNL     1      36.994 -25.245 -13.767  0.00  0.00    +0.180 C 
ATOM     31  C   UNL     1      38.036 -24.578 -13.130  0.00  0.00    +0.281 C 
ATOM     32  C   UNL     1      36.236 -23.377 -12.808  0.00  0.00    +0.176 C 
ATOM     33  C   UNL     1      37.313 -26.437 -14.414  0.00  0.00    +0.181 C 
ATOM     34  C   UNL     1      39.503 -26.130 -13.739  0.00  0.00    +0.200 C 
ATOM     35  H   UNL     1      41.541 -26.135 -13.287  0.00  0.00    +0.156 HD
ATOM     36  H   UNL     1      41.029 -27.475 -14.210  0.00  0.00    +0.156 HD
ATOM     37  N   UNL     1      36.328 -27.183 -15.086  0.00  0.00    -0.335 N 
ATOM     38  H   UNL     1      36.570 -28.023 -15.538  0.00  0.00    +0.144 HD
ATOM     39  H   UNL     1      35.396 -26.865 -15.104  0.00  0.00    +0.144 HD
ENDBRANCH  24  29
ENDBRANCH  22  24
ENDBRANCH   1  22
TORSDOF 11
ENDMDL
MODEL 2
REMARK VINA RESULT:     -11.3      4.015     10.717
REMARK  Name = 158376
REMARK  11 active torsions:
REMARK  status: ('A' for Active; 'I' for Inactive)
REMARK    1  A    between atoms: C_1  and  N_22
REMARK    2  A    between atoms: C_2  and  C_9
REMARK    3  A    between atoms: N_8  and  CA_11
REMARK    4  A    between atoms: CA_11  and  C_13
REMARK    5  A    between atoms: CA_11  and  CB_16
REMARK    6  A    between atoms: C_13  and  O_14
REMARK    7  A    between atoms: CB_16  and  CG_17
REMARK    8  A    between atoms: CG_17  and  CD_19
REMARK    9  A    between atoms: CD_19  and  OE1_20
REMARK   10  A    between atoms: N_22  and  C_24
REMARK   11  A    between atoms: C_24  and  C_29
REMARK                            x       y       z     vdW  Elec       q    Type
REMARK                         _______ _______ _______ _____ _____    ______ ____
ROOT
ATOM      1  C   UNL     1      35.419 -19.826 -20.642  0.00  0.00    +0.048 C 
ATOM      2  C   UNL     1      34.287 -21.816 -19.048  0.00  0.00    +0.053 C 
ATOM      3  C   UNL     1      36.239 -20.659 -19.880  0.00  0.00    +0.015 C 
ATOM      4  C   UNL     1      34.034 -19.988 -20.607  0.00  0.00    +0.015 C 
ATOM      5  C   UNL     1      35.672 -21.654 -19.084  0.00  0.00    +0.006 C 
ATOM      6  C   UNL     1      33.468 -20.983 -19.809  0.00  0.00    +0.006 C 
ENDROOT
BRANCH   2   9
ATOM      7  O   UNL     1      33.804 -24.052 -18.534  0.00  0.00    -0.270 OA
ATOM      8  N   UNL     1      33.037 -22.441 -17.051  0.00  0.00    -0.293 N 
ATOM      9  C   ACE A   0      33.685 -22.876 -18.199  0.00  0.00    +0.246 C 
ATOM     10  H   UNL     1      32.994 -21.475 -16.869  0.00  0.00    +0.150 HD
BRANCH   8  11
ATOM     11  CA  UNL     1      32.425 -23.349 -16.115  0.00  0.00    +0.172 C 
BRANCH  11  13
ATOM     12  OXT UNL     1      30.256 -22.468 -16.785  0.00  0.00    -0.248 OA
ATOM     13  C   UNL     1      30.993 -22.899 -15.908  0.00  0.00    +0.332 C 
BRANCH  13  14
ATOM     14  O   UNL     1      30.591 -23.063 -14.620  0.00  0.00    -0.479 OA
ATOM     15  H   UNL     1      30.652 -22.350 -14.016  0.00  0.00    +0.295 HD
ENDBRANCH  13  14
ENDBRANCH  11  13
BRANCH  11  16
ATOM     16  CB  UNL     1      33.225 -23.488 -14.813  0.00  0.00    +0.043 C 
BRANCH  16  17
ATOM     17  CG  UNL     1      34.522 -24.300 -14.910  0.00  0.00    +0.112 C 
BRANCH  17  19
ATOM     18  OE2 UNL     1      35.754 -22.249 -15.374  0.00  0.00    -0.250 OA
ATOM     19  CD  UNL     1      35.748 -23.460 -15.195  0.00  0.00    +0.314 C 
BRANCH  19  20
ATOM     20  OE1 UNL     1      36.871 -24.222 -15.271  0.00  0.00    -0.480 OA
ATOM     21  HE1 UNL     1      36.872 -25.002 -15.791  0.00  0.00    +0.295 HD
ENDBRANCH  19  20
ENDBRANCH  17  19
ENDBRANCH  16  17
ENDBRANCH  11  16
ENDBRANCH   8  11
ENDBRANCH   2   9
BRANCH   1  22
ATOM     22  N   UNL     1      35.990 -18.820 -21.449  0.00  0.00    -0.302 N 
ATOM     23  C   UNL     1      37.421 -18.590 -21.431  0.00  0.00    +0.112 C 
BRANCH  22  24
ATOM     24  C   UNL     1      35.156 -18.014 -22.318  0.00  0.00    +0.118 C 
BRANCH  24  29
ATOM     25  O   UNL     1      34.772 -14.807 -20.522  0.00  0.00    -0.427 OA
ATOM     26  N   UNL     1      34.035 -13.170 -22.097  0.00  0.00    -0.294 NA
ATOM     27  N   UNL     1      33.752 -14.037 -24.356  0.00  0.00    -0.317 NA
ATOM     28  N   UNL     1      33.321 -11.793 -23.848  0.00  0.00    -0.283 N 
ATOM     29  C   UNL     1      34.915 -16.608 -21.865  0.00  0.00    +0.031 C 
ATOM     30  C   UNL     1      34.479 -15.509 -22.644  0.00  0.00    +0.180 C 
ATOM     31  C   UNL     1      34.406 -14.422 -21.778  0.00  0.00    +0.281 C 
ATOM     32  C   UNL     1      35.077 -16.129 -20.585  0.00  0.00    +0.176 C 
ATOM     33  C   UNL     1      34.134 -15.277 -23.974  0.00  0.00    +0.181 C 
ATOM     34  C   UNL     1      33.727 -13.074 -23.406  0.00  0.00    +0.200 C 
ATOM     35  H   UNL     1      33.280 -11.044 -23.210  0.00  0.00    +0.156 HD
ATOM     36  H   UNL     1      33.081 -11.651 -24.791  0.00  0.00    +0.156 HD
ATOM     37  N   UNL     1      34.176 -16.313 -24.925  0.00  0.00    -0.335 N 
ATOM     38  H   UNL     1      33.929 -16.133 -25.860  0.00  0.00    +0.144 HD
ATOM     39  H   UNL     1      34.452 -17.219 -24.655  0.00  0.00    +0.144 HD
ENDBRANCH  24  29
ENDBRANCH  22  24
ENDBRANCH   1  22
TORSDOF 11
ENDMDL
MODEL 3
REMARK VINA RESULT:     -11.3      4.564     11.122
REMARK  Name = 158376
REMARK  11 active torsions:
REMARK  status: ('A' for Active; 'I' for Inactive)
REMARK    1  A    between atoms: C_1  and  N_22
REMARK    2  A    between atoms: C_2  and  C_9
REMARK    3  A    between atoms: N_8  and  CA_11
REMARK    4  A    between atoms: CA_11  and  C_13
REMARK    5  A    between atoms: CA_11  and  CB_16
REMARK    6  A    between atoms: C_13  and  O_14
REMARK    7  A    between atoms: CB_16  and  CG_17
REMARK    8  A    between atoms: CG_17  and  CD_19
REMARK    9  A    between atoms: CD_19  and  OE1_20
REMARK   10  A    between atoms: N_22  and  C_24
REMARK   11  A    between atoms: C_24  and  C_29
REMARK                            x       y       z     vdW  Elec       q    Type
REMARK                         _______ _______ _______ _____ _____    ______ ____
ROOT
ATOM      1  C   UNL     1      34.571 -20.118 -20.768  0.00  0.00    +0.048 C 
ATOM      2  C   UNL     1      33.714 -21.779 -18.696  0.00  0.00    +0.053 C 
ATOM      3  C   UNL     1      35.491 -20.918 -20.090  0.00  0.00    +0.015 C 
ATOM      4  C   UNL     1      33.223 -20.148 -20.410  0.00  0.00    +0.015 C 
ATOM      5  C   UNL     1      35.062 -21.749 -19.055  0.00  0.00    +0.006 C 
ATOM      6  C   UNL     1      32.795 -20.979 -19.374  0.00  0.00    +0.006 C 
ENDROOT
BRANCH   2   9
ATOM      7  O   UNL     1      34.015 -23.534 -17.171  0.00  0.00    -0.270 OA
ATOM      8  N   UNL     1      31.985 -22.413 -17.100  0.00  0.00    -0.293 N 
ATOM      9  C   ACE A   0      33.258 -22.664 -17.594  0.00  0.00    +0.246 C 
ATOM     10  H   UNL     1      31.453 -21.692 -17.507  0.00  0.00    +0.150 HD
BRANCH   8  11
ATOM     11  CA  UNL     1      31.412 -23.170 -16.016  0.00  0.00    +0.172 C 
BRANCH  11  13
ATOM     12  OXT UNL     1      29.277 -22.088 -16.471  0.00  0.00    -0.248 OA
ATOM     13  C   UNL     1      29.904 -23.089 -16.147  0.00  0.00    +0.332 C 
BRANCH  13  14
ATOM     14  O   UNL     1      29.308 -24.284 -15.896  0.00  0.00    -0.479 OA
ATOM     15  H   UNL     1      28.698 -24.364 -15.191  0.00  0.00    +0.295 HD
ENDBRANCH  13  14
ENDBRANCH  11  13
BRANCH  11  16
ATOM     16  CB  UNL     1      31.938 -22.731 -14.644  0.00  0.00    +0.043 C 
BRANCH  16  17
ATOM     17  CG  UNL     1      31.301 -23.422 -13.432  0.00  0.00    +0.112 C 
BRANCH  17  19
ATOM     18  OE2 UNL     1      30.846 -25.781 -13.839  0.00  0.00    -0.250 OA
ATOM     19  CD  UNL     1      31.566 -24.911 -13.370  0.00  0.00    +0.314 C 
BRANCH  19  20
ATOM     20  OE1 UNL     1      32.706 -25.188 -12.682  0.00  0.00    -0.480 OA
ATOM     21  HE1 UNL     1      33.131 -24.513 -12.191  0.00  0.00    +0.295 HD
ENDBRANCH  19  20
ENDBRANCH  17  19
ENDBRANCH  16  17
ENDBRANCH  11  16
ENDBRANCH   8  11
ENDBRANCH   2   9
BRANCH   1  22
ATOM     22  N   UNL     1      35.003 -19.279 -21.815  0.00  0.00    -0.302 N 
ATOM     23  C   UNL     1      34.987 -19.749 -23.186  0.00  0.00    +0.112 C 
BRANCH  22  24
ATOM     24  C   UNL     1      35.455 -17.930 -21.536  0.00  0.00    +0.118 C 
BRANCH  24  29
ATOM     25  O   UNL     1      34.558 -15.884 -24.481  0.00  0.00    -0.427 OA
ATOM     26  N   UNL     1      33.844 -13.745 -23.695  0.00  0.00    -0.294 NA
ATOM     27  N   UNL     1      33.904 -13.518 -21.270  0.00  0.00    -0.317 NA
ATOM     28  N   UNL     1      33.199 -11.758 -22.642  0.00  0.00    -0.283 N 
ATOM     29  C   UNL     1      35.027 -16.886 -22.521  0.00  0.00    +0.031 C 
ATOM     30  C   UNL     1      34.577 -15.572 -22.248  0.00  0.00    +0.180 C 
ATOM     31  C   UNL     1      34.299 -14.992 -23.482  0.00  0.00    +0.281 C 
ATOM     32  C   UNL     1      34.998 -17.024 -23.890  0.00  0.00    +0.176 C 
ATOM     33  C   UNL     1      34.362 -14.782 -21.120  0.00  0.00    +0.181 C 
ATOM     34  C   UNL     1      33.676 -13.084 -22.531  0.00  0.00    +0.200 C 
ATOM     35  H   UNL     1      33.011 -11.376 -23.531  0.00  0.00    +0.156 HD
ATOM     36  H   UNL     1      33.054 -11.217 -21.833  0.00  0.00    +0.156 HD
ATOM     37  N   UNL     1      34.615 -15.279 -19.829  0.00  0.00    -0.335 N 
ATOM     38  H   UNL     1      34.458 -14.709 -19.043  0.00  0.00    +0.144 HD
ATOM     39  H   UNL     1      34.949 -16.198 -19.711  0.00  0.00    +0.144 HD
ENDBRANCH  24  29
ENDBRANCH  22  24
ENDBRANCH   1  22
TORSDOF 11
ENDMDL
MODEL 4
REMARK VINA RESULT:     -11.1      4.393     11.074
REMARK  Name = 158376
REMARK  11 active torsions:
REMARK  status: ('A' for Active; 'I' for Inactive)
REMARK    1  A    between atoms: C_1  and  N_22
REMARK    2  A    between atoms: C_2  and  C_9
REMARK    3  A    between atoms: N_8  and  CA_11
REMARK    4  A    between atoms: CA_11  and  C_13
REMARK    5  A    between atoms: CA_11  and  CB_16
REMARK    6  A    between atoms: C_13  and  O_14
REMARK    7  A    between atoms: CB_16  and  CG_17
REMARK    8  A    between atoms: CG_17  and  CD_19
REMARK    9  A    between atoms: CD_19  and  OE1_20
REMARK   10  A    between atoms: N_22  and  C_24
REMARK   11  A    between atoms: C_24  and  C_29
REMARK                            x       y       z     vdW  Elec       q    Type
REMARK                         _______ _______ _______ _____ _____    ______ ____
ROOT
ATOM      1  C   UNL     1      35.295 -19.973 -20.458  0.00  0.00    +0.048 C 
ATOM      2  C   UNL     1      34.087 -21.893 -18.834  0.00  0.00    +0.053 C 
ATOM      3  C   UNL     1      33.906 -20.110 -20.455  0.00  0.00    +0.015 C 
ATOM      4  C   UNL     1      36.079 -20.795 -19.649  0.00  0.00    +0.015 C 
ATOM      5  C   UNL     1      33.303 -21.070 -19.643  0.00  0.00    +0.006 C 
ATOM      6  C   UNL     1      35.474 -21.756 -18.837  0.00  0.00    +0.006 C 
ENDROOT
BRANCH   2   9
ATOM      7  O   UNL     1      33.708 -24.102 -18.145  0.00  0.00    -0.270 OA
ATOM      8  N   UNL     1      32.590 -22.431 -16.988  0.00  0.00    -0.293 N 
ATOM      9  C   ACE A   0      33.444 -22.916 -17.969  0.00  0.00    +0.246 C 
ATOM     10  H   UNL     1      32.441 -21.460 -16.926  0.00  0.00    +0.150 HD
BRANCH   8  11
ATOM     11  CA  UNL     1      31.911 -23.295 -16.056  0.00  0.00    +0.172 C 
BRANCH  11  13
ATOM     12  OXT UNL     1      29.898 -22.055 -16.641  0.00  0.00    -0.248 OA
ATOM     13  C   UNL     1      30.421 -23.086 -16.237  0.00  0.00    +0.332 C 
BRANCH  13  14
ATOM     14  O   UNL     1      29.711 -24.203 -15.932  0.00  0.00    -0.479 OA
ATOM     15  H   UNL     1      29.905 -25.013 -16.360  0.00  0.00    +0.295 HD
ENDBRANCH  13  14
ENDBRANCH  11  13
BRANCH  11  16
ATOM     16  CB  UNL     1      32.392 -23.104 -14.612  0.00  0.00    +0.043 C 
BRANCH  16  17
ATOM     17  CG  UNL     1      32.496 -24.381 -13.769  0.00  0.00    +0.112 C 
BRANCH  17  19
ATOM     18  OE2 UNL     1      30.710 -24.239 -12.117  0.00  0.00    -0.250 OA
ATOM     19  CD  UNL     1      31.198 -24.779 -13.100  0.00  0.00    +0.314 C 
BRANCH  19  20
ATOM     20  OE1 UNL     1      30.635 -25.859 -13.704  0.00  0.00    -0.480 OA
ATOM     21  HE1 UNL     1      30.200 -26.509 -13.189  0.00  0.00    +0.295 HD
ENDBRANCH  19  20
ENDBRANCH  17  19
ENDBRANCH  16  17
ENDBRANCH  11  16
ENDBRANCH   8  11
ENDBRANCH   2   9
BRANCH   1  22
ATOM     22  N   UNL     1      35.905 -19.001 -21.277  0.00  0.00    -0.302 N 
ATOM     23  C   UNL     1      37.341 -18.804 -21.237  0.00  0.00    +0.112 C 
BRANCH  22  24
ATOM     24  C   UNL     1      35.107 -18.198 -22.182  0.00  0.00    +0.118 C 
BRANCH  24  29
ATOM     25  O   UNL     1      34.812 -14.919 -20.502  0.00  0.00    -0.427 OA
ATOM     26  N   UNL     1      34.185 -13.307 -22.149  0.00  0.00    -0.294 NA
ATOM     27  N   UNL     1      33.925 -14.237 -24.385  0.00  0.00    -0.317 NA
ATOM     28  N   UNL     1      33.576 -11.961 -23.962  0.00  0.00    -0.283 N 
ATOM     29  C   UNL     1      34.914 -16.768 -21.781  0.00  0.00    +0.031 C 
ATOM     30  C   UNL     1      34.545 -15.679 -22.608  0.00  0.00    +0.180 C 
ATOM     31  C   UNL     1      34.495 -14.562 -21.780  0.00  0.00    +0.281 C 
ATOM     32  C   UNL     1      35.063 -16.253 -20.514  0.00  0.00    +0.176 C 
ATOM     33  C   UNL     1      34.245 -15.478 -23.953  0.00  0.00    +0.181 C 
ATOM     34  C   UNL     1      33.916 -13.242 -23.469  0.00  0.00    +0.200 C 
ATOM     35  H   UNL     1      33.549 -11.190 -23.350  0.00  0.00    +0.156 HD
ATOM     36  H   UNL     1      33.367 -11.841 -24.916  0.00  0.00    +0.156 HD
ATOM     37  N   UNL     1      34.267 -16.546 -24.868  0.00  0.00    -0.335 N 
ATOM     38  H   UNL     1      34.053 -16.387 -25.816  0.00  0.00    +0.144 HD
ATOM     39  H   UNL     1      34.498 -17.453 -24.562  0.00  0.00    +0.144 HD
ENDBRANCH  24  29
ENDBRANCH  22  24
ENDBRANCH   1  22
TORSDOF 11
ENDMDL
MODEL 5
REMARK VINA RESULT:     -10.9      3.861     11.114
REMARK  Name = 158376
REMARK  11 active torsions:
REMARK  status: ('A' for Active; 'I' for Inactive)
REMARK    1  A    between atoms: C_1  and  N_22
REMARK    2  A    between atoms: C_2  and  C_9
REMARK    3  A    between atoms: N_8  and  CA_11
REMARK    4  A    between atoms: CA_11  and  C_13
REMARK    5  A    between atoms: CA_11  and  CB_16
REMARK    6  A    between atoms: C_13  and  O_14
REMARK    7  A    between atoms: CB_16  and  CG_17
REMARK    8  A    between atoms: CG_17  and  CD_19
REMARK    9  A    between atoms: CD_19  and  OE1_20
REMARK   10  A    between atoms: N_22  and  C_24
REMARK   11  A    between atoms: C_24  and  C_29
REMARK                            x       y       z     vdW  Elec       q    Type
REMARK                         _______ _______ _______ _____ _____    ______ ____
ROOT
ATOM      1  C   UNL     1      34.955 -19.698 -21.170  0.00  0.00    +0.048 C 
ATOM      2  C   UNL     1      34.893 -21.385 -18.948  0.00  0.00    +0.053 C 
ATOM      3  C   UNL     1      33.733 -20.165 -20.683  0.00  0.00    +0.015 C 
ATOM      4  C   UNL     1      36.144 -20.074 -20.546  0.00  0.00    +0.015 C 
ATOM      5  C   UNL     1      33.703 -21.008 -19.572  0.00  0.00    +0.006 C 
ATOM      6  C   UNL     1      36.113 -20.918 -19.435  0.00  0.00    +0.006 C 
ENDROOT
BRANCH   2   9
ATOM      7  O   UNL     1      35.917 -22.619 -17.238  0.00  0.00    -0.270 OA
ATOM      8  N   UNL     1      33.599 -22.660 -17.324  0.00  0.00    -0.293 N 
ATOM      9  C   ACE A   0      34.860 -22.282 -17.765  0.00  0.00    +0.246 C 
ATOM     10  H   UNL     1      32.809 -22.337 -17.814  0.00  0.00    +0.150 HD
BRANCH   8  11
ATOM     11  CA  UNL     1      33.401 -23.506 -16.175  0.00  0.00    +0.172 C 
BRANCH  11  13
ATOM     12  OXT UNL     1      31.401 -24.105 -14.920  0.00  0.00    -0.248 OA
ATOM     13  C   UNL     1      31.923 -23.491 -15.842  0.00  0.00    +0.332 C 
BRANCH  13  14
ATOM     14  O   UNL     1      31.225 -22.673 -16.673  0.00  0.00    -0.479 OA
ATOM     15  H   UNL     1      31.652 -22.273 -17.404  0.00  0.00    +0.295 HD
ENDBRANCH  13  14
ENDBRANCH  11  13
BRANCH  11  16
ATOM     16  CB  UNL     1      34.305 -23.126 -14.996  0.00  0.00    +0.043 C 
BRANCH  16  17
ATOM     17  CG  UNL     1      34.847 -24.296 -14.165  0.00  0.00    +0.112 C 
BRANCH  17  19
ATOM     18  OE2 UNL     1      35.869 -26.306 -15.087  0.00  0.00    -0.250 OA
ATOM     19  CD  UNL     1      35.914 -25.103 -14.871  0.00  0.00    +0.314 C 
BRANCH  19  20
ATOM     20  OE1 UNL     1      36.979 -24.331 -15.214  0.00  0.00    -0.480 OA
ATOM     21  HE1 UNL     1      37.842 -24.696 -15.211  0.00  0.00    +0.295 HD
ENDBRANCH  19  20
ENDBRANCH  17  19
ENDBRANCH  16  17
ENDBRANCH  11  16
ENDBRANCH   8  11
ENDBRANCH   2   9
BRANCH   1  22
ATOM     22  N   UNL     1      34.987 -18.844 -22.292  0.00  0.00    -0.302 N 
ATOM     23  C   UNL     1      34.423 -19.273 -23.556  0.00  0.00    +0.112 C 
BRANCH  22  24
ATOM     24  C   UNL     1      35.570 -17.521 -22.191  0.00  0.00    +0.118 C 
BRANCH  24  29
ATOM     25  O   UNL     1      34.217 -15.405 -24.904  0.00  0.00    -0.427 OA
ATOM     26  N   UNL     1      33.338 -13.419 -23.912  0.00  0.00    -0.294 NA
ATOM     27  N   UNL     1      33.569 -13.345 -21.488  0.00  0.00    -0.317 NA
ATOM     28  N   UNL     1      32.565 -11.592 -22.672  0.00  0.00    -0.283 N 
ATOM     29  C   UNL     1      34.951 -16.471 -23.062  0.00  0.00    +0.031 C 
ATOM     30  C   UNL     1      34.383 -15.239 -22.661  0.00  0.00    +0.180 C 
ATOM     31  C   UNL     1      33.943 -14.616 -23.826  0.00  0.00    +0.281 C 
ATOM     32  C   UNL     1      34.827 -16.523 -24.431  0.00  0.00    +0.176 C 
ATOM     33  C   UNL     1      34.173 -14.554 -21.466  0.00  0.00    +0.181 C 
ATOM     34  C   UNL     1      33.193 -12.859 -22.694  0.00  0.00    +0.200 C 
ATOM     35  H   UNL     1      32.265 -11.178 -23.514  0.00  0.00    +0.156 HD
ATOM     36  H   UNL     1      32.427 -11.126 -21.817  0.00  0.00    +0.156 HD
ATOM     37  N   UNL     1      34.583 -15.101 -20.236  0.00  0.00    -0.335 N 
ATOM     38  H   UNL     1      34.428 -14.605 -19.401  0.00  0.00    +0.144 HD
ATOM     39  H   UNL     1      35.025 -15.981 -20.211  0.00  0.00    +0.144 HD
ENDBRANCH  24  29
ENDBRANCH  22  24
ENDBRANCH   1  22
TORSDOF 11
ENDMDL
MODEL 6
REMARK VINA RESULT:     -10.8      1.027      1.824
REMARK  Name = 158376
REMARK  11 active torsions:
REMARK  status: ('A' for Active; 'I' for Inactive)
REMARK    1  A    between atoms: C_1  and  N_22
REMARK    2  A    between atoms: C_2  and  C_9
REMARK    3  A    between atoms: N_8  and  CA_11
REMARK    4  A    between atoms: CA_11  and  C_13
REMARK    5  A    between atoms: CA_11  and  CB_16
REMARK    6  A    between atoms: C_13  and  O_14
REMARK    7  A    between atoms: CB_16  and  CG_17
REMARK    8  A    between atoms: CG_17  and  CD_19
REMARK    9  A    between atoms: CD_19  and  OE1_20
REMARK   10  A    between atoms: N_22  and  C_24
REMARK   11  A    between atoms: C_24  and  C_29
REMARK                            x       y       z     vdW  Elec       q    Type
REMARK                         _______ _______ _______ _____ _____    ______ ____
ROOT
ATOM      1  C   UNL     1      34.348 -23.038 -15.919  0.00  0.00    +0.048 C 
ATOM      2  C   UNL     1      35.389 -21.888 -18.238  0.00  0.00    +0.053 C 
ATOM      3  C   UNL     1      33.570 -22.975 -17.076  0.00  0.00    +0.015 C 
ATOM      4  C   UNL     1      35.645 -22.527 -15.922  0.00  0.00    +0.015 C 
ATOM      5  C   UNL     1      34.091 -22.400 -18.235  0.00  0.00    +0.006 C 
ATOM      6  C   UNL     1      36.165 -21.952 -17.082  0.00  0.00    +0.006 C 
ENDROOT
BRANCH   2   9
ATOM      7  O   UNL     1      37.044 -21.639 -19.880  0.00  0.00    -0.270 OA
ATOM      8  N   UNL     1      35.139 -20.334 -20.098  0.00  0.00    -0.293 N 
ATOM      9  C   ACE A   0      35.943 -21.276 -19.473  0.00  0.00    +0.246 C 
ATOM     10  H   UNL     1      34.270 -20.108 -19.693  0.00  0.00    +0.150 HD
BRANCH   8  11
ATOM     11  CA  UNL     1      35.526 -19.670 -21.317  0.00  0.00    +0.172 C 
BRANCH  11  13
ATOM     12  OXT UNL     1      37.688 -18.596 -20.988  0.00  0.00    -0.248 OA
ATOM     13  C   UNL     1      36.465 -18.540 -20.946  0.00  0.00    +0.332 C 
BRANCH  13  14
ATOM     14  O   UNL     1      35.790 -17.416 -20.589  0.00  0.00    -0.479 OA
ATOM     15  H   UNL     1      35.868 -17.080 -19.719  0.00  0.00    +0.295 HD
ENDBRANCH  13  14
ENDBRANCH  11  13
BRANCH  11  16
ATOM     16  CB  UNL     1      34.323 -19.225 -22.158  0.00  0.00    +0.043 C 
BRANCH  16  17
ATOM     17  CG  UNL     1      34.578 -19.080 -23.663  0.00  0.00    +0.112 C 
BRANCH  17  19
ATOM     18  OE2 UNL     1      33.848 -17.261 -25.111  0.00  0.00    -0.250 OA
ATOM     19  CD  UNL     1      34.509 -17.652 -24.159  0.00  0.00    +0.314 C 
BRANCH  19  20
ATOM     20  OE1 UNL     1      35.316 -16.832 -23.435  0.00  0.00    -0.480 OA
ATOM     21  HE1 UNL     1      34.978 -16.390 -22.681  0.00  0.00    +0.295 HD
ENDBRANCH  19  20
ENDBRANCH  17  19
ENDBRANCH  16  17
ENDBRANCH  11  16
ENDBRANCH   8  11
ENDBRANCH   2   9
BRANCH   1  22
ATOM     22  N   UNL     1      33.822 -23.621 -14.747  0.00  0.00    -0.302 N 
ATOM     23  C   UNL     1      32.389 -23.720 -14.556  0.00  0.00    +0.112 C 
BRANCH  22  24
ATOM     24  C   UNL     1      34.709 -24.142 -13.725  0.00  0.00    +0.118 C 
BRANCH  24  29
ATOM     25  O   UNL     1      36.571 -26.950 -15.245  0.00  0.00    -0.427 OA
ATOM     26  N   UNL     1      38.834 -26.817 -14.494  0.00  0.00    -0.294 NA
ATOM     27  N   UNL     1      39.266 -24.945 -12.997  0.00  0.00    -0.317 NA
ATOM     28  N   UNL     1      40.963 -26.439 -13.602  0.00  0.00    -0.283 N 
ATOM     29  C   UNL     1      35.702 -25.163 -14.187  0.00  0.00    +0.031 C 
ATOM     30  C   UNL     1      37.074 -25.249 -13.852  0.00  0.00    +0.180 C 
ATOM     31  C   UNL     1      37.570 -26.362 -14.526  0.00  0.00    +0.281 C 
ATOM     32  C   UNL     1      35.447 -26.218 -15.033  0.00  0.00    +0.176 C 
ATOM     33  C   UNL     1      37.979 -24.535 -13.069  0.00  0.00    +0.181 C 
ATOM     34  C   UNL     1      39.609 -26.045 -13.705  0.00  0.00    +0.200 C 
ATOM     35  H   UNL     1      41.283 -27.232 -14.091  0.00  0.00    +0.156 HD
ATOM     36  H   UNL     1      41.585 -25.921 -13.042  0.00  0.00    +0.156 HD
ATOM     37  N   UNL     1      37.573 -23.397 -12.349  0.00  0.00    -0.335 N 
ATOM     38  H   UNL     1      38.224 -22.903 -11.800  0.00  0.00    +0.144 HD
ATOM     39  H   UNL     1      36.637 -23.092 -12.395  0.00  0.00    +0.144 HD
ENDBRANCH  24  29
ENDBRANCH  22  24
ENDBRANCH   1  22
TORSDOF 11
ENDMDL
MODEL 7
REMARK VINA RESULT:     -10.6      3.558     11.057
REMARK  Name = 158376
REMARK  11 active torsions:
REMARK  status: ('A' for Active; 'I' for Inactive)
REMARK    1  A    between atoms: C_1  and  N_22
REMARK    2  A    between atoms: C_2  and  C_9
REMARK    3  A    between atoms: N_8  and  CA_11
REMARK    4  A    between atoms: CA_11  and  C_13
REMARK    5  A    between atoms: CA_11  and  CB_16
REMARK    6  A    between atoms: C_13  and  O_14
REMARK    7  A    between atoms: CB_16  and  CG_17
REMARK    8  A    between atoms: CG_17  and  CD_19
REMARK    9  A    between atoms: CD_19  and  OE1_20
REMARK   10  A    between atoms: N_22  and  C_24
REMARK   11  A    between atoms: C_24  and  C_29
REMARK                            x       y       z     vdW  Elec       q    Type
REMARK                         _______ _______ _______ _____ _____    ______ ____
ROOT
ATOM      1  C   UNL     1      35.102 -20.035 -20.625  0.00  0.00    +0.048 C 
ATOM      2  C   UNL     1      34.986 -21.719 -18.403  0.00  0.00    +0.053 C 
ATOM      3  C   UNL     1      33.871 -20.521 -20.182  0.00  0.00    +0.015 C 
ATOM      4  C   UNL     1      36.274 -20.390 -19.958  0.00  0.00    +0.015 C 
ATOM      5  C   UNL     1      33.814 -21.362 -19.071  0.00  0.00    +0.006 C 
ATOM      6  C   UNL     1      36.216 -21.233 -18.847  0.00  0.00    +0.006 C 
ENDROOT
BRANCH   2   9
ATOM      7  O   UNL     1      33.990 -23.404 -17.114  0.00  0.00    -0.270 OA
ATOM      8  N   UNL     1      35.971 -22.500 -16.316  0.00  0.00    -0.293 N 
ATOM      9  C   ACE A   0      34.925 -22.615 -17.220  0.00  0.00    +0.246 C 
ATOM     10  H   UNL     1      36.676 -21.835 -16.488  0.00  0.00    +0.150 HD
BRANCH   8  11
ATOM     11  CA  UNL     1      36.066 -23.317 -15.132  0.00  0.00    +0.172 C 
BRANCH  11  13
ATOM     12  OXT UNL     1      37.690 -22.890 -13.368  0.00  0.00    -0.248 OA
ATOM     13  C   UNL     1      37.449 -23.118 -14.547  0.00  0.00    +0.332 C 
BRANCH  13  14
ATOM     14  O   UNL     1      38.422 -23.259 -15.485  0.00  0.00    -0.479 OA
ATOM     15  H   UNL     1      39.003 -22.547 -15.667  0.00  0.00    +0.295 HD
ENDBRANCH  13  14
ENDBRANCH  11  13
BRANCH  11  16
ATOM     16  CB  UNL     1      35.711 -24.786 -15.396  0.00  0.00    +0.043 C 
BRANCH  16  17
ATOM     17  CG  UNL     1      36.149 -25.783 -14.316  0.00  0.00    +0.112 C 
BRANCH  17  19
ATOM     18  OE2 UNL     1      38.199 -27.099 -14.254  0.00  0.00    -0.250 OA
ATOM     19  CD  UNL     1      37.144 -26.812 -14.804  0.00  0.00    +0.314 C 
BRANCH  19  20
ATOM     20  OE1 UNL     1      36.748 -27.375 -15.977  0.00  0.00    -0.480 OA
ATOM     21  HE1 UNL     1      37.389 -27.680 -16.589  0.00  0.00    +0.295 HD
ENDBRANCH  19  20
ENDBRANCH  17  19
ENDBRANCH  16  17
ENDBRANCH  11  16
ENDBRANCH   8  11
ENDBRANCH   2   9
BRANCH   1  22
ATOM     22  N   UNL     1      35.161 -19.183 -21.747  0.00  0.00    -0.302 N 
ATOM     23  C   UNL     1      34.763 -19.663 -23.055  0.00  0.00    +0.112 C 
BRANCH  22  24
ATOM     24  C   UNL     1      35.607 -17.810 -21.604  0.00  0.00    +0.118 C 
BRANCH  24  29
ATOM     25  O   UNL     1      34.495 -15.994 -24.626  0.00  0.00    -0.427 OA
ATOM     26  N   UNL     1      33.706 -13.848 -23.939  0.00  0.00    -0.294 NA
ATOM     27  N   UNL     1      33.848 -13.470 -21.537  0.00  0.00    -0.317 NA
ATOM     28  N   UNL     1      33.003 -11.833 -22.981  0.00  0.00    -0.283 N 
ATOM     29  C   UNL     1      35.089 -16.851 -22.631  0.00  0.00    +0.031 C 
ATOM     30  C   UNL     1      34.585 -15.545 -22.418  0.00  0.00    +0.180 C 
ATOM     31  C   UNL     1      34.231 -15.056 -23.672  0.00  0.00    +0.281 C 
ATOM     32  C   UNL     1      35.014 -17.074 -23.986  0.00  0.00    +0.176 C 
ATOM     33  C   UNL     1      34.374 -14.699 -21.331  0.00  0.00    +0.181 C 
ATOM     34  C   UNL     1      33.550 -13.126 -22.811  0.00  0.00    +0.200 C 
ATOM     35  H   UNL     1      32.763 -11.516 -23.882  0.00  0.00    +0.156 HD
ATOM     36  H   UNL     1      32.863 -11.251 -22.200  0.00  0.00    +0.156 HD
ATOM     37  N   UNL     1      34.701 -15.103 -20.024  0.00  0.00    -0.335 N 
ATOM     38  H   UNL     1      34.546 -14.493 -19.267  0.00  0.00    +0.144 HD
ATOM     39  H   UNL     1      35.085 -15.995 -19.866  0.00  0.00    +0.144 HD
ENDBRANCH  24  29
ENDBRANCH  22  24
ENDBRANCH   1  22
TORSDOF 11
ENDMDL
MODEL 8
REMARK VINA RESULT:     -10.5      4.004     10.923
REMARK  Name = 158376
REMARK  11 active torsions:
REMARK  status: ('A' for Active; 'I' for Inactive)
REMARK    1  A    between atoms: C_1  and  N_22
REMARK    2  A    between atoms: C_2  and  C_9
REMARK    3  A    between atoms: N_8  and  CA_11
REMARK    4  A    between atoms: CA_11  and  C_13
REMARK    5  A    between atoms: CA_11  and  CB_16
REMARK    6  A    between atoms: C_13  and  O_14
REMARK    7  A    between atoms: CB_16  and  CG_17
REMARK    8  A    between atoms: CG_17  and  CD_19
REMARK    9  A    between atoms: CD_19  and  OE1_20
REMARK   10  A    between atoms: N_22  and  C_24
REMARK   11  A    between atoms: C_24  and  C_29
REMARK                            x       y       z     vdW  Elec       q    Type
REMARK                         _______ _______ _______ _____ _____    ______ ____
ROOT
ATOM      1  C   UNL     1      34.956 -19.348 -21.496  0.00  0.00    +0.048 C 
ATOM      2  C   UNL     1      34.983 -21.108 -19.331  0.00  0.00    +0.053 C 
ATOM      3  C   UNL     1      33.759 -19.876 -21.011  0.00  0.00    +0.015 C 
ATOM      4  C   UNL     1      36.166 -19.700 -20.898  0.00  0.00    +0.015 C 
ATOM      5  C   UNL     1      33.773 -20.755 -19.929  0.00  0.00    +0.006 C 
ATOM      6  C   UNL     1      36.179 -20.580 -19.816  0.00  0.00    +0.006 C 
ENDROOT
BRANCH   2   9
ATOM      7  O   UNL     1      36.076 -22.406 -17.713  0.00  0.00    -0.270 OA
ATOM      8  N   UNL     1      33.756 -22.427 -17.690  0.00  0.00    -0.293 N 
ATOM      9  C   ACE A   0      34.998 -22.044 -18.178  0.00  0.00    +0.246 C 
ATOM     10  H   UNL     1      32.947 -22.082 -18.132  0.00  0.00    +0.150 HD
BRANCH   8  11
ATOM     11  CA  UNL     1      33.605 -23.310 -16.561  0.00  0.00    +0.172 C 
BRANCH  11  13
ATOM     12  OXT UNL     1      31.646 -24.008 -15.294  0.00  0.00    -0.248 OA
ATOM     13  C   UNL     1      32.136 -23.334 -16.191  0.00  0.00    +0.332 C 
BRANCH  13  14
ATOM     14  O   UNL     1      31.406 -22.479 -16.954  0.00  0.00    -0.479 OA
ATOM     15  H   UNL     1      31.190 -22.707 -17.836  0.00  0.00    +0.295 HD
ENDBRANCH  13  14
ENDBRANCH  11  13
BRANCH  11  16
ATOM     16  CB  UNL     1      34.532 -22.945 -15.395  0.00  0.00    +0.043 C 
BRANCH  16  17
ATOM     17  CG  UNL     1      35.189 -24.125 -14.670  0.00  0.00    +0.112 C 
BRANCH  17  19
ATOM     18  OE2 UNL     1      37.408 -23.136 -14.487  0.00  0.00    -0.250 OA
ATOM     19  CD  UNL     1      36.701 -24.107 -14.720  0.00  0.00    +0.314 C 
BRANCH  19  20
ATOM     20  OE1 UNL     1      37.204 -25.311 -15.102  0.00  0.00    -0.480 OA
ATOM     21  HE1 UNL     1      38.087 -25.373 -15.408  0.00  0.00    +0.295 HD
ENDBRANCH  19  20
ENDBRANCH  17  19
ENDBRANCH  16  17
ENDBRANCH  11  16
ENDBRANCH   8  11
ENDBRANCH   2   9
BRANCH   1  22
ATOM     22  N   UNL     1      34.943 -18.458 -22.589  0.00  0.00    -0.302 N 
ATOM     23  C   UNL     1      34.207 -18.786 -23.794  0.00  0.00    +0.112 C 
BRANCH  22  24
ATOM     24  C   UNL     1      35.652 -17.196 -22.517  0.00  0.00    +0.118 C 
BRANCH  24  29
ATOM     25  O   UNL     1      34.244 -14.849 -20.032  0.00  0.00    -0.427 OA
ATOM     26  N   UNL     1      32.982 -13.203 -21.215  0.00  0.00    -0.294 NA
ATOM     27  N   UNL     1      32.974 -13.518 -23.631  0.00  0.00    -0.317 NA
ATOM     28  N   UNL     1      31.826 -11.741 -22.629  0.00  0.00    -0.283 N 
ATOM     29  C   UNL     1      34.962 -16.106 -21.756  0.00  0.00    +0.031 C 
ATOM     30  C   UNL     1      34.174 -15.052 -22.277  0.00  0.00    +0.180 C 
ATOM     31  C   UNL     1      33.754 -14.303 -21.182  0.00  0.00    +0.281 C 
ATOM     32  C   UNL     1      34.972 -15.938 -20.391  0.00  0.00    +0.176 C 
ATOM     33  C   UNL     1      33.753 -14.619 -23.533  0.00  0.00    +0.181 C 
ATOM     34  C   UNL     1      32.642 -12.886 -22.482  0.00  0.00    +0.200 C 
ATOM     35  H   UNL     1      31.545 -11.232 -21.834  0.00  0.00    +0.156 HD
ATOM     36  H   UNL     1      31.540 -11.453 -23.525  0.00  0.00    +0.156 HD
ATOM     37  N   UNL     1      34.125 -15.311 -24.700  0.00  0.00    -0.335 N 
ATOM     38  H   UNL     1      33.820 -14.992 -25.579  0.00  0.00    +0.144 HD
ATOM     39  H   UNL     1      34.692 -16.114 -24.637  0.00  0.00    +0.144 HD
ENDBRANCH  24  29
ENDBRANCH  22  24
ENDBRANCH   1  22
TORSDOF 11
ENDMDL
MODEL 9
REMARK VINA RESULT:     -10.3      4.813      8.540
REMARK  Name = 158376
REMARK  11 active torsions:
REMARK  status: ('A' for Active; 'I' for Inactive)
REMARK    1  A    between atoms: C_1  and  N_22
REMARK    2  A    between atoms: C_2  and  C_9
REMARK    3  A    between atoms: N_8  and  CA_11
REMARK    4  A    between atoms: CA_11  and  C_13
REMARK    5  A    between atoms: CA_11  and  CB_16
REMARK    6  A    between atoms: C_13  and  O_14
REMARK    7  A    between atoms: CB_16  and  CG_17
REMARK    8  A    between atoms: CG_17  and  CD_19
REMARK    9  A    between atoms: CD_19  and  OE1_20
REMARK   10  A    between atoms: N_22  and  C_24
REMARK   11  A    between atoms: C_24  and  C_29
REMARK                            x       y       z     vdW  Elec       q    Type
REMARK                         _______ _______ _______ _____ _____    ______ ____
ROOT
ATOM      1  C   UNL     1      35.366 -17.377 -22.170  0.00  0.00    +0.048 C 
ATOM      2  C   UNL     1      34.197 -15.046 -23.164  0.00  0.00    +0.053 C 
ATOM      3  C   UNL     1      35.153 -16.288 -21.324  0.00  0.00    +0.015 C 
ATOM      4  C   UNL     1      34.994 -17.300 -23.512  0.00  0.00    +0.015 C 
ATOM      5  C   UNL     1      34.568 -15.123 -21.821  0.00  0.00    +0.006 C 
ATOM      6  C   UNL     1      34.410 -16.134 -24.009  0.00  0.00    +0.006 C 
ENDROOT
BRANCH   2   9
ATOM      7  O   UNL     1      33.428 -13.678 -24.905  0.00  0.00    -0.270 OA
ATOM      8  N   UNL     1      33.176 -12.873 -22.744  0.00  0.00    -0.293 N 
ATOM      9  C   ACE A   0      33.575 -13.805 -23.693  0.00  0.00    +0.246 C 
ATOM     10  H   UNL     1      33.338 -13.066 -21.793  0.00  0.00    +0.150 HD
BRANCH   8  11
ATOM     11  CA  UNL     1      32.535 -11.632 -23.099  0.00  0.00    +0.172 C 
BRANCH  11  13
ATOM     12  OXT UNL     1      33.499  -9.403 -22.911  0.00  0.00    -0.248 OA
ATOM     13  C   UNL     1      33.616 -10.579 -23.232  0.00  0.00    +0.332 C 
BRANCH  13  14
ATOM     14  O   UNL     1      34.772 -11.098 -23.723  0.00  0.00    -0.479 OA
ATOM     15  H   UNL     1      35.144 -11.864 -23.333  0.00  0.00    +0.295 HD
ENDBRANCH  13  14
ENDBRANCH  11  13
BRANCH  11  16
ATOM     16  CB  UNL     1      31.412 -11.247 -22.128  0.00  0.00    +0.043 C 
BRANCH  16  17
ATOM     17  CG  UNL     1      31.691 -11.512 -20.644  0.00  0.00    +0.112 C 
BRANCH  17  19
ATOM     18  OE2 UNL     1      31.138 -10.296 -18.606  0.00  0.00    -0.250 OA
ATOM     19  CD  UNL     1      31.529 -10.291 -19.765  0.00  0.00    +0.314 C 
BRANCH  19  20
ATOM     20  OE1 UNL     1      31.836  -9.148 -20.435  0.00  0.00    -0.480 OA
ATOM     21  HE1 UNL     1      31.152  -8.613 -20.785  0.00  0.00    +0.295 HD
ENDBRANCH  19  20
ENDBRANCH  17  19
ENDBRANCH  16  17
ENDBRANCH  11  16
ENDBRANCH   8  11
ENDBRANCH   2   9
BRANCH   1  22
ATOM     22  N   UNL     1      35.955 -18.555 -21.668  0.00  0.00    -0.302 N 
ATOM     23  C   UNL     1      37.365 -18.586 -21.335  0.00  0.00    +0.112 C 
BRANCH  22  24
ATOM     24  C   UNL     1      35.155 -19.747 -21.463  0.00  0.00    +0.118 C 
BRANCH  24  29
ATOM     25  O   UNL     1      36.724 -21.574 -18.660  0.00  0.00    -0.427 OA
ATOM     26  N   UNL     1      34.983 -22.612 -17.398  0.00  0.00    -0.294 NA
ATOM     27  N   UNL     1      32.749 -22.195 -18.276  0.00  0.00    -0.317 NA
ATOM     28  N   UNL     1      33.083 -23.504 -16.365  0.00  0.00    -0.283 N 
ATOM     29  C   UNL     1      35.502 -20.562 -20.257  0.00  0.00    +0.031 C 
ATOM     30  C   UNL     1      34.616 -21.248 -19.391  0.00  0.00    +0.180 C 
ATOM     31  C   UNL     1      35.411 -21.855 -18.423  0.00  0.00    +0.281 C 
ATOM     32  C   UNL     1      36.768 -20.793 -19.770  0.00  0.00    +0.176 C 
ATOM     33  C   UNL     1      33.240 -21.442 -19.287  0.00  0.00    +0.181 C 
ATOM     34  C   UNL     1      33.639 -22.725 -17.406  0.00  0.00    +0.200 C 
ATOM     35  H   UNL     1      33.672 -23.921 -15.695  0.00  0.00    +0.156 HD
ATOM     36  H   UNL     1      32.109 -23.629 -16.310  0.00  0.00    +0.156 HD
ATOM     37  N   UNL     1      32.355 -20.870 -20.218  0.00  0.00    -0.335 N 
ATOM     38  H   UNL     1      31.386 -21.016 -20.131  0.00  0.00    +0.144 HD
ATOM     39  H   UNL     1      32.705 -20.322 -20.958  0.00  0.00    +0.144 HD
ENDBRANCH  24  29
ENDBRANCH  22  24
ENDBRANCH   1  22
TORSDOF 11
ENDMDL
