MODEL 1
REMARK VINA RESULT:     -12.4      0.000      0.000
REMARK  Name = 22479942
REMARK  4 active torsions:
REMARK  status: ('A' for Active; 'I' for Inactive)
REMARK    1  A    between atoms: C_4  and  C_17
REMARK    2  A    between atoms: C_7  and  C_14
REMARK    3  A    between atoms: C_20  and  N_24
REMARK    4  A    between atoms: C_25  and  C_28
REMARK                            x       y       z     vdW  Elec       q    Type
REMARK                         _______ _______ _______ _____ _____    ______ ____
ROOT
ATOM      1  N   UNL     1      31.155 -23.068 -16.571  0.00  0.00    -0.276 N 
ATOM      2  N   UNL     1      31.927 -22.520 -17.525  0.00  0.00    -0.173 NA
ATOM      3  C   UNL     1      33.176 -23.194 -15.730  0.00  0.00    +0.036 A 
ATOM      4  C   UNL     1      33.155 -22.598 -17.009  0.00  0.00    +0.102 A 
ATOM      5  C   UNL     1      31.844 -23.493 -15.467  0.00  0.00    +0.075 A 
ATOM      6  C   UNL     1      34.155 -23.511 -14.773  0.00  0.00    +0.006 C 
ATOM      7  C   UNL     1      33.749 -24.124 -13.580  0.00  0.00    +0.033 C 
ATOM      8  C   UNL     1      31.419 -24.102 -14.285  0.00  0.00    +0.019 C 
ATOM      9  C   UNL     1      32.404 -24.413 -13.342  0.00  0.00    +0.004 C 
ATOM     10  H   UNL     1      30.179 -23.157 -16.660  0.00  0.00    +0.189 HD
ENDROOT
BRANCH   7  14
ATOM     11  N   UNL     1      35.717 -25.378 -12.788  0.00  0.00    -0.218 N 
ATOM     12  N   UNL     1      34.849 -23.956 -11.374  0.00  0.00    -0.206 NA
ATOM     13  N   UNL     1      36.502 -25.502 -11.707  0.00  0.00    -0.157 NA
ATOM     14  C   UNL     1      34.738 -24.457 -12.583  0.00  0.00    +0.149 C 
ATOM     15  C   UNL     1      35.935 -24.620 -10.880  0.00  0.00    +0.218 C 
ATOM     16  H   UNL     1      35.836 -25.888 -13.622  0.00  0.00    +0.176 HD
ENDBRANCH   7  14
BRANCH   4  17
ATOM     17  C   UNL     1      34.285 -22.103 -17.755  0.00  0.00    +0.021 C 
ATOM     18  C   UNL     1      34.081 -21.383 -18.933  0.00  0.00    +0.016 C 
ATOM     19  C   UNL     1      35.580 -22.341 -17.299  0.00  0.00    +0.002 C 
ATOM     20  C   UNL     1      35.174 -20.903 -19.654  0.00  0.00    +0.051 C 
ATOM     21  C   UNL     1      36.673 -21.861 -18.021  0.00  0.00    +0.001 C 
ATOM     22  C   UNL     1      36.471 -21.142 -19.198  0.00  0.00    +0.015 C 
BRANCH  20  24
ATOM     23  O   UNL     1      36.223 -18.253 -20.465  0.00  0.00    -0.266 OA
ATOM     24  N   UNL     1      34.971 -20.183 -20.832  0.00  0.00    -0.278 N 
ATOM     25  C   UNL     1      35.487 -18.920 -21.188  0.00  0.00    +0.284 C 
ATOM     26  H   UNL     1      34.394 -20.614 -21.503  0.00  0.00    +0.155 HD
BRANCH  25  28
ATOM     27  O   UNL     1      35.293 -17.108 -22.789  0.00  0.00    -0.446 OA
ATOM     28  C   UNL     1      35.048 -18.412 -22.499  0.00  0.00    +0.199 C 
ATOM     29  C   UNL     1      34.404 -19.027 -23.547  0.00  0.00    +0.045 C 
ATOM     30  C   UNL     1      34.243 -18.038 -24.546  0.00  0.00    +0.044 C 
ATOM     31  C   UNL     1      34.801 -16.887 -24.036  0.00  0.00    +0.180 C 
ENDBRANCH  25  28
ENDBRANCH  20  24
ENDBRANCH   4  17
TORSDOF 4
ENDMDL
MODEL 2
REMARK VINA RESULT:     -12.0      2.291      3.429
REMARK  Name = 22479942
REMARK  4 active torsions:
REMARK  status: ('A' for Active; 'I' for Inactive)
REMARK    1  A    between atoms: C_4  and  C_17
REMARK    2  A    between atoms: C_7  and  C_14
REMARK    3  A    between atoms: C_20  and  N_24
REMARK    4  A    between atoms: C_25  and  C_28
REMARK                            x       y       z     vdW  Elec       q    Type
REMARK                         _______ _______ _______ _____ _____    ______ ____
ROOT
ATOM      1  N   UNL     1      32.392 -22.041 -19.026  0.00  0.00    -0.276 N 
ATOM      2  N   UNL     1      32.972 -21.177 -19.876  0.00  0.00    -0.173 NA
ATOM      3  C   UNL     1      34.426 -21.827 -18.234  0.00  0.00    +0.036 A 
ATOM      4  C   UNL     1      34.208 -21.050 -19.391  0.00  0.00    +0.102 A 
ATOM      5  C   UNL     1      33.212 -22.469 -18.016  0.00  0.00    +0.075 A 
ATOM      6  C   UNL     1      35.495 -22.060 -17.353  0.00  0.00    +0.006 C 
ATOM      7  C   UNL     1      35.298 -22.939 -16.280  0.00  0.00    +0.033 C 
ATOM      8  C   UNL     1      32.994 -23.348 -16.953  0.00  0.00    +0.019 C 
ATOM      9  C   UNL     1      34.068 -23.571 -16.086  0.00  0.00    +0.004 C 
ATOM     10  H   UNL     1      31.459 -22.340 -19.121  0.00  0.00    +0.189 HD
ENDROOT
BRANCH   7  14
ATOM     11  N   UNL     1      37.690 -23.185 -15.738  0.00  0.00    -0.218 N 
ATOM     12  N   UNL     1      36.294 -23.461 -14.080  0.00  0.00    -0.206 NA
ATOM     13  N   UNL     1      38.497 -23.450 -14.699  0.00  0.00    -0.157 NA
ATOM     14  C   UNL     1      36.383 -23.193 -15.362  0.00  0.00    +0.149 C 
ATOM     15  C   UNL     1      37.603 -23.609 -13.720  0.00  0.00    +0.218 C 
ATOM     16  H   UNL     1      38.005 -23.007 -16.654  0.00  0.00    +0.176 HD
ENDBRANCH   7  14
BRANCH   4  17
ATOM     17  C   UNL     1      35.157 -20.187 -20.049  0.00  0.00    +0.021 C 
ATOM     18  C   UNL     1      34.707 -19.106 -20.808  0.00  0.00    +0.016 C 
ATOM     19  C   UNL     1      36.523 -20.432 -19.926  0.00  0.00    +0.002 C 
ATOM     20  C   UNL     1      35.625 -18.271 -21.444  0.00  0.00    +0.051 C 
ATOM     21  C   UNL     1      37.442 -19.596 -20.563  0.00  0.00    +0.001 C 
ATOM     22  C   UNL     1      36.993 -18.516 -21.322  0.00  0.00    +0.015 C 
BRANCH  20  24
ATOM     23  O   UNL     1      34.918 -15.519 -20.598  0.00  0.00    -0.266 OA
ATOM     24  N   UNL     1      35.176 -17.189 -22.203  0.00  0.00    -0.278 N 
ATOM     25  C   UNL     1      34.848 -15.889 -21.768  0.00  0.00    +0.284 C 
ATOM     26  H   UNL     1      35.078 -17.356 -23.168  0.00  0.00    +0.155 HD
BRANCH  25  28
ATOM     27  O   UNL     1      33.944 -15.532 -23.991  0.00  0.00    -0.446 OA
ATOM     28  C   UNL     1      34.363 -14.981 -22.822  0.00  0.00    +0.199 C 
ATOM     29  C   UNL     1      34.241 -13.612 -22.862  0.00  0.00    +0.045 C 
ATOM     30  C   UNL     1      33.714 -13.301 -24.138  0.00  0.00    +0.044 C 
ATOM     31  C   UNL     1      33.549 -14.503 -24.786  0.00  0.00    +0.180 C 
ENDBRANCH  25  28
ENDBRANCH  20  24
ENDBRANCH   4  17
TORSDOF 4
ENDMDL
MODEL 3
REMARK VINA RESULT:     -10.8      4.867      6.871
REMARK  Name = 22479942
REMARK  4 active torsions:
REMARK  status: ('A' for Active; 'I' for Inactive)
REMARK    1  A    between atoms: C_4  and  C_17
REMARK    2  A    between atoms: C_7  and  C_14
REMARK    3  A    between atoms: C_20  and  N_24
REMARK    4  A    between atoms: C_25  and  C_28
REMARK                            x       y       z     vdW  Elec       q    Type
REMARK                         _______ _______ _______ _____ _____    ______ ____
ROOT
ATOM      1  N   UNL     1      34.157 -23.843 -11.273  0.00  0.00    -0.276 N 
ATOM      2  N   UNL     1      33.355 -23.506 -12.298  0.00  0.00    -0.173 NA
ATOM      3  C   UNL     1      35.425 -24.144 -13.038  0.00  0.00    +0.036 A 
ATOM      4  C   UNL     1      34.130 -23.691 -13.369  0.00  0.00    +0.102 A 
ATOM      5  C   UNL     1      35.414 -24.235 -11.650  0.00  0.00    +0.075 A 
ATOM      6  C   UNL     1      36.593 -24.483 -13.741  0.00  0.00    +0.006 C 
ATOM      7  C   UNL     1      37.712 -24.906 -13.012  0.00  0.00    +0.033 C 
ATOM      8  C   UNL     1      36.518 -24.653 -10.905  0.00  0.00    +0.019 C 
ATOM      9  C   UNL     1      37.673 -24.988 -11.619  0.00  0.00    +0.004 C 
ATOM     10  H   UNL     1      33.866 -23.812 -10.334  0.00  0.00    +0.189 HD
ENDROOT
BRANCH   7  14
ATOM     11  N   UNL     1      39.620 -26.399 -13.464  0.00  0.00    -0.218 N 
ATOM     12  N   UNL     1      39.523 -24.572 -14.659  0.00  0.00    -0.206 NA
ATOM     13  N   UNL     1      40.705 -26.488 -14.249  0.00  0.00    -0.157 NA
ATOM     14  C   UNL     1      38.923 -25.258 -13.714  0.00  0.00    +0.149 C 
ATOM     15  C   UNL     1      40.600 -25.359 -14.954  0.00  0.00    +0.218 C 
ATOM     16  H   UNL     1      39.363 -27.073 -12.794  0.00  0.00    +0.176 HD
ENDBRANCH   7  14
BRANCH   4  17
ATOM     17  C   UNL     1      33.612 -23.431 -14.688  0.00  0.00    +0.021 C 
ATOM     18  C   UNL     1      32.263 -23.117 -14.859  0.00  0.00    +0.016 C 
ATOM     19  C   UNL     1      34.458 -23.492 -15.794  0.00  0.00    +0.002 C 
ATOM     20  C   UNL     1      31.762 -22.865 -16.135  0.00  0.00    +0.051 C 
ATOM     21  C   UNL     1      33.957 -23.240 -17.072  0.00  0.00    +0.001 C 
ATOM     22  C   UNL     1      32.609 -22.926 -17.243  0.00  0.00    +0.015 C 
BRANCH  20  24
ATOM     23  O   UNL     1      29.354 -24.556 -15.778  0.00  0.00    -0.266 OA
ATOM     24  N   UNL     1      30.413 -22.549 -16.307  0.00  0.00    -0.278 N 
ATOM     25  C   UNL     1      29.288 -23.380 -16.128  0.00  0.00    +0.284 C 
ATOM     26  H   UNL     1      30.223 -21.625 -16.590  0.00  0.00    +0.155 HD
BRANCH  25  28
ATOM     27  O   UNL     1      27.608 -22.687 -17.735  0.00  0.00    -0.446 OA
ATOM     28  C   UNL     1      27.992 -22.751 -16.433  0.00  0.00    +0.199 C 
ATOM     29  C   UNL     1      27.039 -22.183 -15.620  0.00  0.00    +0.045 C 
ATOM     30  C   UNL     1      26.002 -21.743 -16.477  0.00  0.00    +0.044 C 
ATOM     31  C   UNL     1      26.396 -22.073 -17.753  0.00  0.00    +0.180 C 
ENDBRANCH  25  28
ENDBRANCH  20  24
ENDBRANCH   4  17
TORSDOF 4
ENDMDL
MODEL 4
REMARK VINA RESULT:     -10.8      3.862      8.126
REMARK  Name = 22479942
REMARK  4 active torsions:
REMARK  status: ('A' for Active; 'I' for Inactive)
REMARK    1  A    between atoms: C_4  and  C_17
REMARK    2  A    between atoms: C_7  and  C_14
REMARK    3  A    between atoms: C_20  and  N_24
REMARK    4  A    between atoms: C_25  and  C_28
REMARK                            x       y       z     vdW  Elec       q    Type
REMARK                         _______ _______ _______ _____ _____    ______ ____
ROOT
ATOM      1  N   UNL     1      36.487 -23.519 -14.688  0.00  0.00    -0.276 N 
ATOM      2  N   UNL     1      35.437 -24.000 -14.000  0.00  0.00    -0.173 NA
ATOM      3  C   UNL     1      34.764 -22.968 -15.928  0.00  0.00    +0.036 A 
ATOM      4  C   UNL     1      34.392 -23.663 -14.758  0.00  0.00    +0.102 A 
ATOM      5  C   UNL     1      36.150 -22.887 -15.855  0.00  0.00    +0.075 A 
ATOM      6  C   UNL     1      34.098 -22.403 -17.029  0.00  0.00    +0.006 C 
ATOM      7  C   UNL     1      34.861 -21.775 -18.022  0.00  0.00    +0.033 C 
ATOM      8  C   UNL     1      36.929 -22.266 -16.833  0.00  0.00    +0.019 C 
ATOM      9  C   UNL     1      36.253 -21.708 -17.923  0.00  0.00    +0.004 C 
ATOM     10  H   UNL     1      37.416 -23.613 -14.380  0.00  0.00    +0.189 HD
ENDROOT
BRANCH   7  14
ATOM     11  N   UNL     1      32.848 -21.200 -19.321  0.00  0.00    -0.218 N 
ATOM     12  N   UNL     1      34.758 -20.576 -20.179  0.00  0.00    -0.206 NA
ATOM     13  N   UNL     1      32.488 -20.590 -20.461  0.00  0.00    -0.157 NA
ATOM     14  C   UNL     1      34.198 -21.187 -19.160  0.00  0.00    +0.149 C 
ATOM     15  C   UNL     1      33.680 -20.230 -20.942  0.00  0.00    +0.218 C 
ATOM     16  H   UNL     1      32.215 -21.603 -18.683  0.00  0.00    +0.176 HD
ENDBRANCH   7  14
BRANCH   4  17
ATOM     17  C   UNL     1      33.057 -24.017 -14.345  0.00  0.00    +0.021 C 
ATOM     18  C   UNL     1      31.955 -23.427 -14.966  0.00  0.00    +0.016 C 
ATOM     19  C   UNL     1      32.866 -24.948 -13.325  0.00  0.00    +0.002 C 
ATOM     20  C   UNL     1      30.664 -23.769 -14.567  0.00  0.00    +0.051 C 
ATOM     21  C   UNL     1      31.574 -25.291 -12.926  0.00  0.00    +0.001 C 
ATOM     22  C   UNL     1      30.473 -24.702 -13.546  0.00  0.00    +0.015 C 
BRANCH  20  24
ATOM     23  O   UNL     1      28.544 -24.996 -16.236  0.00  0.00    -0.266 OA
ATOM     24  N   UNL     1      29.561 -23.181 -15.188  0.00  0.00    -0.278 N 
ATOM     25  C   UNL     1      28.568 -23.795 -15.978  0.00  0.00    +0.284 C 
ATOM     26  H   UNL     1      29.465 -22.210 -15.056  0.00  0.00    +0.155 HD
BRANCH  25  28
ATOM     27  O   UNL     1      27.298 -22.941 -17.860  0.00  0.00    -0.446 OA
ATOM     28  C   UNL     1      27.552 -22.881 -16.526  0.00  0.00    +0.199 C 
ATOM     29  C   UNL     1      26.765 -21.926 -15.927  0.00  0.00    +0.045 C 
ATOM     30  C   UNL     1      25.976 -21.362 -16.958  0.00  0.00    +0.044 C 
ATOM     31  C   UNL     1      26.337 -22.014 -18.115  0.00  0.00    +0.180 C 
ENDBRANCH  25  28
ENDBRANCH  20  24
ENDBRANCH   4  17
TORSDOF 4
ENDMDL
MODEL 5
REMARK VINA RESULT:     -10.8      6.964     11.349
REMARK  Name = 22479942
REMARK  4 active torsions:
REMARK  status: ('A' for Active; 'I' for Inactive)
REMARK    1  A    between atoms: C_4  and  C_17
REMARK    2  A    between atoms: C_7  and  C_14
REMARK    3  A    between atoms: C_20  and  N_24
REMARK    4  A    between atoms: C_25  and  C_28
REMARK                            x       y       z     vdW  Elec       q    Type
REMARK                         _______ _______ _______ _____ _____    ______ ____
ROOT
ATOM      1  N   UNL     1      33.068 -14.459 -25.099  0.00  0.00    -0.276 N 
ATOM      2  N   UNL     1      32.585 -13.513 -24.275  0.00  0.00    -0.173 NA
ATOM      3  C   UNL     1      33.800 -15.074 -23.125  0.00  0.00    +0.036 A 
ATOM      4  C   UNL     1      33.033 -13.891 -23.077  0.00  0.00    +0.102 A 
ATOM      5  C   UNL     1      33.806 -15.426 -24.470  0.00  0.00    +0.075 A 
ATOM      6  C   UNL     1      34.482 -15.881 -22.199  0.00  0.00    +0.006 C 
ATOM      7  C   UNL     1      35.150 -17.019 -22.669  0.00  0.00    +0.033 C 
ATOM      8  C   UNL     1      34.465 -16.556 -24.959  0.00  0.00    +0.019 C 
ATOM      9  C   UNL     1      35.140 -17.349 -24.026  0.00  0.00    +0.004 C 
ATOM     10  H   UNL     1      32.906 -14.457 -26.069  0.00  0.00    +0.189 HD
ENDROOT
BRANCH   7  14
ATOM     11  N   UNL     1      37.194 -18.096 -21.811  0.00  0.00    -0.218 N 
ATOM     12  N   UNL     1      35.352 -18.513 -20.712  0.00  0.00    -0.206 NA
ATOM     13  N   UNL     1      37.602 -18.913 -20.828  0.00  0.00    -0.157 NA
ATOM     14  C   UNL     1      35.857 -17.863 -21.735  0.00  0.00    +0.149 C 
ATOM     15  C   UNL     1      36.450 -19.136 -20.191  0.00  0.00    +0.218 C 
ATOM     16  H   UNL     1      37.788 -17.714 -22.498  0.00  0.00    +0.176 HD
ENDBRANCH   7  14
BRANCH   4  17
ATOM     17  C   UNL     1      32.717 -13.107 -21.908  0.00  0.00    +0.021 C 
ATOM     18  C   UNL     1      32.416 -11.751 -22.039  0.00  0.00    +0.016 C 
ATOM     19  C   UNL     1      32.712 -13.705 -20.649  0.00  0.00    +0.002 C 
ATOM     20  C   UNL     1      32.110 -10.994 -20.908  0.00  0.00    +0.051 C 
ATOM     21  C   UNL     1      32.407 -12.947 -19.518  0.00  0.00    +0.001 C 
ATOM     22  C   UNL     1      32.105 -11.591 -19.647  0.00  0.00    +0.015 C 
BRANCH  20  24
ATOM     23  O   UNL     1      33.450  -8.890 -22.510  0.00  0.00    -0.266 OA
ATOM     24  N   UNL     1      31.807  -9.637 -21.037  0.00  0.00    -0.278 N 
ATOM     25  C   UNL     1      32.466  -8.661 -21.810  0.00  0.00    +0.284 C 
ATOM     26  H   UNL     1      31.030  -9.323 -20.520  0.00  0.00    +0.155 HD
BRANCH  25  28
ATOM     27  O   UNL     1      30.822  -6.990 -22.437  0.00  0.00    -0.446 OA
ATOM     28  C   UNL     1      31.919  -7.299 -21.696  0.00  0.00    +0.199 C 
ATOM     29  C   UNL     1      32.315  -6.215 -20.948  0.00  0.00    +0.045 C 
ATOM     30  C   UNL     1      31.405  -5.174 -21.248  0.00  0.00    +0.044 C 
ATOM     31  C   UNL     1      30.515  -5.696 -22.159  0.00  0.00    +0.180 C 
ENDBRANCH  25  28
ENDBRANCH  20  24
ENDBRANCH   4  17
TORSDOF 4
ENDMDL
MODEL 6
REMARK VINA RESULT:      -9.9      7.348     13.417
REMARK  Name = 22479942
REMARK  4 active torsions:
REMARK  status: ('A' for Active; 'I' for Inactive)
REMARK    1  A    between atoms: C_4  and  C_17
REMARK    2  A    between atoms: C_7  and  C_14
REMARK    3  A    between atoms: C_20  and  N_24
REMARK    4  A    between atoms: C_25  and  C_28
REMARK                            x       y       z     vdW  Elec       q    Type
REMARK                         _______ _______ _______ _____ _____    ______ ____
ROOT
ATOM      1  N   UNL     1      31.208 -11.183 -20.273  0.00  0.00    -0.276 N 
ATOM      2  N   UNL     1      31.587 -12.371 -20.774  0.00  0.00    -0.173 NA
ATOM      3  C   UNL     1      32.541 -10.642 -21.928  0.00  0.00    +0.036 A 
ATOM      4  C   UNL     1      32.397 -12.038 -21.780  0.00  0.00    +0.102 A 
ATOM      5  C   UNL     1      31.747 -10.104 -20.923  0.00  0.00    +0.075 A 
ATOM      6  C   UNL     1      33.243  -9.779 -22.787  0.00  0.00    +0.006 C 
ATOM      7  C   UNL     1      33.116  -8.397 -22.595  0.00  0.00    +0.033 C 
ATOM      8  C   UNL     1      31.606  -8.730 -20.715  0.00  0.00    +0.019 C 
ATOM      9  C   UNL     1      32.310  -7.884 -21.577  0.00  0.00    +0.004 C 
ATOM     10  H   UNL     1      30.598 -11.096 -19.506  0.00  0.00    +0.189 HD
ENDROOT
BRANCH   7  14
ATOM     11  N   UNL     1      35.085  -7.047 -23.207  0.00  0.00    -0.218 N 
ATOM     12  N   UNL     1      33.399  -6.972 -24.594  0.00  0.00    -0.206 NA
ATOM     13  N   UNL     1      35.517  -6.218 -24.169  0.00  0.00    -0.157 NA
ATOM     14  C   UNL     1      33.827  -7.492 -23.466  0.00  0.00    +0.149 C 
ATOM     15  C   UNL     1      34.459  -6.206 -24.985  0.00  0.00    +0.218 C 
ATOM     16  H   UNL     1      35.613  -7.301 -22.415  0.00  0.00    +0.176 HD
ENDBRANCH   7  14
BRANCH   4  17
ATOM     17  C   UNL     1      33.019 -13.065 -22.577  0.00  0.00    +0.021 C 
ATOM     18  C   UNL     1      33.669 -14.132 -21.956  0.00  0.00    +0.016 C 
ATOM     19  C   UNL     1      32.970 -12.993 -23.968  0.00  0.00    +0.002 C 
ATOM     20  C   UNL     1      34.271 -15.126 -22.728  0.00  0.00    +0.051 C 
ATOM     21  C   UNL     1      33.572 -13.987 -24.740  0.00  0.00    +0.001 C 
ATOM     22  C   UNL     1      34.222 -15.054 -24.120  0.00  0.00    +0.015 C 
BRANCH  20  24
ATOM     23  O   UNL     1      34.627 -17.922 -23.642  0.00  0.00    -0.266 OA
ATOM     24  N   UNL     1      34.921 -16.194 -22.108  0.00  0.00    -0.278 N 
ATOM     25  C   UNL     1      35.073 -17.516 -22.572  0.00  0.00    +0.284 C 
ATOM     26  H   UNL     1      35.327 -15.997 -21.233  0.00  0.00    +0.155 HD
BRANCH  25  28
ATOM     27  O   UNL     1      35.049 -19.339 -20.971  0.00  0.00    -0.446 OA
ATOM     28  C   UNL     1      35.783 -18.423 -21.654  0.00  0.00    +0.199 C 
ATOM     29  C   UNL     1      37.115 -18.534 -21.331  0.00  0.00    +0.045 C 
ATOM     30  C   UNL     1      37.206 -19.587 -20.389  0.00  0.00    +0.044 C 
ATOM     31  C   UNL     1      35.921 -20.045 -20.204  0.00  0.00    +0.180 C 
ENDBRANCH  25  28
ENDBRANCH  20  24
ENDBRANCH   4  17
TORSDOF 4
ENDMDL
MODEL 7
REMARK VINA RESULT:      -9.7     10.078     14.430
REMARK  Name = 22479942
REMARK  4 active torsions:
REMARK  status: ('A' for Active; 'I' for Inactive)
REMARK    1  A    between atoms: C_4  and  C_17
REMARK    2  A    between atoms: C_7  and  C_14
REMARK    3  A    between atoms: C_20  and  N_24
REMARK    4  A    between atoms: C_25  and  C_28
REMARK                            x       y       z     vdW  Elec       q    Type
REMARK                         _______ _______ _______ _____ _____    ______ ____
ROOT
ATOM      1  N   UNL     1      31.616 -11.134 -19.664  0.00  0.00    -0.276 N 
ATOM      2  N   UNL     1      31.456 -10.030 -20.413  0.00  0.00    -0.173 NA
ATOM      3  C   UNL     1      32.372 -11.736 -21.633  0.00  0.00    +0.036 A 
ATOM      4  C   UNL     1      31.917 -10.400 -21.610  0.00  0.00    +0.102 A 
ATOM      5  C   UNL     1      32.162 -12.194 -20.338  0.00  0.00    +0.075 A 
ATOM      6  C   UNL     1      32.932 -12.602 -22.587  0.00  0.00    +0.006 C 
ATOM      7  C   UNL     1      33.260 -13.906 -22.195  0.00  0.00    +0.033 C 
ATOM      8  C   UNL     1      32.481 -13.490 -19.926  0.00  0.00    +0.019 C 
ATOM      9  C   UNL     1      33.037 -14.340 -20.887  0.00  0.00    +0.004 C 
ATOM     10  H   UNL     1      31.362 -11.177 -18.715  0.00  0.00    +0.189 HD
ENDROOT
BRANCH   7  14
ATOM     11  N   UNL     1      33.509 -14.800 -24.479  0.00  0.00    -0.218 N 
ATOM     12  N   UNL     1      34.727 -15.752 -22.934  0.00  0.00    -0.206 NA
ATOM     13  N   UNL     1      34.184 -15.740 -25.157  0.00  0.00    -0.157 NA
ATOM     14  C   UNL     1      33.837 -14.812 -23.159  0.00  0.00    +0.149 C 
ATOM     15  C   UNL     1      34.907 -16.288 -24.177  0.00  0.00    +0.218 C 
ATOM     16  H   UNL     1      32.861 -14.180 -24.885  0.00  0.00    +0.176 HD
ENDBRANCH   7  14
BRANCH   4  17
ATOM     17  C   UNL     1      31.910  -9.466 -22.707  0.00  0.00    +0.021 C 
ATOM     18  C   UNL     1      31.510  -8.146 -22.497  0.00  0.00    +0.016 C 
ATOM     19  C   UNL     1      32.304  -9.881 -23.978  0.00  0.00    +0.002 C 
ATOM     20  C   UNL     1      31.503  -7.242 -23.559  0.00  0.00    +0.051 C 
ATOM     21  C   UNL     1      32.297  -8.976 -25.041  0.00  0.00    +0.001 C 
ATOM     22  C   UNL     1      31.897  -7.657 -24.831  0.00  0.00    +0.015 C 
BRANCH  20  24
ATOM     23  O   UNL     1      32.498  -5.241 -21.612  0.00  0.00    -0.266 OA
ATOM     24  N   UNL     1      31.104  -5.921 -23.349  0.00  0.00    -0.278 N 
ATOM     25  C   UNL     1      31.599  -4.992 -22.412  0.00  0.00    +0.284 C 
ATOM     26  H   UNL     1      30.382  -5.596 -23.935  0.00  0.00    +0.155 HD
BRANCH  25  28
ATOM     27  O   UNL     1      30.973  -2.951 -23.564  0.00  0.00    -0.446 OA
ATOM     28  C   UNL     1      30.931  -3.680 -22.418  0.00  0.00    +0.199 C 
ATOM     29  C   UNL     1      30.233  -3.007 -21.443  0.00  0.00    +0.045 C 
ATOM     30  C   UNL     1      29.820  -1.786 -22.027  0.00  0.00    +0.044 C 
ATOM     31  C   UNL     1      30.295  -1.800 -23.319  0.00  0.00    +0.180 C 
ENDBRANCH  25  28
ENDBRANCH  20  24
ENDBRANCH   4  17
TORSDOF 4
ENDMDL
MODEL 8
REMARK VINA RESULT:      -9.7     11.184     15.345
REMARK  Name = 22479942
REMARK  4 active torsions:
REMARK  status: ('A' for Active; 'I' for Inactive)
REMARK    1  A    between atoms: C_4  and  C_17
REMARK    2  A    between atoms: C_7  and  C_14
REMARK    3  A    between atoms: C_20  and  N_24
REMARK    4  A    between atoms: C_25  and  C_28
REMARK                            x       y       z     vdW  Elec       q    Type
REMARK                         _______ _______ _______ _____ _____    ______ ____
ROOT
ATOM      1  N   UNL     1      31.468  -9.834 -20.230  0.00  0.00    -0.276 N 
ATOM      2  N   UNL     1      31.889  -8.702 -20.820  0.00  0.00    -0.173 NA
ATOM      3  C   UNL     1      32.488 -10.544 -22.037  0.00  0.00    +0.036 A 
ATOM      4  C   UNL     1      32.509  -9.138 -21.918  0.00  0.00    +0.102 A 
ATOM      5  C   UNL     1      31.797 -10.976 -20.911  0.00  0.00    +0.075 A 
ATOM      6  C   UNL     1      32.969 -11.493 -22.955  0.00  0.00    +0.006 C 
ATOM      7  C   UNL     1      32.731 -12.850 -22.700  0.00  0.00    +0.033 C 
ATOM      8  C   UNL     1      31.549 -12.323 -20.638  0.00  0.00    +0.019 C 
ATOM      9  C   UNL     1      32.033 -13.255 -21.561  0.00  0.00    +0.004 C 
ATOM     10  H   UNL     1      30.967  -9.841 -19.384  0.00  0.00    +0.189 HD
ENDROOT
BRANCH   7  14
ATOM     11  N   UNL     1      32.799 -13.917 -24.921  0.00  0.00    -0.218 N 
ATOM     12  N   UNL     1      34.097 -14.788 -23.395  0.00  0.00    -0.206 NA
ATOM     13  N   UNL     1      33.401 -14.925 -25.570  0.00  0.00    -0.157 NA
ATOM     14  C   UNL     1      33.217 -13.842 -23.629  0.00  0.00    +0.149 C 
ATOM     15  C   UNL     1      34.177 -15.420 -24.602  0.00  0.00    +0.218 C 
ATOM     16  H   UNL     1      32.139 -13.310 -25.329  0.00  0.00    +0.176 HD
ENDBRANCH   7  14
BRANCH   4  17
ATOM     17  C   UNL     1      33.106  -8.198 -22.833  0.00  0.00    +0.021 C 
ATOM     18  C   UNL     1      32.333  -7.175 -23.385  0.00  0.00    +0.016 C 
ATOM     19  C   UNL     1      34.455  -8.309 -23.165  0.00  0.00    +0.002 C 
ATOM     20  C   UNL     1      32.911  -6.265 -24.269  0.00  0.00    +0.051 C 
ATOM     21  C   UNL     1      35.033  -7.399 -24.051  0.00  0.00    +0.001 C 
ATOM     22  C   UNL     1      34.262  -6.377 -24.602  0.00  0.00    +0.015 C 
BRANCH  20  24
ATOM     23  O   UNL     1      32.141  -3.640 -23.129  0.00  0.00    -0.266 OA
ATOM     24  N   UNL     1      32.141  -5.241 -24.821  0.00  0.00    -0.278 N 
ATOM     25  C   UNL     1      31.792  -4.000 -24.251  0.00  0.00    +0.284 C 
ATOM     26  H   UNL     1      31.797  -5.407 -25.729  0.00  0.00    +0.155 HD
BRANCH  25  28
ATOM     27  O   UNL     1      29.725  -2.772 -24.571  0.00  0.00    -0.446 OA
ATOM     28  C   UNL     1      30.924  -3.151 -25.084  0.00  0.00    +0.199 C 
ATOM     29  C   UNL     1      31.094  -2.635 -26.348  0.00  0.00    +0.045 C 
ATOM     30  C   UNL     1      29.924  -1.891 -26.630  0.00  0.00    +0.044 C 
ATOM     31  C   UNL     1      29.122  -2.005 -25.517  0.00  0.00    +0.180 C 
ENDBRANCH  25  28
ENDBRANCH  20  24
ENDBRANCH   4  17
TORSDOF 4
ENDMDL
MODEL 9
REMARK VINA RESULT:      -9.5      2.625      5.042
REMARK  Name = 22479942
REMARK  4 active torsions:
REMARK  status: ('A' for Active; 'I' for Inactive)
REMARK    1  A    between atoms: C_4  and  C_17
REMARK    2  A    between atoms: C_7  and  C_14
REMARK    3  A    between atoms: C_20  and  N_24
REMARK    4  A    between atoms: C_25  and  C_28
REMARK                            x       y       z     vdW  Elec       q    Type
REMARK                         _______ _______ _______ _____ _____    ______ ____
ROOT
ATOM      1  N   UNL     1      34.514 -23.605 -10.744  0.00  0.00    -0.276 N 
ATOM      2  N   UNL     1      33.551 -23.434 -11.666  0.00  0.00    -0.173 NA
ATOM      3  C   UNL     1      35.511 -24.116 -12.630  0.00  0.00    +0.036 A 
ATOM      4  C   UNL     1      34.161 -23.746 -12.811  0.00  0.00    +0.102 A 
ATOM      5  C   UNL     1      35.716 -24.013 -11.259  0.00  0.00    +0.075 A 
ATOM      6  C   UNL     1      36.573 -24.521 -13.456  0.00  0.00    +0.006 C 
ATOM      7  C   UNL     1      37.809 -24.809 -12.863  0.00  0.00    +0.033 C 
ATOM      8  C   UNL     1      36.939 -24.296 -10.647  0.00  0.00    +0.019 C 
ATOM      9  C   UNL     1      37.986 -24.698 -11.482  0.00  0.00    +0.004 C 
ATOM     10  H   UNL     1      34.368 -23.450  -9.784  0.00  0.00    +0.189 HD
ENDROOT
BRANCH   7  14
ATOM     11  N   UNL     1      39.542 -26.423 -13.547  0.00  0.00    -0.218 N 
ATOM     12  N   UNL     1      39.469 -24.553 -14.675  0.00  0.00    -0.206 NA
ATOM     13  N   UNL     1      40.533 -26.565 -14.439  0.00  0.00    -0.157 NA
ATOM     14  C   UNL     1      38.914 -25.226 -13.693  0.00  0.00    +0.149 C 
ATOM     15  C   UNL     1      40.447 -25.406 -15.098  0.00  0.00    +0.218 C 
ATOM     16  H   UNL     1      39.300 -27.100 -12.873  0.00  0.00    +0.176 HD
ENDBRANCH   7  14
BRANCH   4  17
ATOM     17  C   UNL     1      33.436 -23.686 -14.055  0.00  0.00    +0.021 C 
ATOM     18  C   UNL     1      33.925 -22.912 -15.109  0.00  0.00    +0.016 C 
ATOM     19  C   UNL     1      32.249 -24.400 -14.206  0.00  0.00    +0.002 C 
ATOM     20  C   UNL     1      33.224 -22.854 -16.313  0.00  0.00    +0.051 C 
ATOM     21  C   UNL     1      31.548 -24.341 -15.411  0.00  0.00    +0.001 C 
ATOM     22  C   UNL     1      32.035 -23.568 -16.465  0.00  0.00    +0.015 C 
BRANCH  20  24
ATOM     23  O   UNL     1      34.053 -23.668 -19.040  0.00  0.00    -0.266 OA
ATOM     24  N   UNL     1      33.711 -22.081 -17.369  0.00  0.00    -0.278 N 
ATOM     25  C   UNL     1      34.097 -22.501 -18.658  0.00  0.00    +0.284 C 
ATOM     26  H   UNL     1      33.794 -21.117 -17.189  0.00  0.00    +0.155 HD
BRANCH  25  28
ATOM     27  O   UNL     1      33.717 -20.749 -20.292  0.00  0.00    -0.446 OA
ATOM     28  C   UNL     1      34.612 -21.435 -19.534  0.00  0.00    +0.199 C 
ATOM     29  C   UNL     1      35.887 -20.968 -19.751  0.00  0.00    +0.045 C 
ATOM     30  C   UNL     1      35.769 -19.928 -20.704  0.00  0.00    +0.044 C 
ATOM     31  C   UNL     1      34.428 -19.833 -21.001  0.00  0.00    +0.180 C 
ENDBRANCH  25  28
ENDBRANCH  20  24
ENDBRANCH   4  17
TORSDOF 4
ENDMDL
