MODEL 1
REMARK VINA RESULT:     -11.1      0.000      0.000
REMARK  Name = 9863827
REMARK  4 active torsions:
REMARK  status: ('A' for Active; 'I' for Inactive)
REMARK    1  A    between atoms: N_2  and  C_23
REMARK    2  A    between atoms: C_7  and  C_27
REMARK    3  A    between atoms: C_9  and  C_15
REMARK    4  A    between atoms: C_27  and  O_28
REMARK                            x       y       z     vdW  Elec       q    Type
REMARK                         _______ _______ _______ _____ _____    ______ ____
ROOT
ATOM      1  O   UNL     1      38.337 -23.999 -13.113  0.00  0.00    -0.286 OA
ATOM      2  N   UNL     1      34.411 -24.040 -14.210  0.00  0.00    -0.287 N 
ATOM      3  C   UNL     1      35.342 -23.383 -15.063  0.00  0.00    +0.051 C 
ATOM      4  C   UNL     1      34.854 -24.639 -13.047  0.00  0.00    +0.075 C 
ATOM      5  C   UNL     1      36.709 -23.355 -14.708  0.00  0.00    +0.053 C 
ATOM      6  C   UNL     1      34.962 -22.754 -16.259  0.00  0.00    -0.008 C 
ATOM      7  C   UNL     1      36.122 -24.670 -12.619  0.00  0.00    +0.129 C 
ATOM      8  C   UNL     1      37.159 -24.008 -13.451  0.00  0.00    +0.204 C 
ATOM      9  C   UNL     1      35.907 -22.120 -17.070  0.00  0.00    -0.001 C 
ATOM     10  C   UNL     1      37.655 -22.719 -15.523  0.00  0.00    +0.004 C 
ATOM     11  C   UNL     1      33.547 -22.709 -16.755  0.00  0.00    +0.032 C 
ATOM     12  C   UNL     1      37.250 -22.104 -16.703  0.00  0.00    -0.000 C 
ENDROOT
BRANCH   9  15
ATOM     13  N   UNL     1      36.212 -20.310 -20.314  0.00  0.00    -0.230 NA
ATOM     14  N   UNL     1      34.575 -19.579 -21.867  0.00  0.00    -0.317 N 
ATOM     15  C   UNL     1      35.531 -21.465 -18.310  0.00  0.00    +0.019 C 
ATOM     16  C   UNL     1      34.201 -21.361 -18.683  0.00  0.00    +0.000 C 
ATOM     17  C   UNL     1      36.493 -20.932 -19.147  0.00  0.00    +0.100 C 
ATOM     18  C   UNL     1      33.871 -20.728 -19.877  0.00  0.00    +0.010 C 
ATOM     19  C   UNL     1      34.905 -20.224 -20.650  0.00  0.00    +0.124 C 
ATOM     20  C   UNL     1      32.441 -20.614 -20.280  0.00  0.00    +0.034 C 
ATOM     21  C   UNL     1      35.444 -19.575 -22.998  0.00  0.00    +0.110 C 
ATOM     22  H   UNL     1      33.710 -19.114 -21.936  0.00  0.00    +0.148 HD
ENDBRANCH   9  15
BRANCH   2  23
ATOM     23  C   UNL     1      32.956 -24.137 -14.473  0.00  0.00    +0.077 C 
ATOM     24  C   UNL     1      32.056 -24.858 -13.525  0.00  0.00    +0.022 C 
ATOM     25  C   UNL     1      31.979 -23.365 -13.651  0.00  0.00    +0.022 C 
ENDBRANCH   2  23
BRANCH   7  27
ATOM     26  O   UNL     1      36.033 -24.979 -10.264  0.00  0.00    -0.245 OA
ATOM     27  C   UNL     1      36.416 -25.353 -11.358  0.00  0.00    +0.342 C 
BRANCH  27  28
ATOM     28  O   UNL     1      37.169 -26.446 -11.599  0.00  0.00    -0.477 OA
ATOM     29  H   UNL     1      36.795 -27.187 -12.033  0.00  0.00    +0.295 HD
ENDBRANCH  27  28
ENDBRANCH   7  27
TORSDOF 4
ENDMDL
MODEL 2
REMARK VINA RESULT:     -10.6     10.359     14.168
REMARK  Name = 9863827
REMARK  4 active torsions:
REMARK  status: ('A' for Active; 'I' for Inactive)
REMARK    1  A    between atoms: N_2  and  C_23
REMARK    2  A    between atoms: C_7  and  C_27
REMARK    3  A    between atoms: C_9  and  C_15
REMARK    4  A    between atoms: C_27  and  O_28
REMARK                            x       y       z     vdW  Elec       q    Type
REMARK                         _______ _______ _______ _____ _____    ______ ____
ROOT
ATOM      1  O   UNL     1      32.780  -8.244 -24.328  0.00  0.00    -0.286 OA
ATOM      2  N   UNL     1      31.805 -10.307 -20.949  0.00  0.00    -0.287 N 
ATOM      3  C   UNL     1      32.566 -10.974 -21.951  0.00  0.00    +0.051 C 
ATOM      4  C   UNL     1      31.422  -8.995 -21.144  0.00  0.00    +0.075 C 
ATOM      5  C   UNL     1      32.918 -10.283 -23.131  0.00  0.00    +0.053 C 
ATOM      6  C   UNL     1      32.989 -12.307 -21.820  0.00  0.00    -0.008 C 
ATOM      7  C   UNL     1      31.702  -8.251 -22.221  0.00  0.00    +0.129 C 
ATOM      8  C   UNL     1      32.492  -8.871 -23.315  0.00  0.00    +0.204 C 
ATOM      9  C   UNL     1      33.735 -12.926 -22.826  0.00  0.00    -0.001 C 
ATOM     10  C   UNL     1      33.666 -10.906 -24.138  0.00  0.00    +0.004 C 
ATOM     11  C   UNL     1      32.685 -13.156 -20.621  0.00  0.00    +0.032 C 
ATOM     12  C   UNL     1      34.073 -12.228 -23.981  0.00  0.00    -0.000 C 
ENDROOT
BRANCH   9  15
ATOM     13  N   UNL     1      35.154 -16.038 -21.343  0.00  0.00    -0.230 NA
ATOM     14  N   UNL     1      35.483 -18.205 -22.251  0.00  0.00    -0.317 N 
ATOM     15  C   UNL     1      34.181 -14.303 -22.706  0.00  0.00    +0.019 C 
ATOM     16  C   UNL     1      34.076 -15.179 -23.774  0.00  0.00    +0.000 C 
ATOM     17  C   UNL     1      34.719 -14.770 -21.522  0.00  0.00    +0.100 C 
ATOM     18  C   UNL     1      34.511 -16.492 -23.629  0.00  0.00    +0.010 C 
ATOM     19  C   UNL     1      35.038 -16.868 -22.404  0.00  0.00    +0.124 C 
ATOM     20  C   UNL     1      34.399 -17.436 -24.777  0.00  0.00    +0.034 C 
ATOM     21  C   UNL     1      35.453 -18.888 -20.999  0.00  0.00    +0.110 C 
ATOM     22  H   UNL     1      35.827 -18.682 -23.040  0.00  0.00    +0.148 HD
ENDBRANCH   9  15
BRANCH   2  23
ATOM     23  C   UNL     1      31.375 -10.923 -19.672  0.00  0.00    +0.077 C 
ATOM     24  C   UNL     1      31.986 -10.502 -18.378  0.00  0.00    +0.022 C 
ATOM     25  C   UNL     1      30.561 -10.151 -18.689  0.00  0.00    +0.022 C 
ENDBRANCH   2  23
BRANCH   7  27
ATOM     26  O   UNL     1      31.199  -6.116 -21.305  0.00  0.00    -0.245 OA
ATOM     27  C   UNL     1      31.215  -6.871 -22.261  0.00  0.00    +0.342 C 
BRANCH  27  28
ATOM     28  O   UNL     1      30.791  -6.576 -23.508  0.00  0.00    -0.477 OA
ATOM     29  H   UNL     1      31.104  -7.071 -24.238  0.00  0.00    +0.295 HD
ENDBRANCH  27  28
ENDBRANCH   7  27
TORSDOF 4
ENDMDL
MODEL 3
REMARK VINA RESULT:      -9.4      2.160      3.943
REMARK  Name = 9863827
REMARK  4 active torsions:
REMARK  status: ('A' for Active; 'I' for Inactive)
REMARK    1  A    between atoms: N_2  and  C_23
REMARK    2  A    between atoms: C_7  and  C_27
REMARK    3  A    between atoms: C_9  and  C_15
REMARK    4  A    between atoms: C_27  and  O_28
REMARK                            x       y       z     vdW  Elec       q    Type
REMARK                         _______ _______ _______ _____ _____    ______ ____
ROOT
ATOM      1  O   UNL     1      31.496 -23.852 -15.329  0.00  0.00    -0.286 OA
ATOM      2  N   UNL     1      35.483 -23.098 -15.727  0.00  0.00    -0.287 N 
ATOM      3  C   UNL     1      34.598 -22.585 -16.716  0.00  0.00    +0.051 C 
ATOM      4  C   UNL     1      34.976 -23.829 -14.670  0.00  0.00    +0.075 C 
ATOM      5  C   UNL     1      33.212 -22.830 -16.603  0.00  0.00    +0.053 C 
ATOM      6  C   UNL     1      35.044 -21.834 -17.816  0.00  0.00    -0.008 C 
ATOM      7  C   UNL     1      33.684 -24.118 -14.469  0.00  0.00    +0.129 C 
ATOM      8  C   UNL     1      32.693 -23.620 -15.456  0.00  0.00    +0.204 C 
ATOM      9  C   UNL     1      34.142 -21.347 -18.767  0.00  0.00    -0.001 C 
ATOM     10  C   UNL     1      32.310 -22.341 -17.557  0.00  0.00    +0.004 C 
ATOM     11  C   UNL     1      36.485 -21.501 -18.059  0.00  0.00    +0.032 C 
ATOM     12  C   UNL     1      32.780 -21.599 -18.637  0.00  0.00    -0.000 C 
ENDROOT
BRANCH   9  15
ATOM     13  N   UNL     1      34.056 -19.525 -22.018  0.00  0.00    -0.230 NA
ATOM     14  N   UNL     1      35.740 -18.357 -23.211  0.00  0.00    -0.317 N 
ATOM     15  C   UNL     1      34.586 -20.569 -19.910  0.00  0.00    +0.019 C 
ATOM     16  C   UNL     1      35.898 -20.133 -20.006  0.00  0.00    +0.000 C 
ATOM     17  C   UNL     1      33.709 -20.245 -20.927  0.00  0.00    +0.100 C 
ATOM     18  C   UNL     1      36.293 -19.389 -21.112  0.00  0.00    +0.010 C 
ATOM     19  C   UNL     1      35.342 -19.115 -22.082  0.00  0.00    +0.124 C 
ATOM     20  C   UNL     1      37.704 -18.919 -21.218  0.00  0.00    +0.034 C 
ATOM     21  C   UNL     1      34.844 -17.504 -23.921  0.00  0.00    +0.110 C 
ATOM     22  H   UNL     1      36.673 -18.422 -23.519  0.00  0.00    +0.148 HD
ENDBRANCH   9  15
BRANCH   2  23
ATOM     23  C   UNL     1      36.953 -22.909 -15.735  0.00  0.00    +0.077 C 
ATOM     24  C   UNL     1      37.668 -22.435 -14.515  0.00  0.00    +0.022 C 
ATOM     25  C   UNL     1      37.846 -23.845 -14.994  0.00  0.00    +0.022 C 
ENDBRANCH   2  23
BRANCH   7  27
ATOM     26  O   UNL     1      33.851 -24.800 -12.198  0.00  0.00    -0.245 OA
ATOM     27  C   UNL     1      33.322 -24.907 -13.290  0.00  0.00    +0.342 C 
BRANCH  27  28
ATOM     28  O   UNL     1      32.325 -25.760 -13.605  0.00  0.00    -0.477 OA
ATOM     29  H   UNL     1      32.213 -26.551 -13.116  0.00  0.00    +0.295 HD
ENDBRANCH  27  28
ENDBRANCH   7  27
TORSDOF 4
ENDMDL
MODEL 4
REMARK VINA RESULT:      -9.4     12.014     15.337
REMARK  Name = 9863827
REMARK  4 active torsions:
REMARK  status: ('A' for Active; 'I' for Inactive)
REMARK    1  A    between atoms: N_2  and  C_23
REMARK    2  A    between atoms: C_7  and  C_27
REMARK    3  A    between atoms: C_9  and  C_15
REMARK    4  A    between atoms: C_27  and  O_28
REMARK                            x       y       z     vdW  Elec       q    Type
REMARK                         _______ _______ _______ _____ _____    ______ ____
ROOT
ATOM      1  O   UNL     1      33.132 -13.807 -22.922  0.00  0.00    -0.286 OA
ATOM      2  N   UNL     1      32.090 -10.812 -20.360  0.00  0.00    -0.287 N 
ATOM      3  C   UNL     1      32.303 -10.485 -21.729  0.00  0.00    +0.051 C 
ATOM      4  C   UNL     1      32.240 -12.119 -19.939  0.00  0.00    +0.075 C 
ATOM      5  C   UNL     1      32.663 -11.503 -22.639  0.00  0.00    +0.053 C 
ATOM      6  C   UNL     1      32.168  -9.178 -22.226  0.00  0.00    -0.008 C 
ATOM      7  C   UNL     1      32.578 -13.156 -20.716  0.00  0.00    +0.129 C 
ATOM      8  C   UNL     1      32.818 -12.901 -22.159  0.00  0.00    +0.204 C 
ATOM      9  C   UNL     1      32.385  -8.898 -23.578  0.00  0.00    -0.001 C 
ATOM     10  C   UNL     1      32.880 -11.219 -23.994  0.00  0.00    +0.004 C 
ATOM     11  C   UNL     1      31.791  -8.004 -21.372  0.00  0.00    +0.032 C 
ATOM     12  C   UNL     1      32.739  -9.915 -24.459  0.00  0.00    -0.000 C 
ENDROOT
BRANCH   9  15
ATOM     13  N   UNL     1      30.818  -5.686 -24.639  0.00  0.00    -0.230 NA
ATOM     14  N   UNL     1      31.746  -3.725 -25.597  0.00  0.00    -0.317 N 
ATOM     15  C   UNL     1      32.250  -7.553 -24.109  0.00  0.00    +0.019 C 
ATOM     16  C   UNL     1      33.354  -6.859 -24.576  0.00  0.00    +0.000 C 
ATOM     17  C   UNL     1      31.015  -6.934 -24.158  0.00  0.00    +0.100 C 
ATOM     18  C   UNL     1      33.193  -5.572 -25.077  0.00  0.00    +0.010 C 
ATOM     19  C   UNL     1      31.915  -5.036 -25.087  0.00  0.00    +0.124 C 
ATOM     20  C   UNL     1      34.380  -4.824 -25.581  0.00  0.00    +0.034 C 
ATOM     21  C   UNL     1      30.723  -2.845 -25.135  0.00  0.00    +0.110 C 
ATOM     22  H   UNL     1      32.359  -3.408 -26.299  0.00  0.00    +0.148 HD
ENDBRANCH   9  15
BRANCH   2  23
ATOM     23  C   UNL     1      31.710  -9.835 -19.313  0.00  0.00    +0.077 C 
ATOM     24  C   UNL     1      30.440  -9.995 -18.546  0.00  0.00    +0.022 C 
ATOM     25  C   UNL     1      31.762 -10.206 -17.869  0.00  0.00    +0.022 C 
ENDBRANCH   2  23
BRANCH   7  27
ATOM     26  O   UNL     1      31.770 -15.080 -19.578  0.00  0.00    -0.245 OA
ATOM     27  C   UNL     1      32.692 -14.479 -20.100  0.00  0.00    +0.342 C 
BRANCH  27  28
ATOM     28  O   UNL     1      33.964 -14.918 -20.202  0.00  0.00    -0.477 OA
ATOM     29  H   UNL     1      34.635 -14.537 -19.671  0.00  0.00    +0.295 HD
ENDBRANCH  27  28
ENDBRANCH   7  27
TORSDOF 4
ENDMDL
MODEL 5
REMARK VINA RESULT:      -9.2     11.468     15.651
REMARK  Name = 9863827
REMARK  4 active torsions:
REMARK  status: ('A' for Active; 'I' for Inactive)
REMARK    1  A    between atoms: N_2  and  C_23
REMARK    2  A    between atoms: C_7  and  C_27
REMARK    3  A    between atoms: C_9  and  C_15
REMARK    4  A    between atoms: C_27  and  O_28
REMARK                            x       y       z     vdW  Elec       q    Type
REMARK                         _______ _______ _______ _____ _____    ______ ____
ROOT
ATOM      1  O   UNL     1      30.800  -7.872 -19.822  0.00  0.00    -0.286 OA
ATOM      2  N   UNL     1      33.355  -7.993 -22.996  0.00  0.00    -0.287 N 
ATOM      3  C   UNL     1      32.986  -9.223 -22.381  0.00  0.00    +0.051 C 
ATOM      4  C   UNL     1      32.846  -6.806 -22.509  0.00  0.00    +0.075 C 
ATOM      5  C   UNL     1      32.101  -9.210 -21.280  0.00  0.00    +0.053 C 
ATOM      6  C   UNL     1      33.465 -10.466 -22.823  0.00  0.00    -0.008 C 
ATOM      7  C   UNL     1      32.004  -6.682 -21.475  0.00  0.00    +0.129 C 
ATOM      8  C   UNL     1      31.568  -7.917 -20.776  0.00  0.00    +0.204 C 
ATOM      9  C   UNL     1      33.077 -11.652 -22.192  0.00  0.00    -0.001 C 
ATOM     10  C   UNL     1      31.714 -10.399 -20.649  0.00  0.00    +0.004 C 
ATOM     11  C   UNL     1      34.408 -10.625 -23.978  0.00  0.00    +0.032 C 
ATOM     12  C   UNL     1      32.204 -11.618 -21.109  0.00  0.00    -0.000 C 
ENDROOT
BRANCH   9  15
ATOM     13  N   UNL     1      34.937 -14.882 -22.216  0.00  0.00    -0.230 NA
ATOM     14  N   UNL     1      35.010 -16.643 -23.803  0.00  0.00    -0.317 N 
ATOM     15  C   UNL     1      33.563 -12.946 -22.637  0.00  0.00    +0.019 C 
ATOM     16  C   UNL     1      33.151 -13.481 -23.846  0.00  0.00    +0.000 C 
ATOM     17  C   UNL     1      34.446 -13.672 -21.862  0.00  0.00    +0.100 C 
ATOM     18  C   UNL     1      33.633 -14.723 -24.245  0.00  0.00    +0.010 C 
ATOM     19  C   UNL     1      34.517 -15.377 -23.401  0.00  0.00    +0.124 C 
ATOM     20  C   UNL     1      33.191 -15.302 -25.546  0.00  0.00    +0.034 C 
ATOM     21  C   UNL     1      35.378 -17.658 -22.870  0.00  0.00    +0.110 C 
ATOM     22  H   UNL     1      35.104 -16.830 -24.765  0.00  0.00    +0.148 HD
ENDBRANCH   9  15
BRANCH   2  23
ATOM     23  C   UNL     1      34.273  -7.877 -24.154  0.00  0.00    +0.077 C 
ATOM     24  C   UNL     1      34.297  -6.639 -24.986  0.00  0.00    +0.022 C 
ATOM     25  C   UNL     1      35.459  -6.974 -24.099  0.00  0.00    +0.022 C 
ENDBRANCH   2  23
BRANCH   7  27
ATOM     26  O   UNL     1      30.463  -4.878 -21.340  0.00  0.00    -0.245 OA
ATOM     27  C   UNL     1      31.562  -5.340 -21.093  0.00  0.00    +0.342 C 
BRANCH  27  28
ATOM     28  O   UNL     1      32.556  -4.706 -20.435  0.00  0.00    -0.477 OA
ATOM     29  H   UNL     1      32.885  -5.058 -19.632  0.00  0.00    +0.295 HD
ENDBRANCH  27  28
ENDBRANCH   7  27
TORSDOF 4
ENDMDL
MODEL 6
REMARK VINA RESULT:      -9.0     12.270     16.667
REMARK  Name = 9863827
REMARK  4 active torsions:
REMARK  status: ('A' for Active; 'I' for Inactive)
REMARK    1  A    between atoms: N_2  and  C_23
REMARK    2  A    between atoms: C_7  and  C_27
REMARK    3  A    between atoms: C_9  and  C_15
REMARK    4  A    between atoms: C_27  and  O_28
REMARK                            x       y       z     vdW  Elec       q    Type
REMARK                         _______ _______ _______ _____ _____    ______ ____
ROOT
ATOM      1  O   UNL     1      29.755  -7.011 -22.344  0.00  0.00    -0.286 OA
ATOM      2  N   UNL     1      33.601  -7.364 -23.649  0.00  0.00    -0.287 N 
ATOM      3  C   UNL     1      32.903  -8.549 -23.281  0.00  0.00    +0.051 C 
ATOM      4  C   UNL     1      32.967  -6.141 -23.557  0.00  0.00    +0.075 C 
ATOM      5  C   UNL     1      31.569  -8.456 -22.826  0.00  0.00    +0.053 C 
ATOM      6  C   UNL     1      33.485  -9.825 -23.350  0.00  0.00    -0.008 C 
ATOM      7  C   UNL     1      31.710  -5.942 -23.140  0.00  0.00    +0.129 C 
ATOM      8  C   UNL     1      30.910  -7.126 -22.736  0.00  0.00    +0.204 C 
ATOM      9  C   UNL     1      32.765 -10.964 -22.979  0.00  0.00    -0.001 C 
ATOM     10  C   UNL     1      30.849  -9.599 -22.455  0.00  0.00    +0.004 C 
ATOM     11  C   UNL     1      34.890 -10.067 -23.814  0.00  0.00    +0.032 C 
ATOM     12  C   UNL     1      31.452 -10.851 -22.534  0.00  0.00    -0.000 C 
ENDROOT
BRANCH   9  15
ATOM     13  N   UNL     1      34.749 -13.974 -22.029  0.00  0.00    -0.230 NA
ATOM     14  N   UNL     1      35.076 -16.052 -23.126  0.00  0.00    -0.317 N 
ATOM     15  C   UNL     1      33.352 -12.291 -23.045  0.00  0.00    +0.019 C 
ATOM     16  C   UNL     1      33.104 -13.125 -24.123  0.00  0.00    +0.000 C 
ATOM     17  C   UNL     1      34.171 -12.751 -22.031  0.00  0.00    +0.100 C 
ATOM     18  C   UNL     1      33.680 -14.390 -24.158  0.00  0.00    +0.010 C 
ATOM     19  C   UNL     1      34.488 -14.763 -23.095  0.00  0.00    +0.124 C 
ATOM     20  C   UNL     1      33.414 -15.288 -25.317  0.00  0.00    +0.034 C 
ATOM     21  C   UNL     1      35.376 -16.790 -21.942  0.00  0.00    +0.110 C 
ATOM     22  H   UNL     1      35.287 -16.455 -23.999  0.00  0.00    +0.148 HD
ENDBRANCH   9  15
BRANCH   2  23
ATOM     23  C   UNL     1      34.999  -7.332 -24.140  0.00  0.00    +0.077 C 
ATOM     24  C   UNL     1      35.614  -6.056 -24.607  0.00  0.00    +0.022 C 
ATOM     25  C   UNL     1      36.076  -6.693 -23.330  0.00  0.00    +0.022 C 
ENDBRANCH   2  23
BRANCH   7  27
ATOM     26  O   UNL     1      31.605  -3.699 -22.361  0.00  0.00    -0.245 OA
ATOM     27  C   UNL     1      31.196  -4.572 -23.106  0.00  0.00    +0.342 C 
BRANCH  27  28
ATOM     28  O   UNL     1      30.209  -4.435 -24.016  0.00  0.00    -0.477 OA
ATOM     29  H   UNL     1      29.460  -4.997 -23.983  0.00  0.00    +0.295 HD
ENDBRANCH  27  28
ENDBRANCH   7  27
TORSDOF 4
ENDMDL
MODEL 7
REMARK VINA RESULT:      -8.8     12.492     16.826
REMARK  Name = 9863827
REMARK  4 active torsions:
REMARK  status: ('A' for Active; 'I' for Inactive)
REMARK    1  A    between atoms: N_2  and  C_23
REMARK    2  A    between atoms: C_7  and  C_27
REMARK    3  A    between atoms: C_9  and  C_15
REMARK    4  A    between atoms: C_27  and  O_28
REMARK                            x       y       z     vdW  Elec       q    Type
REMARK                         _______ _______ _______ _____ _____    ______ ____
ROOT
ATOM      1  O   UNL     1      29.791  -6.547 -22.184  0.00  0.00    -0.286 OA
ATOM      2  N   UNL     1      33.556  -7.184 -23.614  0.00  0.00    -0.287 N 
ATOM      3  C   UNL     1      32.793  -8.311 -23.197  0.00  0.00    +0.051 C 
ATOM      4  C   UNL     1      33.008  -5.919 -23.526  0.00  0.00    +0.075 C 
ATOM      5  C   UNL     1      31.485  -8.120 -22.699  0.00  0.00    +0.053 C 
ATOM      6  C   UNL     1      33.286  -9.625 -23.259  0.00  0.00    -0.008 C 
ATOM      7  C   UNL     1      31.784  -5.628 -23.070  0.00  0.00    +0.129 C 
ATOM      8  C   UNL     1      30.921  -6.747 -22.614  0.00  0.00    +0.204 C 
ATOM      9  C   UNL     1      32.505 -10.706 -22.840  0.00  0.00    -0.001 C 
ATOM     10  C   UNL     1      30.705  -9.205 -22.279  0.00  0.00    +0.004 C 
ATOM     11  C   UNL     1      34.654  -9.971 -23.766  0.00  0.00    +0.032 C 
ATOM     12  C   UNL     1      31.219 -10.496 -22.352  0.00  0.00    -0.000 C 
ENDROOT
BRANCH   9  15
ATOM     13  N   UNL     1      33.447 -14.041 -24.213  0.00  0.00    -0.230 NA
ATOM     14  N   UNL     1      34.383 -15.960 -23.180  0.00  0.00    -0.317 N 
ATOM     15  C   UNL     1      32.999 -12.070 -22.898  0.00  0.00    +0.019 C 
ATOM     16  C   UNL     1      33.478 -12.701 -21.761  0.00  0.00    +0.000 C 
ATOM     17  C   UNL     1      33.003 -12.770 -24.089  0.00  0.00    +0.100 C 
ATOM     18  C   UNL     1      33.945 -14.008 -21.848  0.00  0.00    +0.010 C 
ATOM     19  C   UNL     1      33.908 -14.628 -23.086  0.00  0.00    +0.124 C 
ATOM     20  C   UNL     1      34.461 -14.688 -20.626  0.00  0.00    +0.034 C 
ATOM     21  C   UNL     1      34.973 -16.485 -24.367  0.00  0.00    +0.110 C 
ATOM     22  H   UNL     1      34.302 -16.547 -22.394  0.00  0.00    +0.148 HD
ENDBRANCH   9  15
BRANCH   2  23
ATOM     23  C   UNL     1      34.934  -7.256 -24.153  0.00  0.00    +0.077 C 
ATOM     24  C   UNL     1      35.624  -6.029 -24.648  0.00  0.00    +0.022 C 
ATOM     25  C   UNL     1      36.083  -6.696 -23.385  0.00  0.00    +0.022 C 
ENDBRANCH   2  23
BRANCH   7  27
ATOM     26  O   UNL     1      31.956  -3.337 -22.461  0.00  0.00    -0.245 OA
ATOM     27  C   UNL     1      31.364  -4.225 -23.047  0.00  0.00    +0.342 C 
BRANCH  27  28
ATOM     28  O   UNL     1      30.232  -4.080 -23.767  0.00  0.00    -0.477 OA
ATOM     29  H   UNL     1      30.112  -3.321 -24.304  0.00  0.00    +0.295 HD
ENDBRANCH  27  28
ENDBRANCH   7  27
TORSDOF 4
ENDMDL
MODEL 8
REMARK VINA RESULT:      -8.8      1.700      2.651
REMARK  Name = 9863827
REMARK  4 active torsions:
REMARK  status: ('A' for Active; 'I' for Inactive)
REMARK    1  A    between atoms: N_2  and  C_23
REMARK    2  A    between atoms: C_7  and  C_27
REMARK    3  A    between atoms: C_9  and  C_15
REMARK    4  A    between atoms: C_27  and  O_28
REMARK                            x       y       z     vdW  Elec       q    Type
REMARK                         _______ _______ _______ _____ _____    ______ ____
ROOT
ATOM      1  O   UNL     1      37.526 -23.232 -14.929  0.00  0.00    -0.286 OA
ATOM      2  N   UNL     1      33.754 -23.125 -16.473  0.00  0.00    -0.287 N 
ATOM      3  C   UNL     1      34.781 -22.409 -17.151  0.00  0.00    +0.051 C 
ATOM      4  C   UNL     1      34.057 -23.828 -15.324  0.00  0.00    +0.075 C 
ATOM      5  C   UNL     1      36.097 -22.430 -16.639  0.00  0.00    +0.053 C 
ATOM      6  C   UNL     1      34.545 -21.673 -18.323  0.00  0.00    -0.008 C 
ATOM      7  C   UNL     1      35.266 -23.913 -14.756  0.00  0.00    +0.129 C 
ATOM      8  C   UNL     1      36.395 -23.195 -15.400  0.00  0.00    +0.204 C 
ATOM      9  C   UNL     1      35.581 -20.983 -18.960  0.00  0.00    -0.001 C 
ATOM     10  C   UNL     1      37.134 -21.738 -17.279  0.00  0.00    +0.004 C 
ATOM     11  C   UNL     1      33.198 -21.565 -18.974  0.00  0.00    +0.032 C 
ATOM     12  C   UNL     1      36.871 -21.017 -18.439  0.00  0.00    -0.000 C 
ENDROOT
BRANCH   9  15
ATOM     13  N   UNL     1      34.755 -20.195 -22.508  0.00  0.00    -0.230 NA
ATOM     14  N   UNL     1      34.680 -18.138 -23.686  0.00  0.00    -0.317 N 
ATOM     15  C   UNL     1      35.354 -20.218 -20.173  0.00  0.00    +0.019 C 
ATOM     16  C   UNL     1      35.505 -18.840 -20.182  0.00  0.00    +0.000 C 
ATOM     17  C   UNL     1      34.981 -20.847 -21.345  0.00  0.00    +0.100 C 
ATOM     18  C   UNL     1      35.280 -18.134 -21.359  0.00  0.00    +0.010 C 
ATOM     19  C   UNL     1      34.910 -18.853 -22.485  0.00  0.00    +0.124 C 
ATOM     20  C   UNL     1      35.442 -16.653 -21.371  0.00  0.00    +0.034 C 
ATOM     21  C   UNL     1      33.754 -18.577 -24.678  0.00  0.00    +0.110 C 
ATOM     22  H   UNL     1      35.179 -17.304 -23.843  0.00  0.00    +0.148 HD
ENDBRANCH   9  15
BRANCH   2  23
ATOM     23  C   UNL     1      32.340 -23.179 -16.910  0.00  0.00    +0.077 C 
ATOM     24  C   UNL     1      31.336 -23.977 -16.148  0.00  0.00    +0.022 C 
ATOM     25  C   UNL     1      31.275 -22.478 -16.137  0.00  0.00    +0.022 C 
ENDBRANCH   2  23
BRANCH   7  27
ATOM     26  O   UNL     1      34.912 -24.418 -12.460  0.00  0.00    -0.245 OA
ATOM     27  C   UNL     1      35.408 -24.708 -13.534  0.00  0.00    +0.342 C 
BRANCH  27  28
ATOM     28  O   UNL     1      36.168 -25.794 -13.786  0.00  0.00    -0.477 OA
ATOM     29  H   UNL     1      37.099 -25.713 -13.843  0.00  0.00    +0.295 HD
ENDBRANCH  27  28
ENDBRANCH   7  27
TORSDOF 4
ENDMDL
MODEL 9
REMARK VINA RESULT:      -8.8      3.088      5.787
REMARK  Name = 9863827
REMARK  4 active torsions:
REMARK  status: ('A' for Active; 'I' for Inactive)
REMARK    1  A    between atoms: N_2  and  C_23
REMARK    2  A    between atoms: C_7  and  C_27
REMARK    3  A    between atoms: C_9  and  C_15
REMARK    4  A    between atoms: C_27  and  O_28
REMARK                            x       y       z     vdW  Elec       q    Type
REMARK                         _______ _______ _______ _____ _____    ______ ____
ROOT
ATOM      1  O   UNL     1      35.890 -25.232 -11.284  0.00  0.00    -0.286 OA
ATOM      2  N   UNL     1      35.667 -23.275 -14.854  0.00  0.00    -0.287 N 
ATOM      3  C   UNL     1      34.453 -23.683 -14.232  0.00  0.00    +0.051 C 
ATOM      4  C   UNL     1      36.874 -23.547 -14.241  0.00  0.00    +0.075 C 
ATOM      5  C   UNL     1      34.501 -24.362 -12.994  0.00  0.00    +0.053 C 
ATOM      6  C   UNL     1      33.191 -23.439 -14.798  0.00  0.00    -0.008 C 
ATOM      7  C   UNL     1      37.031 -24.182 -13.072  0.00  0.00    +0.129 C 
ATOM      8  C   UNL     1      35.814 -24.643 -12.356  0.00  0.00    +0.204 C 
ATOM      9  C   UNL     1      32.023 -23.856 -14.155  0.00  0.00    -0.001 C 
ATOM     10  C   UNL     1      33.328 -24.779 -12.351  0.00  0.00    +0.004 C 
ATOM     11  C   UNL     1      32.995 -22.730 -16.105  0.00  0.00    +0.032 C 
ATOM     12  C   UNL     1      32.091 -24.523 -12.935  0.00  0.00    -0.000 C 
ENDROOT
BRANCH   9  15
ATOM     13  N   UNL     1      28.884 -22.083 -15.103  0.00  0.00    -0.230 NA
ATOM     14  N   UNL     1      26.975 -22.802 -16.313  0.00  0.00    -0.317 N 
ATOM     15  C   UNL     1      30.710 -23.612 -14.726  0.00  0.00    +0.019 C 
ATOM     16  C   UNL     1      30.038 -24.609 -15.414  0.00  0.00    +0.000 C 
ATOM     17  C   UNL     1      30.103 -22.377 -14.596  0.00  0.00    +0.100 C 
ATOM     18  C   UNL     1      28.783 -24.345 -15.951  0.00  0.00    +0.010 C 
ATOM     19  C   UNL     1      28.254 -23.077 -15.768  0.00  0.00    +0.124 C 
ATOM     20  C   UNL     1      28.058 -25.416 -16.691  0.00  0.00    +0.034 C 
ATOM     21  C   UNL     1      26.587 -21.501 -16.751  0.00  0.00    +0.110 C 
ATOM     22  H   UNL     1      26.327 -23.539 -16.392  0.00  0.00    +0.148 HD
ENDBRANCH   9  15
BRANCH   2  23
ATOM     23  C   UNL     1      35.747 -22.557 -16.148  0.00  0.00    +0.077 C 
ATOM     24  C   UNL     1      36.384 -21.212 -16.236  0.00  0.00    +0.022 C 
ATOM     25  C   UNL     1      37.051 -22.404 -16.855  0.00  0.00    +0.022 C 
ENDBRANCH   2  23
BRANCH   7  27
ATOM     26  O   UNL     1      39.269 -24.976 -13.170  0.00  0.00    -0.245 OA
ATOM     27  C   UNL     1      38.390 -24.387 -12.567  0.00  0.00    +0.342 C 
BRANCH  27  28
ATOM     28  O   UNL     1      38.508 -23.827 -11.345  0.00  0.00    -0.477 OA
ATOM     29  H   UNL     1      38.928 -22.995 -11.249  0.00  0.00    +0.295 HD
ENDBRANCH  27  28
ENDBRANCH   7  27
TORSDOF 4
ENDMDL
