MODEL 1
REMARK VINA RESULT:     -11.6      0.000      0.000
REMARK  Name = 58507717
REMARK  2 active torsions:
REMARK  status: ('A' for Active; 'I' for Inactive)
REMARK    1  A    between atoms: C_18  and  C_21
REMARK    2  A    between atoms: C_22  and  C_31
REMARK                            x       y       z     vdW  Elec       q    Type
REMARK                         _______ _______ _______ _____ _____    ______ ____
ROOT
ATOM      1  O   UNL     1      29.771 -24.033 -13.713  0.00  0.00    -0.350 OA
ATOM      2  O   UNL     1      38.963 -26.169 -12.507  0.00  0.00    -0.350 OA
ATOM      3  N   UNL     1      32.421 -23.911 -14.640  0.00  0.00    -0.228 N 
ATOM      4  N   UNL     1      36.925 -24.973 -14.028  0.00  0.00    -0.228 N 
ATOM      5  N   UNL     1      34.664 -24.466 -14.305  0.00  0.00    -0.246 NA
ATOM      6  N   UNL     1      36.335 -23.452 -15.696  0.00  0.00    -0.260 NA
ATOM      7  N   UNL     1      34.019 -22.906 -16.012  0.00  0.00    -0.260 NA
ATOM      8  C   UNL     1      32.060 -24.818 -13.545  0.00  0.00    +0.135 C 
ATOM      9  C   UNL     1      31.513 -22.772 -14.834  0.00  0.00    +0.135 C 
ATOM     10  C   UNL     1      38.331 -24.804 -14.410  0.00  0.00    +0.135 C 
ATOM     11  C   UNL     1      36.696 -25.312 -12.617  0.00  0.00    +0.135 C 
ATOM     12  C   UNL     1      30.589 -25.201 -13.657  0.00  0.00    +0.164 C 
ATOM     13  C   UNL     1      30.071 -23.264 -14.878  0.00  0.00    +0.164 C 
ATOM     14  C   UNL     1      37.598 -26.473 -12.214  0.00  0.00    +0.164 C 
ATOM     15  C   UNL     1      39.147 -25.992 -13.911  0.00  0.00    +0.164 C 
ATOM     16  C   UNL     1      33.763 -23.754 -15.002  0.00  0.00    +0.224 C 
ATOM     17  C   UNL     1      35.929 -24.264 -14.708  0.00  0.00    +0.224 C 
ATOM     18  C   UNL     1      35.326 -22.806 -16.303  0.00  0.00    +0.164 C 
ENDROOT
BRANCH  18  21
ATOM     19  N   UNL     1      37.230 -20.265 -18.230  0.00  0.00    -0.229 NA
ATOM     20  N   UNL     1      36.842 -19.290 -20.368  0.00  0.00    -0.343 N 
ATOM     21  C   UNL     1      35.683 -21.913 -17.376  0.00  0.00    +0.110 C 
ATOM     22  C   UNL     1      34.915 -21.801 -18.529  0.00  0.00    +0.087 C 
ATOM     23  C   UNL     1      36.820 -21.130 -17.275  0.00  0.00    +0.112 C 
ATOM     24  C   UNL     1      35.304 -20.921 -19.533  0.00  0.00    +0.038 C 
ATOM     25  C   UNL     1      36.460 -20.183 -19.337  0.00  0.00    +0.125 C 
ATOM     26  H   UNL     1      37.656 -18.745 -20.271  0.00  0.00    +0.144 HD
ATOM     27  H   UNL     1      36.294 -19.214 -21.183  0.00  0.00    +0.144 HD
BRANCH  22  31
ATOM     28  F   UNL     1      33.105 -22.410 -19.947  0.00  0.00    -0.166 F 
ATOM     29  F   UNL     1      33.869 -23.950 -18.617  0.00  0.00    -0.166 F 
ATOM     30  F   UNL     1      32.691 -22.315 -17.816  0.00  0.00    -0.166 F 
ATOM     31  C   UNL     1      33.669 -22.605 -18.721  0.00  0.00    +0.419 C 
ENDBRANCH  22  31
ENDBRANCH  18  21
TORSDOF 2
ENDMDL
MODEL 2
REMARK VINA RESULT:     -10.9      1.871      2.269
REMARK  Name = 58507717
REMARK  2 active torsions:
REMARK  status: ('A' for Active; 'I' for Inactive)
REMARK    1  A    between atoms: C_18  and  C_21
REMARK    2  A    between atoms: C_22  and  C_31
REMARK                            x       y       z     vdW  Elec       q    Type
REMARK                         _______ _______ _______ _____ _____    ______ ____
ROOT
ATOM      1  O   UNL     1      29.322 -24.255 -13.629  0.00  0.00    -0.350 OA
ATOM      2  O   UNL     1      38.588 -26.083 -12.480  0.00  0.00    -0.350 OA
ATOM      3  N   UNL     1      31.949 -24.139 -14.622  0.00  0.00    -0.228 N 
ATOM      4  N   UNL     1      36.489 -25.049 -14.038  0.00  0.00    -0.228 N 
ATOM      5  N   UNL     1      34.211 -24.616 -14.299  0.00  0.00    -0.246 NA
ATOM      6  N   UNL     1      35.827 -23.668 -15.798  0.00  0.00    -0.260 NA
ATOM      7  N   UNL     1      33.492 -23.201 -16.100  0.00  0.00    -0.260 NA
ATOM      8  C   UNL     1      31.633 -24.971 -13.456  0.00  0.00    +0.135 C 
ATOM      9  C   UNL     1      31.009 -23.039 -14.878  0.00  0.00    +0.135 C 
ATOM     10  C   UNL     1      37.883 -24.876 -14.463  0.00  0.00    +0.135 C 
ATOM     11  C   UNL     1      36.299 -25.288 -12.601  0.00  0.00    +0.135 C 
ATOM     12  C   UNL     1      30.170 -25.396 -13.507  0.00  0.00    +0.164 C 
ATOM     13  C   UNL     1      29.579 -23.566 -14.853  0.00  0.00    +0.164 C 
ATOM     14  C   UNL     1      37.238 -26.396 -12.135  0.00  0.00    +0.164 C 
ATOM     15  C   UNL     1      38.738 -26.005 -13.897  0.00  0.00    +0.164 C 
ATOM     16  C   UNL     1      33.278 -23.978 -15.025  0.00  0.00    +0.224 C 
ATOM     17  C   UNL     1      35.462 -24.415 -14.744  0.00  0.00    +0.224 C 
ATOM     18  C   UNL     1      34.789 -23.092 -16.427  0.00  0.00    +0.164 C 
ENDROOT
BRANCH  18  21
ATOM     19  N   UNL     1      34.468 -21.522 -19.778  0.00  0.00    -0.229 NA
ATOM     20  N   UNL     1      35.862 -19.977 -20.936  0.00  0.00    -0.343 N 
ATOM     21  C   UNL     1      35.102 -22.273 -17.570  0.00  0.00    +0.110 C 
ATOM     22  C   UNL     1      36.245 -21.483 -17.622  0.00  0.00    +0.087 C 
ATOM     23  C   UNL     1      34.253 -22.258 -18.664  0.00  0.00    +0.112 C 
ATOM     24  C   UNL     1      36.500 -20.712 -18.750  0.00  0.00    +0.038 C 
ATOM     25  C   UNL     1      35.587 -20.766 -19.792  0.00  0.00    +0.125 C 
ATOM     26  H   UNL     1      35.241 -19.985 -21.700  0.00  0.00    +0.144 HD
ATOM     27  H   UNL     1      36.673 -19.420 -20.968  0.00  0.00    +0.144 HD
BRANCH  22  31
ATOM     28  F   UNL     1      38.031 -20.347 -16.538  0.00  0.00    -0.166 F 
ATOM     29  F   UNL     1      36.622 -21.400 -15.261  0.00  0.00    -0.166 F 
ATOM     30  F   UNL     1      38.053 -22.518 -16.447  0.00  0.00    -0.166 F 
ATOM     31  C   UNL     1      37.218 -21.440 -16.488  0.00  0.00    +0.419 C 
ENDBRANCH  22  31
ENDBRANCH  18  21
TORSDOF 2
ENDMDL
MODEL 3
REMARK VINA RESULT:     -10.4      3.073      6.666
REMARK  Name = 58507717
REMARK  2 active torsions:
REMARK  status: ('A' for Active; 'I' for Inactive)
REMARK    1  A    between atoms: C_18  and  C_21
REMARK    2  A    between atoms: C_22  and  C_31
REMARK                            x       y       z     vdW  Elec       q    Type
REMARK                         _______ _______ _______ _____ _____    ______ ____
ROOT
ATOM      1  O   UNL     1      35.189 -20.441 -20.010  0.00  0.00    -0.350 OA
ATOM      2  O   UNL     1      29.915 -24.200 -13.042  0.00  0.00    -0.350 OA
ATOM      3  N   UNL     1      34.964 -22.205 -17.834  0.00  0.00    -0.228 N 
ATOM      4  N   UNL     1      32.356 -24.038 -14.424  0.00  0.00    -0.228 N 
ATOM      5  N   UNL     1      33.628 -23.105 -16.144  0.00  0.00    -0.246 NA
ATOM      6  N   UNL     1      34.655 -24.437 -14.433  0.00  0.00    -0.260 NA
ATOM      7  N   UNL     1      35.996 -23.496 -16.187  0.00  0.00    -0.260 NA
ATOM      8  C   UNL     1      33.766 -21.595 -18.421  0.00  0.00    +0.135 C 
ATOM      9  C   UNL     1      36.218 -21.476 -18.072  0.00  0.00    +0.135 C 
ATOM     10  C   UNL     1      32.250 -24.840 -13.201  0.00  0.00    +0.135 C 
ATOM     11  C   UNL     1      31.351 -22.976 -14.565  0.00  0.00    +0.135 C 
ATOM     12  C   UNL     1      34.025 -21.256 -19.884  0.00  0.00    +0.164 C 
ATOM     13  C   UNL     1      36.346 -21.143 -19.554  0.00  0.00    +0.164 C 
ATOM     14  C   UNL     1      29.960 -23.546 -14.310  0.00  0.00    +0.164 C 
ATOM     15  C   UNL     1      30.811 -25.310 -13.017  0.00  0.00    +0.164 C 
ATOM     16  C   UNL     1      34.858 -22.971 -16.668  0.00  0.00    +0.224 C 
ATOM     17  C   UNL     1      33.604 -23.851 -15.028  0.00  0.00    +0.224 C 
ATOM     18  C   UNL     1      35.818 -24.217 -15.068  0.00  0.00    +0.164 C 
ENDROOT
BRANCH  18  21
ATOM     19  N   UNL     1      38.603 -26.615 -14.537  0.00  0.00    -0.229 NA
ATOM     20  N   UNL     1      40.361 -26.660 -12.930  0.00  0.00    -0.343 N 
ATOM     21  C   UNL     1      36.993 -24.813 -14.489  0.00  0.00    +0.110 C 
ATOM     22  C   UNL     1      37.644 -24.251 -13.396  0.00  0.00    +0.087 C 
ATOM     23  C   UNL     1      37.508 -25.985 -15.017  0.00  0.00    +0.112 C 
ATOM     24  C   UNL     1      38.774 -24.870 -12.873  0.00  0.00    +0.038 C 
ATOM     25  C   UNL     1      39.210 -26.040 -13.475  0.00  0.00    +0.125 C 
ATOM     26  H   UNL     1      40.706 -27.492 -13.326  0.00  0.00    +0.144 HD
ATOM     27  H   UNL     1      40.818 -26.258 -12.156  0.00  0.00    +0.144 HD
BRANCH  22  31
ATOM     28  F   UNL     1      37.050 -21.963 -13.650  0.00  0.00    -0.166 F 
ATOM     29  F   UNL     1      35.923 -23.111 -12.187  0.00  0.00    -0.166 F 
ATOM     30  F   UNL     1      37.970 -22.533 -11.765  0.00  0.00    -0.166 F 
ATOM     31  C   UNL     1      37.156 -22.990 -12.759  0.00  0.00    +0.419 C 
ENDBRANCH  22  31
ENDBRANCH  18  21
TORSDOF 2
ENDMDL
MODEL 4
REMARK VINA RESULT:     -10.1      3.046      6.788
REMARK  Name = 58507717
REMARK  2 active torsions:
REMARK  status: ('A' for Active; 'I' for Inactive)
REMARK    1  A    between atoms: C_18  and  C_21
REMARK    2  A    between atoms: C_22  and  C_31
REMARK                            x       y       z     vdW  Elec       q    Type
REMARK                         _______ _______ _______ _____ _____    ______ ____
ROOT
ATOM      1  O   UNL     1      34.672 -19.768 -20.776  0.00  0.00    -0.350 OA
ATOM      2  O   UNL     1      28.440 -23.794 -14.821  0.00  0.00    -0.350 OA
ATOM      3  N   UNL     1      34.124 -21.651 -18.763  0.00  0.00    -0.228 N 
ATOM      4  N   UNL     1      31.048 -23.613 -15.852  0.00  0.00    -0.228 N 
ATOM      5  N   UNL     1      32.557 -22.614 -17.325  0.00  0.00    -0.246 NA
ATOM      6  N   UNL     1      33.319 -24.072 -15.579  0.00  0.00    -0.260 NA
ATOM      7  N   UNL     1      34.901 -23.064 -17.076  0.00  0.00    -0.260 NA
ATOM      8  C   UNL     1      33.027 -20.977 -19.466  0.00  0.00    +0.135 C 
ATOM      9  C   UNL     1      35.411 -20.942 -18.786  0.00  0.00    +0.135 C 
ATOM     10  C   UNL     1      30.763 -24.483 -14.706  0.00  0.00    +0.135 C 
ATOM     11  C   UNL     1      30.090 -22.519 -16.060  0.00  0.00    +0.135 C 
ATOM     12  C   UNL     1      33.487 -20.558 -20.857  0.00  0.00    +0.164 C 
ATOM     13  C   UNL     1      35.744 -20.526 -20.214  0.00  0.00    +0.164 C 
ATOM     14  C   UNL     1      28.668 -23.068 -16.029  0.00  0.00    +0.164 C 
ATOM     15  C   UNL     1      29.304 -24.927 -14.746  0.00  0.00    +0.164 C 
ATOM     16  C   UNL     1      33.848 -22.481 -17.672  0.00  0.00    +0.224 C 
ATOM     17  C   UNL     1      32.369 -23.424 -16.271  0.00  0.00    +0.224 C 
ATOM     18  C   UNL     1      34.561 -23.844 -16.038  0.00  0.00    +0.164 C 
ENDROOT
BRANCH  18  21
ATOM     19  N   UNL     1      36.489 -26.544 -14.369  0.00  0.00    -0.229 NA
ATOM     20  N   UNL     1      38.639 -26.545 -13.343  0.00  0.00    -0.343 N 
ATOM     21  C   UNL     1      35.637 -24.504 -15.344  0.00  0.00    +0.110 C 
ATOM     22  C   UNL     1      36.799 -23.835 -14.977  0.00  0.00    +0.087 C 
ATOM     23  C   UNL     1      35.531 -25.846 -15.019  0.00  0.00    +0.112 C 
ATOM     24  C   UNL     1      37.806 -24.519 -14.307  0.00  0.00    +0.038 C 
ATOM     25  C   UNL     1      37.604 -25.862 -14.029  0.00  0.00    +0.125 C 
ATOM     26  H   UNL     1      38.537 -27.500 -13.125  0.00  0.00    +0.144 HD
ATOM     27  H   UNL     1      39.459 -26.066 -13.085  0.00  0.00    +0.144 HD
BRANCH  22  31
ATOM     28  F   UNL     1      37.940 -21.807 -14.487  0.00  0.00    -0.166 F 
ATOM     29  F   UNL     1      37.404 -22.151 -16.565  0.00  0.00    -0.166 F 
ATOM     30  F   UNL     1      35.869 -21.636 -15.122  0.00  0.00    -0.166 F 
ATOM     31  C   UNL     1      36.997 -22.385 -15.284  0.00  0.00    +0.419 C 
ENDBRANCH  22  31
ENDBRANCH  18  21
TORSDOF 2
ENDMDL
MODEL 5
REMARK VINA RESULT:      -9.5      2.936      6.879
REMARK  Name = 58507717
REMARK  2 active torsions:
REMARK  status: ('A' for Active; 'I' for Inactive)
REMARK    1  A    between atoms: C_18  and  C_21
REMARK    2  A    between atoms: C_22  and  C_31
REMARK                            x       y       z     vdW  Elec       q    Type
REMARK                         _______ _______ _______ _____ _____    ______ ____
ROOT
ATOM      1  O   UNL     1      35.709 -20.837 -20.059  0.00  0.00    -0.350 OA
ATOM      2  O   UNL     1      28.705 -24.379 -14.683  0.00  0.00    -0.350 OA
ATOM      3  N   UNL     1      34.902 -22.294 -17.796  0.00  0.00    -0.228 N 
ATOM      4  N   UNL     1      31.449 -24.025 -15.175  0.00  0.00    -0.228 N 
ATOM      5  N   UNL     1      33.150 -23.151 -16.513  0.00  0.00    -0.246 NA
ATOM      6  N   UNL     1      33.628 -24.052 -14.342  0.00  0.00    -0.260 NA
ATOM      7  N   UNL     1      35.404 -23.163 -15.689  0.00  0.00    -0.260 NA
ATOM      8  C   UNL     1      33.937 -21.970 -18.852  0.00  0.00    +0.135 C 
ATOM      9  C   UNL     1      36.078 -21.416 -17.733  0.00  0.00    +0.135 C 
ATOM     10  C   UNL     1      30.995 -24.656 -13.931  0.00  0.00    +0.135 C 
ATOM     11  C   UNL     1      30.459 -23.166 -15.839  0.00  0.00    +0.135 C 
ATOM     12  C   UNL     1      34.664 -21.801 -20.180  0.00  0.00    +0.164 C 
ATOM     13  C   UNL     1      36.692 -21.276 -19.121  0.00  0.00    +0.164 C 
ATOM     14  C   UNL     1      29.133 -23.910 -15.962  0.00  0.00    +0.164 C 
ATOM     15  C   UNL     1      29.640 -25.319 -14.155  0.00  0.00    +0.164 C 
ATOM     16  C   UNL     1      34.465 -22.897 -16.612  0.00  0.00    +0.224 C 
ATOM     17  C   UNL     1      32.805 -23.729 -15.351  0.00  0.00    +0.224 C 
ATOM     18  C   UNL     1      34.912 -23.740 -14.581  0.00  0.00    +0.164 C 
ENDROOT
BRANCH  18  21
ATOM     19  N   UNL     1      36.927 -23.383 -11.481  0.00  0.00    -0.229 NA
ATOM     20  N   UNL     1      38.548 -24.812 -10.481  0.00  0.00    -0.343 N 
ATOM     21  C   UNL     1      35.858 -24.056 -13.542  0.00  0.00    +0.110 C 
ATOM     22  C   UNL     1      36.595 -25.235 -13.548  0.00  0.00    +0.087 C 
ATOM     23  C   UNL     1      36.060 -23.170 -12.496  0.00  0.00    +0.112 C 
ATOM     24  C   UNL     1      37.497 -25.489 -12.520  0.00  0.00    +0.038 C 
ATOM     25  C   UNL     1      37.624 -24.540 -11.519  0.00  0.00    +0.125 C 
ATOM     26  H   UNL     1      38.671 -24.165  -9.749  0.00  0.00    +0.144 HD
ATOM     27  H   UNL     1      39.068 -25.649 -10.490  0.00  0.00    +0.144 HD
BRANCH  22  31
ATOM     28  F   UNL     1      37.433 -26.155 -15.574  0.00  0.00    -0.166 F 
ATOM     29  F   UNL     1      36.476 -27.535 -14.194  0.00  0.00    -0.166 F 
ATOM     30  F   UNL     1      35.274 -26.131 -15.329  0.00  0.00    -0.166 F 
ATOM     31  C   UNL     1      36.445 -26.246 -14.639  0.00  0.00    +0.419 C 
ENDBRANCH  22  31
ENDBRANCH  18  21
TORSDOF 2
ENDMDL
MODEL 6
REMARK VINA RESULT:      -9.0      3.059      6.652
REMARK  Name = 58507717
REMARK  2 active torsions:
REMARK  status: ('A' for Active; 'I' for Inactive)
REMARK    1  A    between atoms: C_18  and  C_21
REMARK    2  A    between atoms: C_22  and  C_31
REMARK                            x       y       z     vdW  Elec       q    Type
REMARK                         _______ _______ _______ _____ _____    ______ ____
ROOT
ATOM      1  O   UNL     1      37.495 -25.273 -12.437  0.00  0.00    -0.350 OA
ATOM      2  O   UNL     1      36.124 -20.363 -20.469  0.00  0.00    -0.350 OA
ATOM      3  N   UNL     1      35.735 -24.278 -14.389  0.00  0.00    -0.228 N 
ATOM      4  N   UNL     1      35.087 -21.867 -18.333  0.00  0.00    -0.228 N 
ATOM      5  N   UNL     1      35.450 -23.071 -16.367  0.00  0.00    -0.246 NA
ATOM      6  N   UNL     1      33.232 -22.465 -17.052  0.00  0.00    -0.260 NA
ATOM      7  N   UNL     1      33.564 -23.706 -15.024  0.00  0.00    -0.260 NA
ATOM      8  C   UNL     1      37.184 -24.266 -14.621  0.00  0.00    +0.135 C 
ATOM      9  C   UNL     1      35.329 -24.325 -12.978  0.00  0.00    +0.135 C 
ATOM     10  C   UNL     1      34.184 -21.215 -19.287  0.00  0.00    +0.135 C 
ATOM     11  C   UNL     1      36.433 -21.283 -18.246  0.00  0.00    +0.135 C 
ATOM     12  C   UNL     1      37.844 -25.379 -13.816  0.00  0.00    +0.164 C 
ATOM     13  C   UNL     1      36.087 -25.436 -12.260  0.00  0.00    +0.164 C 
ATOM     14  C   UNL     1      37.014 -21.118 -19.646  0.00  0.00    +0.164 C 
ATOM     15  C   UNL     1      34.885 -21.053 -20.632  0.00  0.00    +0.164 C 
ATOM     16  C   UNL     1      34.877 -23.657 -15.302  0.00  0.00    +0.224 C 
ATOM     17  C   UNL     1      34.565 -22.497 -17.198  0.00  0.00    +0.224 C 
ATOM     18  C   UNL     1      32.803 -23.089 -15.942  0.00  0.00    +0.164 C 
ENDROOT
BRANCH  18  21
ATOM     19  N   UNL     1      29.179 -22.531 -16.534  0.00  0.00    -0.229 NA
ATOM     20  N   UNL     1      27.268 -23.035 -15.206  0.00  0.00    -0.343 N 
ATOM     21  C   UNL     1      31.381 -23.097 -15.714  0.00  0.00    +0.110 C 
ATOM     22  C   UNL     1      30.822 -23.621 -14.554  0.00  0.00    +0.087 C 
ATOM     23  C   UNL     1      30.524 -22.567 -16.665  0.00  0.00    +0.112 C 
ATOM     24  C   UNL     1      29.442 -23.601 -14.384  0.00  0.00    +0.038 C 
ATOM     25  C   UNL     1      28.671 -23.050 -15.395  0.00  0.00    +0.125 C 
ATOM     26  H   UNL     1      26.682 -22.653 -15.898  0.00  0.00    +0.144 HD
ATOM     27  H   UNL     1      26.877 -23.407 -14.382  0.00  0.00    +0.144 HD
BRANCH  22  31
ATOM     28  F   UNL     1      30.933 -24.685 -12.430  0.00  0.00    -0.166 F 
ATOM     29  F   UNL     1      32.435 -25.259 -13.893  0.00  0.00    -0.166 F 
ATOM     30  F   UNL     1      32.549 -23.320 -12.928  0.00  0.00    -0.166 F 
ATOM     31  C   UNL     1      31.671 -24.209 -13.473  0.00  0.00    +0.419 C 
ENDBRANCH  22  31
ENDBRANCH  18  21
TORSDOF 2
ENDMDL
MODEL 7
REMARK VINA RESULT:      -8.9      3.077      6.034
REMARK  Name = 58507717
REMARK  2 active torsions:
REMARK  status: ('A' for Active; 'I' for Inactive)
REMARK    1  A    between atoms: C_18  and  C_21
REMARK    2  A    between atoms: C_22  and  C_31
REMARK                            x       y       z     vdW  Elec       q    Type
REMARK                         _______ _______ _______ _____ _____    ______ ____
ROOT
ATOM      1  O   UNL     1      36.113 -20.838 -20.503  0.00  0.00    -0.350 OA
ATOM      2  O   UNL     1      37.114 -25.742 -12.413  0.00  0.00    -0.350 OA
ATOM      3  N   UNL     1      34.992 -21.829 -18.124  0.00  0.00    -0.228 N 
ATOM      4  N   UNL     1      35.507 -24.237 -14.159  0.00  0.00    -0.228 N 
ATOM      5  N   UNL     1      35.288 -23.034 -16.147  0.00  0.00    -0.246 NA
ATOM      6  N   UNL     1      33.362 -23.635 -14.849  0.00  0.00    -0.260 NA
ATOM      7  N   UNL     1      33.096 -22.396 -16.888  0.00  0.00    -0.260 NA
ATOM      8  C   UNL     1      36.445 -21.844 -18.321  0.00  0.00    +0.135 C 
ATOM      9  C   UNL     1      34.194 -21.781 -19.358  0.00  0.00    +0.135 C 
ATOM     10  C   UNL     1      34.917 -24.886 -12.984  0.00  0.00    +0.135 C 
ATOM     11  C   UNL     1      36.769 -24.824 -14.631  0.00  0.00    +0.135 C 
ATOM     12  C   UNL     1      36.846 -20.733 -19.284  0.00  0.00    +0.164 C 
ATOM     13  C   UNL     1      34.715 -20.672 -20.265  0.00  0.00    +0.164 C 
ATOM     14  C   UNL     1      37.730 -24.990 -13.459  0.00  0.00    +0.164 C 
ATOM     15  C   UNL     1      35.977 -25.050 -11.900  0.00  0.00    +0.164 C 
ATOM     16  C   UNL     1      34.433 -22.448 -17.001  0.00  0.00    +0.224 C 
ATOM     17  C   UNL     1      34.681 -23.606 -15.095  0.00  0.00    +0.224 C 
ATOM     18  C   UNL     1      32.632 -23.010 -15.788  0.00  0.00    +0.164 C 
ENDROOT
BRANCH  18  21
ATOM     19  N   UNL     1      29.033 -22.379 -16.455  0.00  0.00    -0.229 NA
ATOM     20  N   UNL     1      27.082 -22.880 -15.184  0.00  0.00    -0.343 N 
ATOM     21  C   UNL     1      31.205 -22.999 -15.595  0.00  0.00    +0.110 C 
ATOM     22  C   UNL     1      30.609 -23.539 -14.460  0.00  0.00    +0.087 C 
ATOM     23  C   UNL     1      30.380 -22.435 -16.554  0.00  0.00    +0.112 C 
ATOM     24  C   UNL     1      29.226 -23.500 -14.323  0.00  0.00    +0.038 C 
ATOM     25  C   UNL     1      28.489 -22.914 -15.340  0.00  0.00    +0.125 C 
ATOM     26  H   UNL     1      26.519 -22.474 -15.882  0.00  0.00    +0.144 HD
ATOM     27  H   UNL     1      26.665 -23.264 -14.379  0.00  0.00    +0.144 HD
BRANCH  22  31
ATOM     28  F   UNL     1      30.654 -24.608 -12.337  0.00  0.00    -0.166 F 
ATOM     29  F   UNL     1      32.144 -25.246 -13.787  0.00  0.00    -0.166 F 
ATOM     30  F   UNL     1      32.333 -23.314 -12.818  0.00  0.00    -0.166 F 
ATOM     31  C   UNL     1      31.422 -24.164 -13.373  0.00  0.00    +0.419 C 
ENDBRANCH  22  31
ENDBRANCH  18  21
TORSDOF 2
ENDMDL
