MODEL 1
REMARK VINA RESULT:      -9.4      0.000      0.000
REMARK  Name = 447018
REMARK  6 active torsions:
REMARK  status: ('A' for Active; 'I' for Inactive)
REMARK    1  A    between atoms: N_2  and  C_20
REMARK    2  A    between atoms: C_3  and  C_5
REMARK    3  A    between atoms: C_6  and  C_14
REMARK    4  A    between atoms: C_8  and  N_11
REMARK    5  A    between atoms: C_14  and  N_16
REMARK    6  A    between atoms: C_20  and  C_22
REMARK                            x       y       z     vdW  Elec       q    Type
REMARK                         _______ _______ _______ _____ _____    ______ ____
ROOT
ATOM      1  O   UNL     1      32.633  -7.693 -19.129  0.00  0.00    -0.270 OA
ATOM      2  N   UNL     1      31.758  -9.717 -19.883  0.00  0.00    -0.269 N 
ATOM      3  C   UNL     1      32.297  -8.442 -20.045  0.00  0.00    +0.249 C 
ATOM      4  C   UNL     1      31.554 -10.254 -18.548  0.00  0.00    +0.116 C 
ENDROOT
BRANCH   3   5
ATOM      5  C   UNL     1      32.506  -7.934 -21.410  0.00  0.00    +0.053 C 
ATOM      6  C   UNL     1      31.808  -6.541 -23.236  0.00  0.00    +0.011 C 
ATOM      7  C   UNL     1      31.609  -7.021 -21.942  0.00  0.00    +0.003 C 
ATOM      8  C   UNL     1      32.901  -6.979 -23.983  0.00  0.00    +0.039 C 
ATOM      9  C   UNL     1      33.598  -8.378 -22.140  0.00  0.00    +0.006 C 
ATOM     10  C   UNL     1      33.797  -7.898 -23.434  0.00  0.00    +0.014 C 
BRANCH   8  11
ATOM     11  N   UNL     1      33.119  -6.503 -25.295  0.00  0.00    -0.357 N 
ATOM     12  H   UNL     1      33.169  -7.138 -26.045  0.00  0.00    +0.142 HD
ATOM     13  H   UNL     1      33.219  -5.538 -25.458  0.00  0.00    +0.142 HD
ENDBRANCH   8  11
BRANCH   6  14
ATOM     14  C   UNL     1      30.833  -5.557 -23.798  0.00  0.00    +0.121 C 
BRANCH  14  16
ATOM     15  O   UNL     1      29.654  -4.249 -21.523  0.00  0.00    -0.275 OA
ATOM     16  N   UNL     1      31.098  -4.193 -23.342  0.00  0.00    -0.274 N 
ATOM     17  C   UNL     1      32.059  -3.446 -24.141  0.00  0.00    +0.115 C 
ATOM     18  C   UNL     1      30.473  -3.646 -22.222  0.00  0.00    +0.226 C 
ATOM     19  C   UNL     1      30.840  -2.227 -21.866  0.00  0.00    +0.095 C 
ENDBRANCH  14  16
ENDBRANCH   6  14
ENDBRANCH   3   5
BRANCH   2  20
ATOM     20  C   UNL     1      31.358 -10.603 -20.985  0.00  0.00    +0.135 C 
BRANCH  20  22
ATOM     21  N   UNL     1      32.830 -12.194 -22.218  0.00  0.00    -0.287 N 
ATOM     22  C   UNL     1      32.183 -11.825 -21.069  0.00  0.00    +0.049 C 
ATOM     23  C   UNL     1      33.521 -13.368 -22.018  0.00  0.00    +0.051 C 
ATOM     24  C   UNL     1      33.303 -13.754 -20.695  0.00  0.00    +0.015 C 
ATOM     25  C   UNL     1      32.456 -12.770 -20.107  0.00  0.00    +0.013 C 
ATOM     26  C   UNL     1      32.795 -11.455 -23.464  0.00  0.00    +0.117 C 
ATOM     27  C   UNL     1      34.315 -14.110 -22.900  0.00  0.00    +0.015 C 
ATOM     28  C   UNL     1      33.904 -14.937 -20.224  0.00  0.00    +0.001 C 
ATOM     29  C   UNL     1      34.902 -15.281 -22.412  0.00  0.00    +0.001 C 
ATOM     30  C   UNL     1      34.702 -15.690 -21.095  0.00  0.00    +0.000 C 
ENDBRANCH  20  22
ENDBRANCH   2  20
TORSDOF 6
ENDMDL
MODEL 2
REMARK VINA RESULT:      -9.3      8.386     12.950
REMARK  Name = 447018
REMARK  6 active torsions:
REMARK  status: ('A' for Active; 'I' for Inactive)
REMARK    1  A    between atoms: N_2  and  C_20
REMARK    2  A    between atoms: C_3  and  C_5
REMARK    3  A    between atoms: C_6  and  C_14
REMARK    4  A    between atoms: C_8  and  N_11
REMARK    5  A    between atoms: C_14  and  N_16
REMARK    6  A    between atoms: C_20  and  C_22
REMARK                            x       y       z     vdW  Elec       q    Type
REMARK                         _______ _______ _______ _____ _____    ______ ____
ROOT
ATOM      1  O   UNL     1      32.507 -20.855 -19.738  0.00  0.00    -0.270 OA
ATOM      2  N   UNL     1      33.866 -22.065 -18.281  0.00  0.00    -0.269 N 
ATOM      3  C   UNL     1      33.620 -21.155 -19.308  0.00  0.00    +0.249 C 
ATOM      4  C   UNL     1      32.756 -22.742 -17.632  0.00  0.00    +0.116 C 
ENDROOT
BRANCH   3   5
ATOM      5  C   UNL     1      34.764 -20.473 -19.933  0.00  0.00    +0.053 C 
ATOM      6  C   UNL     1      35.655 -19.096 -21.687  0.00  0.00    +0.011 C 
ATOM      7  C   UNL     1      34.570 -19.742 -21.095  0.00  0.00    +0.003 C 
ATOM      8  C   UNL     1      36.921 -19.190 -21.111  0.00  0.00    +0.039 C 
ATOM      9  C   UNL     1      36.018 -20.574 -19.349  0.00  0.00    +0.006 C 
ATOM     10  C   UNL     1      37.103 -19.929 -19.941  0.00  0.00    +0.014 C 
BRANCH   8  11
ATOM     11  N   UNL     1      38.032 -18.542 -21.696  0.00  0.00    -0.357 N 
ATOM     12  H   UNL     1      37.896 -17.899 -22.429  0.00  0.00    +0.142 HD
ATOM     13  H   UNL     1      38.942 -18.734 -21.372  0.00  0.00    +0.142 HD
ENDBRANCH   8  11
BRANCH   6  14
ATOM     14  C   UNL     1      35.431 -18.311 -22.938  0.00  0.00    +0.121 C 
BRANCH  14  16
ATOM     15  O   UNL     1      34.740 -16.301 -24.876  0.00  0.00    -0.275 OA
ATOM     16  N   UNL     1      35.085 -16.917 -22.664  0.00  0.00    -0.274 N 
ATOM     17  C   UNL     1      35.101 -16.538 -21.258  0.00  0.00    +0.115 C 
ATOM     18  C   UNL     1      34.763 -16.015 -23.676  0.00  0.00    +0.226 C 
ATOM     19  C   UNL     1      34.426 -14.608 -23.249  0.00  0.00    +0.095 C 
ENDBRANCH  14  16
ENDBRANCH   6  14
ENDBRANCH   3   5
BRANCH   2  20
ATOM     20  C   UNL     1      35.200 -22.417 -17.776  0.00  0.00    +0.135 C 
BRANCH  20  22
ATOM     21  N   UNL     1      36.252 -22.622 -15.524  0.00  0.00    -0.287 N 
ATOM     22  C   UNL     1      35.188 -22.834 -16.359  0.00  0.00    +0.049 C 
ATOM     23  C   UNL     1      35.974 -23.107 -14.266  0.00  0.00    +0.051 C 
ATOM     24  C   UNL     1      34.686 -23.645 -14.309  0.00  0.00    +0.015 C 
ATOM     25  C   UNL     1      34.202 -23.465 -15.636  0.00  0.00    +0.013 C 
ATOM     26  C   UNL     1      37.491 -21.977 -15.907  0.00  0.00    +0.117 C 
ATOM     27  C   UNL     1      36.756 -23.111 -13.106  0.00  0.00    +0.015 C 
ATOM     28  C   UNL     1      34.150 -24.215 -13.138  0.00  0.00    +0.001 C 
ATOM     29  C   UNL     1      36.204 -23.682 -11.956  0.00  0.00    +0.001 C 
ATOM     30  C   UNL     1      34.921 -24.226 -11.969  0.00  0.00    +0.000 C 
ENDBRANCH  20  22
ENDBRANCH   2  20
TORSDOF 6
ENDMDL
MODEL 3
REMARK VINA RESULT:      -9.1      6.069     11.870
REMARK  Name = 447018
REMARK  6 active torsions:
REMARK  status: ('A' for Active; 'I' for Inactive)
REMARK    1  A    between atoms: N_2  and  C_20
REMARK    2  A    between atoms: C_3  and  C_5
REMARK    3  A    between atoms: C_6  and  C_14
REMARK    4  A    between atoms: C_8  and  N_11
REMARK    5  A    between atoms: C_14  and  N_16
REMARK    6  A    between atoms: C_20  and  C_22
REMARK                            x       y       z     vdW  Elec       q    Type
REMARK                         _______ _______ _______ _____ _____    ______ ____
ROOT
ATOM      1  O   UNL     1      34.068 -18.935 -24.363  0.00  0.00    -0.270 OA
ATOM      2  N   UNL     1      34.620 -16.749 -23.774  0.00  0.00    -0.269 N 
ATOM      3  C   UNL     1      34.572 -18.129 -23.582  0.00  0.00    +0.249 C 
ATOM      4  C   UNL     1      34.042 -16.162 -24.971  0.00  0.00    +0.116 C 
ENDROOT
BRANCH   3   5
ATOM      5  C   UNL     1      35.182 -18.693 -22.368  0.00  0.00    +0.053 C 
ATOM      6  C   UNL     1      35.322 -20.453 -20.741  0.00  0.00    +0.011 C 
ATOM      7  C   UNL     1      34.744 -19.919 -21.893  0.00  0.00    +0.003 C 
ATOM      8  C   UNL     1      36.330 -19.754 -20.079  0.00  0.00    +0.039 C 
ATOM      9  C   UNL     1      36.184 -17.987 -21.720  0.00  0.00    +0.006 C 
ATOM     10  C   UNL     1      36.761 -18.521 -20.568  0.00  0.00    +0.014 C 
BRANCH   8  11
ATOM     11  N   UNL     1      36.927 -20.279 -18.911  0.00  0.00    -0.357 N 
ATOM     12  H   UNL     1      36.607 -19.993 -18.025  0.00  0.00    +0.142 HD
ATOM     13  H   UNL     1      37.661 -20.931 -18.984  0.00  0.00    +0.142 HD
ENDBRANCH   8  11
BRANCH   6  14
ATOM     14  C   UNL     1      34.840 -21.776 -20.240  0.00  0.00    +0.121 C 
BRANCH  14  16
ATOM     15  O   UNL     1      34.345 -23.428 -17.938  0.00  0.00    -0.275 OA
ATOM     16  N   UNL     1      33.736 -21.641 -19.291  0.00  0.00    -0.274 N 
ATOM     17  C   UNL     1      32.810 -20.551 -19.566  0.00  0.00    +0.115 C 
ATOM     18  C   UNL     1      33.580 -22.495 -18.201  0.00  0.00    +0.226 C 
ATOM     19  C   UNL     1      32.395 -22.240 -17.302  0.00  0.00    +0.095 C 
ENDBRANCH  14  16
ENDBRANCH   6  14
ENDBRANCH   3   5
BRANCH   2  20
ATOM     20  C   UNL     1      35.224 -15.794 -22.834  0.00  0.00    +0.135 C 
BRANCH  20  22
ATOM     21  N   UNL     1      33.941 -14.513 -21.122  0.00  0.00    -0.287 N 
ATOM     22  C   UNL     1      34.295 -14.720 -22.428  0.00  0.00    +0.049 C 
ATOM     23  C   UNL     1      33.065 -13.454 -21.028  0.00  0.00    +0.051 C 
ATOM     24  C   UNL     1      32.861 -12.974 -22.323  0.00  0.00    +0.015 C 
ATOM     25  C   UNL     1      33.643 -13.783 -23.197  0.00  0.00    +0.013 C 
ATOM     26  C   UNL     1      34.419 -15.294 -19.999  0.00  0.00    +0.117 C 
ATOM     27  C   UNL     1      32.447 -12.890 -19.907  0.00  0.00    +0.015 C 
ATOM     28  C   UNL     1      31.996 -11.878 -22.513  0.00  0.00    +0.001 C 
ATOM     29  C   UNL     1      31.593 -11.804 -20.118  0.00  0.00    +0.001 C 
ATOM     30  C   UNL     1      31.370 -11.303 -21.400  0.00  0.00    +0.000 C 
ENDBRANCH  20  22
ENDBRANCH   2  20
TORSDOF 6
ENDMDL
MODEL 4
REMARK VINA RESULT:      -8.9     12.683     17.499
REMARK  Name = 447018
REMARK  6 active torsions:
REMARK  status: ('A' for Active; 'I' for Inactive)
REMARK    1  A    between atoms: N_2  and  C_20
REMARK    2  A    between atoms: C_3  and  C_5
REMARK    3  A    between atoms: C_6  and  C_14
REMARK    4  A    between atoms: C_8  and  N_11
REMARK    5  A    between atoms: C_14  and  N_16
REMARK    6  A    between atoms: C_20  and  C_22
REMARK                            x       y       z     vdW  Elec       q    Type
REMARK                         _______ _______ _______ _____ _____    ______ ____
ROOT
ATOM      1  O   UNL     1      32.408 -23.456 -13.151  0.00  0.00    -0.270 OA
ATOM      2  N   UNL     1      33.308 -23.567 -15.298  0.00  0.00    -0.269 N 
ATOM      3  C   UNL     1      33.374 -23.559 -13.905  0.00  0.00    +0.249 C 
ATOM      4  C   UNL     1      32.022 -23.446 -15.963  0.00  0.00    +0.116 C 
ENDROOT
BRANCH   3   5
ATOM      5  C   UNL     1      34.689 -23.700 -13.262  0.00  0.00    +0.053 C 
ATOM      6  C   UNL     1      37.067 -23.982 -13.439  0.00  0.00    +0.011 C 
ATOM      7  C   UNL     1      35.821 -23.847 -14.050  0.00  0.00    +0.003 C 
ATOM      8  C   UNL     1      37.168 -23.968 -12.048  0.00  0.00    +0.039 C 
ATOM      9  C   UNL     1      34.775 -23.685 -11.878  0.00  0.00    +0.006 C 
ATOM     10  C   UNL     1      36.021 -23.820 -11.267  0.00  0.00    +0.014 C 
BRANCH   8  11
ATOM     11  N   UNL     1      38.422 -24.104 -11.413  0.00  0.00    -0.357 N 
ATOM     12  H   UNL     1      38.530 -24.741 -10.670  0.00  0.00    +0.142 HD
ATOM     13  H   UNL     1      39.187 -23.561 -11.712  0.00  0.00    +0.142 HD
ENDBRANCH   8  11
BRANCH   6  14
ATOM     14  C   UNL     1      38.278 -24.139 -14.300  0.00  0.00    +0.121 C 
BRANCH  14  16
ATOM     15  O   UNL     1      41.102 -24.630 -14.056  0.00  0.00    -0.275 OA
ATOM     16  N   UNL     1      38.926 -25.438 -14.114  0.00  0.00    -0.274 N 
ATOM     17  C   UNL     1      38.023 -26.579 -14.051  0.00  0.00    +0.115 C 
ATOM     18  C   UNL     1      40.308 -25.574 -14.007  0.00  0.00    +0.226 C 
ATOM     19  C   UNL     1      40.840 -26.973 -13.818  0.00  0.00    +0.095 C 
ENDBRANCH  14  16
ENDBRANCH   6  14
ENDBRANCH   3   5
BRANCH   2  20
ATOM     20  C   UNL     1      34.469 -23.689 -16.190  0.00  0.00    +0.135 C 
BRANCH  20  22
ATOM     21  N   UNL     1      35.519 -22.095 -17.794  0.00  0.00    -0.287 N 
ATOM     22  C   UNL     1      34.414 -22.760 -17.337  0.00  0.00    +0.049 C 
ATOM     23  C   UNL     1      35.185 -21.298 -18.867  0.00  0.00    +0.051 C 
ATOM     24  C   UNL     1      33.818 -21.468 -19.094  0.00  0.00    +0.015 C 
ATOM     25  C   UNL     1      33.344 -22.394 -18.122  0.00  0.00    +0.013 C 
ATOM     26  C   UNL     1      36.850 -22.213 -17.233  0.00  0.00    +0.117 C 
ATOM     27  C   UNL     1      35.980 -20.449 -19.644  0.00  0.00    +0.015 C 
ATOM     28  C   UNL     1      33.212 -20.757 -20.149  0.00  0.00    +0.001 C 
ATOM     29  C   UNL     1      35.359 -19.753 -20.684  0.00  0.00    +0.001 C 
ATOM     30  C   UNL     1      33.996 -19.904 -20.935  0.00  0.00    +0.000 C 
ENDBRANCH  20  22
ENDBRANCH   2  20
TORSDOF 6
ENDMDL
MODEL 5
REMARK VINA RESULT:      -8.8     11.920     15.656
REMARK  Name = 447018
REMARK  6 active torsions:
REMARK  status: ('A' for Active; 'I' for Inactive)
REMARK    1  A    between atoms: N_2  and  C_20
REMARK    2  A    between atoms: C_3  and  C_5
REMARK    3  A    between atoms: C_6  and  C_14
REMARK    4  A    between atoms: C_8  and  N_11
REMARK    5  A    between atoms: C_14  and  N_16
REMARK    6  A    between atoms: C_20  and  C_22
REMARK                            x       y       z     vdW  Elec       q    Type
REMARK                         _______ _______ _______ _____ _____    ______ ____
ROOT
ATOM      1  O   UNL     1      35.433 -22.940 -13.454  0.00  0.00    -0.270 OA
ATOM      2  N   UNL     1      35.431 -22.807 -15.781  0.00  0.00    -0.269 N 
ATOM      3  C   UNL     1      34.885 -23.128 -14.539  0.00  0.00    +0.249 C 
ATOM      4  C   UNL     1      36.750 -22.201 -15.858  0.00  0.00    +0.116 C 
ENDROOT
BRANCH   3   5
ATOM      5  C   UNL     1      33.541 -23.724 -14.494  0.00  0.00    +0.053 C 
ATOM      6  C   UNL     1      31.306 -23.874 -15.361  0.00  0.00    +0.011 C 
ATOM      7  C   UNL     1      32.581 -23.309 -15.404  0.00  0.00    +0.003 C 
ATOM      8  C   UNL     1      31.007 -24.848 -14.409  0.00  0.00    +0.039 C 
ATOM      9  C   UNL     1      33.258 -24.692 -13.543  0.00  0.00    +0.006 C 
ATOM     10  C   UNL     1      31.983 -25.257 -13.499  0.00  0.00    +0.014 C 
BRANCH   8  11
ATOM     11  N   UNL     1      29.722 -25.431 -14.350  0.00  0.00    -0.357 N 
ATOM     12  H   UNL     1      29.115 -25.362 -15.122  0.00  0.00    +0.142 HD
ATOM     13  H   UNL     1      29.434 -25.907 -13.538  0.00  0.00    +0.142 HD
ENDBRANCH   8  11
BRANCH   6  14
ATOM     14  C   UNL     1      30.281 -23.417 -16.347  0.00  0.00    +0.121 C 
BRANCH  14  16
ATOM     15  O   UNL     1      27.542 -23.616 -17.201  0.00  0.00    -0.275 OA
ATOM     16  N   UNL     1      29.119 -22.811 -15.698  0.00  0.00    -0.274 N 
ATOM     17  C   UNL     1      29.410 -22.034 -14.501  0.00  0.00    +0.115 C 
ATOM     18  C   UNL     1      27.824 -22.966 -16.191  0.00  0.00    +0.226 C 
ATOM     19  C   UNL     1      26.720 -22.286 -15.420  0.00  0.00    +0.095 C 
ENDBRANCH  14  16
ENDBRANCH   6  14
ENDBRANCH   3   5
BRANCH   2  20
ATOM     20  C   UNL     1      34.768 -23.037 -17.072  0.00  0.00    +0.135 C 
BRANCH  20  22
ATOM     21  N   UNL     1      34.215 -21.444 -18.909  0.00  0.00    -0.287 N 
ATOM     22  C   UNL     1      35.141 -22.040 -18.096  0.00  0.00    +0.049 C 
ATOM     23  C   UNL     1      34.833 -20.563 -19.768  0.00  0.00    +0.051 C 
ATOM     24  C   UNL     1      36.199 -20.603 -19.485  0.00  0.00    +0.015 C 
ATOM     25  C   UNL     1      36.380 -21.540 -18.427  0.00  0.00    +0.013 C 
ATOM     26  C   UNL     1      32.790 -21.702 -18.872  0.00  0.00    +0.117 C 
ATOM     27  C   UNL     1      34.292 -19.740 -20.762  0.00  0.00    +0.015 C 
ATOM     28  C   UNL     1      37.072 -19.785 -20.229  0.00  0.00    +0.001 C 
ATOM     29  C   UNL     1      35.175 -18.937 -21.489  0.00  0.00    +0.001 C 
ATOM     30  C   UNL     1      36.544 -18.957 -21.228  0.00  0.00    +0.000 C 
ENDBRANCH  20  22
ENDBRANCH   2  20
TORSDOF 6
ENDMDL
MODEL 6
REMARK VINA RESULT:      -8.7      3.233      8.673
REMARK  Name = 447018
REMARK  6 active torsions:
REMARK  status: ('A' for Active; 'I' for Inactive)
REMARK    1  A    between atoms: N_2  and  C_20
REMARK    2  A    between atoms: C_3  and  C_5
REMARK    3  A    between atoms: C_6  and  C_14
REMARK    4  A    between atoms: C_8  and  N_11
REMARK    5  A    between atoms: C_14  and  N_16
REMARK    6  A    between atoms: C_20  and  C_22
REMARK                            x       y       z     vdW  Elec       q    Type
REMARK                         _______ _______ _______ _____ _____    ______ ____
ROOT
ATOM      1  O   UNL     1      32.682 -12.956 -19.719  0.00  0.00    -0.270 OA
ATOM      2  N   UNL     1      31.663 -11.254 -20.942  0.00  0.00    -0.269 N 
ATOM      3  C   UNL     1      32.370 -12.446 -20.794  0.00  0.00    +0.249 C 
ATOM      4  C   UNL     1      31.237 -10.513 -19.766  0.00  0.00    +0.116 C 
ENDROOT
BRANCH   3   5
ATOM      5  C   UNL     1      32.771 -13.181 -22.004  0.00  0.00    +0.053 C 
ATOM      6  C   UNL     1      34.261 -14.707 -23.107  0.00  0.00    +0.011 C 
ATOM      7  C   UNL     1      33.881 -14.010 -21.960  0.00  0.00    +0.003 C 
ATOM      8  C   UNL     1      33.527 -14.565 -24.284  0.00  0.00    +0.039 C 
ATOM      9  C   UNL     1      32.031 -13.032 -23.167  0.00  0.00    +0.006 C 
ATOM     10  C   UNL     1      32.411 -13.728 -24.314  0.00  0.00    +0.014 C 
BRANCH   8  11
ATOM     11  N   UNL     1      33.897 -15.263 -25.456  0.00  0.00    -0.357 N 
ATOM     12  H   UNL     1      33.413 -16.079 -25.715  0.00  0.00    +0.142 HD
ATOM     13  H   UNL     1      34.639 -14.931 -26.012  0.00  0.00    +0.142 HD
ENDBRANCH   8  11
BRANCH   6  14
ATOM     14  C   UNL     1      35.460 -15.597 -23.046  0.00  0.00    +0.121 C 
BRANCH  14  16
ATOM     15  O   UNL     1      34.605 -17.847 -24.622  0.00  0.00    -0.275 OA
ATOM     16  N   UNL     1      35.132 -16.934 -22.552  0.00  0.00    -0.274 N 
ATOM     17  C   UNL     1      35.261 -17.113 -21.113  0.00  0.00    +0.115 C 
ATOM     18  C   UNL     1      34.725 -17.963 -23.399  0.00  0.00    +0.226 C 
ATOM     19  C   UNL     1      34.418 -19.292 -22.753  0.00  0.00    +0.095 C 
ENDBRANCH  14  16
ENDBRANCH   6  14
ENDBRANCH   3   5
BRANCH   2  20
ATOM     20  C   UNL     1      31.296 -10.652 -22.232  0.00  0.00    +0.135 C 
BRANCH  20  22
ATOM     21  N   UNL     1      31.818  -8.394 -23.152  0.00  0.00    -0.287 N 
ATOM     22  C   UNL     1      32.240  -9.602 -22.666  0.00  0.00    +0.049 C 
ATOM     23  C   UNL     1      32.901  -7.610 -23.481  0.00  0.00    +0.051 C 
ATOM     24  C   UNL     1      34.048  -8.350 -23.191  0.00  0.00    +0.015 C 
ATOM     25  C   UNL     1      33.616  -9.605 -22.677  0.00  0.00    +0.013 C 
ATOM     26  C   UNL     1      30.432  -7.997 -23.297  0.00  0.00    +0.117 C 
ATOM     27  C   UNL     1      32.951  -6.314 -24.008  0.00  0.00    +0.015 C 
ATOM     28  C   UNL     1      35.309  -7.772 -23.438  0.00  0.00    +0.001 C 
ATOM     29  C   UNL     1      34.212  -5.761 -24.246  0.00  0.00    +0.001 C 
ATOM     30  C   UNL     1      35.374  -6.477 -23.965  0.00  0.00    +0.000 C 
ENDBRANCH  20  22
ENDBRANCH   2  20
TORSDOF 6
ENDMDL
MODEL 7
REMARK VINA RESULT:      -8.6      1.838      2.615
REMARK  Name = 447018
REMARK  6 active torsions:
REMARK  status: ('A' for Active; 'I' for Inactive)
REMARK    1  A    between atoms: N_2  and  C_20
REMARK    2  A    between atoms: C_3  and  C_5
REMARK    3  A    between atoms: C_6  and  C_14
REMARK    4  A    between atoms: C_8  and  N_11
REMARK    5  A    between atoms: C_14  and  N_16
REMARK    6  A    between atoms: C_20  and  C_22
REMARK                            x       y       z     vdW  Elec       q    Type
REMARK                         _______ _______ _______ _____ _____    ______ ____
ROOT
ATOM      1  O   UNL     1      31.043 -10.362 -20.899  0.00  0.00    -0.270 OA
ATOM      2  N   UNL     1      32.409 -11.909 -21.982  0.00  0.00    -0.269 N 
ATOM      3  C   UNL     1      31.904 -10.633 -21.736  0.00  0.00    +0.249 C 
ATOM      4  C   UNL     1      31.915 -13.044 -21.221  0.00  0.00    +0.116 C 
ENDROOT
BRANCH   3   5
ATOM      5  C   UNL     1      32.437  -9.503 -22.511  0.00  0.00    +0.053 C 
ATOM      6  C   UNL     1      32.088  -7.417 -23.647  0.00  0.00    +0.011 C 
ATOM      7  C   UNL     1      31.582  -8.488 -22.912  0.00  0.00    +0.003 C 
ATOM      8  C   UNL     1      33.443  -7.373 -23.974  0.00  0.00    +0.039 C 
ATOM      9  C   UNL     1      33.787  -9.473 -22.828  0.00  0.00    +0.006 C 
ATOM     10  C   UNL     1      34.293  -8.401 -23.564  0.00  0.00    +0.014 C 
BRANCH   8  11
ATOM     11  N   UNL     1      33.974  -6.296 -24.718  0.00  0.00    -0.357 N 
ATOM     12  H   UNL     1      33.375  -5.596 -25.063  0.00  0.00    +0.142 HD
ATOM     13  H   UNL     1      34.942  -6.247 -24.891  0.00  0.00    +0.142 HD
ENDBRANCH   8  11
BRANCH   6  14
ATOM     14  C   UNL     1      31.155  -6.330 -24.073  0.00  0.00    +0.121 C 
BRANCH  14  16
ATOM     15  O   UNL     1      32.403  -3.763 -24.436  0.00  0.00    -0.275 OA
ATOM     16  N   UNL     1      31.141  -5.212 -23.130  0.00  0.00    -0.274 N 
ATOM     17  C   UNL     1      30.414  -5.453 -21.892  0.00  0.00    +0.115 C 
ATOM     18  C   UNL     1      31.778  -4.002 -23.398  0.00  0.00    +0.226 C 
ATOM     19  C   UNL     1      31.683  -2.935 -22.336  0.00  0.00    +0.095 C 
ENDBRANCH  14  16
ENDBRANCH   6  14
ENDBRANCH   3   5
BRANCH   2  20
ATOM     20  C   UNL     1      33.436 -12.223 -22.985  0.00  0.00    +0.135 C 
BRANCH  20  22
ATOM     21  N   UNL     1      33.805 -14.511 -23.906  0.00  0.00    -0.287 N 
ATOM     22  C   UNL     1      33.935 -13.610 -22.883  0.00  0.00    +0.049 C 
ATOM     23  C   UNL     1      34.353 -15.722 -23.544  0.00  0.00    +0.051 C 
ATOM     24  C   UNL     1      34.846 -15.579 -22.246  0.00  0.00    +0.015 C 
ATOM     25  C   UNL     1      34.576 -14.241 -21.842  0.00  0.00    +0.013 C 
ATOM     26  C   UNL     1      33.185 -14.232 -25.184  0.00  0.00    +0.117 C 
ATOM     27  C   UNL     1      34.447 -16.921 -24.260  0.00  0.00    +0.015 C 
ATOM     28  C   UNL     1      35.465 -16.684 -21.629  0.00  0.00    +0.001 C 
ATOM     29  C   UNL     1      35.065 -18.004 -23.629  0.00  0.00    +0.001 C 
ATOM     30  C   UNL     1      35.567 -17.890 -22.334  0.00  0.00    +0.000 C 
ENDBRANCH  20  22
ENDBRANCH   2  20
TORSDOF 6
ENDMDL
MODEL 8
REMARK VINA RESULT:      -8.6      1.749      2.787
REMARK  Name = 447018
REMARK  6 active torsions:
REMARK  status: ('A' for Active; 'I' for Inactive)
REMARK    1  A    between atoms: N_2  and  C_20
REMARK    2  A    between atoms: C_3  and  C_5
REMARK    3  A    between atoms: C_6  and  C_14
REMARK    4  A    between atoms: C_8  and  N_11
REMARK    5  A    between atoms: C_14  and  N_16
REMARK    6  A    between atoms: C_20  and  C_22
REMARK                            x       y       z     vdW  Elec       q    Type
REMARK                         _______ _______ _______ _____ _____    ______ ____
ROOT
ATOM      1  O   UNL     1      32.418  -7.450 -18.724  0.00  0.00    -0.270 OA
ATOM      2  N   UNL     1      31.766  -9.516 -19.584  0.00  0.00    -0.269 N 
ATOM      3  C   UNL     1      32.020  -8.147 -19.656  0.00  0.00    +0.249 C 
ATOM      4  C   UNL     1      31.969 -10.226 -18.333  0.00  0.00    +0.116 C 
ENDROOT
BRANCH   3   5
ATOM      5  C   UNL     1      31.822  -7.461 -20.942  0.00  0.00    +0.053 C 
ATOM      6  C   UNL     1      32.394  -7.186 -23.258  0.00  0.00    +0.011 C 
ATOM      7  C   UNL     1      32.582  -7.837 -22.039  0.00  0.00    +0.003 C 
ATOM      8  C   UNL     1      31.448  -6.167 -23.366  0.00  0.00    +0.039 C 
ATOM      9  C   UNL     1      30.878  -6.449 -21.035  0.00  0.00    +0.006 C 
ATOM     10  C   UNL     1      30.690  -5.798 -22.254  0.00  0.00    +0.014 C 
BRANCH   8  11
ATOM     11  N   UNL     1      31.244  -5.496 -24.592  0.00  0.00    -0.357 N 
ATOM     12  H   UNL     1      31.211  -6.008 -25.432  0.00  0.00    +0.142 HD
ATOM     13  H   UNL     1      31.135  -4.518 -24.607  0.00  0.00    +0.142 HD
ENDBRANCH   8  11
BRANCH   6  14
ATOM     14  C   UNL     1      33.219  -7.602 -24.433  0.00  0.00    +0.121 C 
BRANCH  14  16
ATOM     15  O   UNL     1      33.563  -5.885 -26.715  0.00  0.00    -0.275 OA
ATOM     16  N   UNL     1      34.335  -6.688 -24.677  0.00  0.00    -0.274 N 
ATOM     17  C   UNL     1      35.360  -6.669 -23.642  0.00  0.00    +0.115 C 
ATOM     18  C   UNL     1      34.412  -5.894 -25.819  0.00  0.00    +0.226 C 
ATOM     19  C   UNL     1      35.620  -4.998 -25.941  0.00  0.00    +0.095 C 
ENDBRANCH  14  16
ENDBRANCH   6  14
ENDBRANCH   3   5
BRANCH   2  20
ATOM     20  C   UNL     1      31.290 -10.339 -20.704  0.00  0.00    +0.135 C 
BRANCH  20  22
ATOM     21  N   UNL     1      32.684 -11.860 -22.105  0.00  0.00    -0.287 N 
ATOM     22  C   UNL     1      32.097 -11.560 -20.905  0.00  0.00    +0.049 C 
ATOM     23  C   UNL     1      33.372 -13.050 -22.013  0.00  0.00    +0.051 C 
ATOM     24  C   UNL     1      33.213 -13.516 -20.707  0.00  0.00    +0.015 C 
ATOM     25  C   UNL     1      32.407 -12.566 -20.019  0.00  0.00    +0.013 C 
ATOM     26  C   UNL     1      32.597 -11.044 -23.298  0.00  0.00    +0.117 C 
ATOM     27  C   UNL     1      34.114 -13.741 -22.977  0.00  0.00    +0.015 C 
ATOM     28  C   UNL     1      33.824 -14.732 -20.342  0.00  0.00    +0.001 C 
ATOM     29  C   UNL     1      34.711 -14.944 -22.593  0.00  0.00    +0.001 C 
ATOM     30  C   UNL     1      34.571 -15.434 -21.296  0.00  0.00    +0.000 C 
ENDBRANCH  20  22
ENDBRANCH   2  20
TORSDOF 6
ENDMDL
MODEL 9
REMARK VINA RESULT:      -8.3     13.543     16.303
REMARK  Name = 447018
REMARK  6 active torsions:
REMARK  status: ('A' for Active; 'I' for Inactive)
REMARK    1  A    between atoms: N_2  and  C_20
REMARK    2  A    between atoms: C_3  and  C_5
REMARK    3  A    between atoms: C_6  and  C_14
REMARK    4  A    between atoms: C_8  and  N_11
REMARK    5  A    between atoms: C_14  and  N_16
REMARK    6  A    between atoms: C_20  and  C_22
REMARK                            x       y       z     vdW  Elec       q    Type
REMARK                         _______ _______ _______ _____ _____    ______ ____
ROOT
ATOM      1  O   UNL     1      33.522 -22.971 -11.859  0.00  0.00    -0.270 OA
ATOM      2  N   UNL     1      34.890 -23.795 -13.556  0.00  0.00    -0.269 N 
ATOM      3  C   UNL     1      33.668 -23.568 -12.925  0.00  0.00    +0.249 C 
ATOM      4  C   UNL     1      36.120 -23.312 -12.952  0.00  0.00    +0.116 C 
ENDROOT
BRANCH   3   5
ATOM      5  C   UNL     1      32.440 -24.054 -13.571  0.00  0.00    +0.053 C 
ATOM      6  C   UNL     1      30.631 -23.715 -15.113  0.00  0.00    +0.011 C 
ATOM      7  C   UNL     1      31.796 -23.253 -14.501  0.00  0.00    +0.003 C 
ATOM      8  C   UNL     1      30.124 -24.972 -14.789  0.00  0.00    +0.039 C 
ATOM      9  C   UNL     1      31.947 -25.307 -13.239  0.00  0.00    +0.006 C 
ATOM     10  C   UNL     1      30.782 -25.769 -13.851  0.00  0.00    +0.014 C 
BRANCH   8  11
ATOM     11  N   UNL     1      28.945 -25.457 -15.399  0.00  0.00    -0.357 N 
ATOM     12  H   UNL     1      28.065 -25.211 -15.031  0.00  0.00    +0.142 HD
ATOM     13  H   UNL     1      29.004 -26.039 -16.190  0.00  0.00    +0.142 HD
ENDBRANCH   8  11
BRANCH   6  14
ATOM     14  C   UNL     1      29.947 -22.840 -16.114  0.00  0.00    +0.121 C 
BRANCH  14  16
ATOM     15  O   UNL     1      27.503 -23.043 -17.618  0.00  0.00    -0.275 OA
ATOM     16  N   UNL     1      28.614 -22.431 -15.672  0.00  0.00    -0.274 N 
ATOM     17  C   UNL     1      28.550 -21.866 -14.331  0.00  0.00    +0.115 C 
ATOM     18  C   UNL     1      27.485 -22.570 -16.478  0.00  0.00    +0.226 C 
ATOM     19  C   UNL     1      26.174 -22.105 -15.896  0.00  0.00    +0.095 C 
ENDBRANCH  14  16
ENDBRANCH   6  14
ENDBRANCH   3   5
BRANCH   2  20
ATOM     20  C   UNL     1      35.053 -24.511 -14.829  0.00  0.00    +0.135 C 
BRANCH  20  22
ATOM     21  N   UNL     1      36.079 -22.878 -16.410  0.00  0.00    -0.287 N 
ATOM     22  C   UNL     1      35.000 -23.617 -16.004  0.00  0.00    +0.049 C 
ATOM     23  C   UNL     1      35.754 -22.135 -17.523  0.00  0.00    +0.051 C 
ATOM     24  C   UNL     1      34.422 -22.416 -17.831  0.00  0.00    +0.015 C 
ATOM     25  C   UNL     1      33.959 -23.353 -16.863  0.00  0.00    +0.013 C 
ATOM     26  C   UNL     1      37.376 -22.879 -15.764  0.00  0.00    +0.117 C 
ATOM     27  C   UNL     1      36.531 -21.245 -18.273  0.00  0.00    +0.015 C 
ATOM     28  C   UNL     1      33.833 -21.780 -18.940  0.00  0.00    +0.001 C 
ATOM     29  C   UNL     1      35.926 -20.624 -19.369  0.00  0.00    +0.001 C 
ATOM     30  C   UNL     1      34.598 -20.887 -19.700  0.00  0.00    +0.000 C 
ENDBRANCH  20  22
ENDBRANCH   2  20
TORSDOF 6
ENDMDL
