MODEL 1
REMARK VINA RESULT:     -11.6      0.000      0.000
REMARK  Name = 6918248
REMARK  5 active torsions:
REMARK  status: ('A' for Active; 'I' for Inactive)
REMARK    1  A    between atoms: N_1  and  C_18
REMARK    2  A    between atoms: N_2  and  C_8
REMARK    3  A    between atoms: C_11  and  C_17
REMARK    4  A    between atoms: C_18  and  C_19
REMARK    5  A    between atoms: C_19  and  N_21
REMARK                            x       y       z     vdW  Elec       q    Type
REMARK                         _______ _______ _______ _____ _____    ______ ____
ROOT
ATOM      1  N   UNL     1      34.618 -16.002 -21.722  0.00  0.00    +0.391 N 
ATOM      2  N   UNL     1      33.383 -13.432 -21.550  0.00  0.00    -0.312 N 
ATOM      3  C   UNL     1      34.611 -15.266 -20.452  0.00  0.00    -0.055 C 
ATOM      4  C   UNL     1      34.702 -15.059 -22.845  0.00  0.00    -0.055 C 
ATOM      5  C   UNL     1      33.415 -14.314 -20.376  0.00  0.00    +0.068 C 
ATOM      6  C   UNL     1      33.509 -14.101 -22.848  0.00  0.00    +0.068 C 
ATOM      7  H   UNL     1      33.749 -16.531 -21.802  0.00  0.00    -0.079 HD
ENDROOT
BRANCH   2   8
ATOM      8  C   UNL     1      32.666 -12.234 -21.452  0.00  0.00    +0.048 C 
ATOM      9  C   UNL     1      32.265 -11.728 -20.199  0.00  0.00    +0.018 C 
ATOM     10  C   UNL     1      32.325 -11.496 -22.603  0.00  0.00    +0.015 C 
ATOM     11  C   UNL     1      31.552 -10.533 -20.102  0.00  0.00    +0.073 C 
ATOM     12  C   UNL     1      31.612 -10.301 -22.506  0.00  0.00    +0.001 C 
ATOM     13  C   UNL     1      31.225  -9.820 -21.256  0.00  0.00    +0.004 C 
BRANCH  11  17
ATOM     14  F   UNL     1      31.728 -10.669 -17.721  0.00  0.00    -0.166 F 
ATOM     15  F   UNL     1      31.429  -8.698 -18.574  0.00  0.00    -0.166 F 
ATOM     16  F   UNL     1      29.794 -10.130 -18.554  0.00  0.00    -0.166 F 
ATOM     17  C   UNL     1      31.137 -10.018 -18.766  0.00  0.00    +0.419 C 
ENDBRANCH  11  17
ENDBRANCH   2   8
BRANCH   1  18
ATOM     18  C   UNL     1      35.734 -16.947 -21.761  0.00  0.00    -0.052 C 
BRANCH  18  19
ATOM     19  C   UNL     1      35.225 -18.355 -22.033  0.00  0.00    +0.088 C 
BRANCH  19  21
ATOM     20  O   UNL     1      37.981 -18.833 -20.897  0.00  0.00    -0.247 OA
ATOM     21  N   UNL     1      35.644 -19.267 -21.004  0.00  0.00    -0.282 N 
ATOM     22  N   UNL     1      36.913 -20.431 -19.520  0.00  0.00    -0.305 N 
ATOM     23  C   UNL     1      34.805 -20.149 -20.302  0.00  0.00    +0.079 A 
ATOM     24  C   UNL     1      36.978 -19.427 -20.528  0.00  0.00    +0.328 A 
ATOM     25  C   UNL     1      35.590 -20.859 -19.396  0.00  0.00    +0.076 A 
ATOM     26  C   UNL     1      33.446 -20.364 -20.402  0.00  0.00    +0.019 C 
ATOM     27  C   UNL     1      35.065 -21.810 -18.549  0.00  0.00    +0.019 C 
ATOM     28  C   UNL     1      32.889 -21.326 -19.553  0.00  0.00    +0.002 C 
ATOM     29  C   UNL     1      33.689 -22.041 -18.637  0.00  0.00    +0.002 C 
ATOM     30  H   UNL     1      37.676 -20.768 -18.998  0.00  0.00    +0.170 HD
ENDBRANCH  19  21
ENDBRANCH  18  19
ENDBRANCH   1  18
TORSDOF 5
ENDMDL
MODEL 2
REMARK VINA RESULT:     -11.3      1.225      1.945
REMARK  Name = 6918248
REMARK  5 active torsions:
REMARK  status: ('A' for Active; 'I' for Inactive)
REMARK    1  A    between atoms: N_1  and  C_18
REMARK    2  A    between atoms: N_2  and  C_8
REMARK    3  A    between atoms: C_11  and  C_17
REMARK    4  A    between atoms: C_18  and  C_19
REMARK    5  A    between atoms: C_19  and  N_21
REMARK                            x       y       z     vdW  Elec       q    Type
REMARK                         _______ _______ _______ _____ _____    ______ ____
ROOT
ATOM      1  N   UNL     1      35.507 -16.907 -22.826  0.00  0.00    +0.391 N 
ATOM      2  N   UNL     1      34.101 -14.421 -22.748  0.00  0.00    -0.312 N 
ATOM      3  C   UNL     1      34.610 -16.526 -23.925  0.00  0.00    -0.055 C 
ATOM      4  C   UNL     1      34.988 -16.385 -21.555  0.00  0.00    -0.055 C 
ATOM      5  C   UNL     1      34.495 -15.005 -24.037  0.00  0.00    +0.068 C 
ATOM      6  C   UNL     1      34.885 -14.859 -21.589  0.00  0.00    +0.068 C 
ATOM      7  H   UNL     1      36.428 -16.502 -22.996  0.00  0.00    -0.079 HD
ENDROOT
BRANCH   2   8
ATOM      8  C   UNL     1      33.519 -13.149 -22.753  0.00  0.00    +0.048 C 
ATOM      9  C   UNL     1      32.717 -12.713 -21.680  0.00  0.00    +0.018 C 
ATOM     10  C   UNL     1      33.719 -12.264 -23.832  0.00  0.00    +0.015 C 
ATOM     11  C   UNL     1      32.138 -11.444 -21.686  0.00  0.00    +0.073 C 
ATOM     12  C   UNL     1      33.141 -10.995 -23.837  0.00  0.00    +0.001 C 
ATOM     13  C   UNL     1      32.349 -10.584 -22.765  0.00  0.00    +0.004 C 
BRANCH  11  17
ATOM     14  F   UNL     1      31.341  -9.660 -20.305  0.00  0.00    -0.166 F 
ATOM     15  F   UNL     1      29.965 -11.290 -20.698  0.00  0.00    -0.166 F 
ATOM     16  F   UNL     1      31.654 -11.595 -19.363  0.00  0.00    -0.166 F 
ATOM     17  C   UNL     1      31.292 -11.005 -20.540  0.00  0.00    +0.419 C 
ENDBRANCH  11  17
ENDBRANCH   2   8
BRANCH   1  18
ATOM     18  C   UNL     1      35.652 -18.361 -22.763  0.00  0.00    -0.052 C 
BRANCH  18  19
ATOM     19  C   UNL     1      34.700 -18.943 -21.730  0.00  0.00    +0.088 C 
BRANCH  19  21
ATOM     20  O   UNL     1      37.602 -18.742 -20.923  0.00  0.00    -0.247 OA
ATOM     21  N   UNL     1      35.415 -19.653 -20.704  0.00  0.00    -0.282 N 
ATOM     22  N   UNL     1      37.059 -20.393 -19.320  0.00  0.00    -0.305 N 
ATOM     23  C   UNL     1      34.867 -20.620 -19.845  0.00  0.00    +0.079 A 
ATOM     24  C   UNL     1      36.796 -19.493 -20.392  0.00  0.00    +0.328 A 
ATOM     25  C   UNL     1      35.880 -21.069 -19.000  0.00  0.00    +0.076 A 
ATOM     26  C   UNL     1      33.582 -21.117 -19.758  0.00  0.00    +0.019 C 
ATOM     27  C   UNL     1      35.666 -22.026 -18.033  0.00  0.00    +0.019 C 
ATOM     28  C   UNL     1      33.341 -22.091 -18.783  0.00  0.00    +0.002 C 
ATOM     29  C   UNL     1      34.371 -22.540 -17.931  0.00  0.00    +0.002 C 
ATOM     30  H   UNL     1      37.928 -20.517 -18.877  0.00  0.00    +0.170 HD
ENDBRANCH  19  21
ENDBRANCH  18  19
ENDBRANCH   1  18
TORSDOF 5
ENDMDL
MODEL 3
REMARK VINA RESULT:     -11.2      1.792      2.324
REMARK  Name = 6918248
REMARK  5 active torsions:
REMARK  status: ('A' for Active; 'I' for Inactive)
REMARK    1  A    between atoms: N_1  and  C_18
REMARK    2  A    between atoms: N_2  and  C_8
REMARK    3  A    between atoms: C_11  and  C_17
REMARK    4  A    between atoms: C_18  and  C_19
REMARK    5  A    between atoms: C_19  and  N_21
REMARK                            x       y       z     vdW  Elec       q    Type
REMARK                         _______ _______ _______ _____ _____    ______ ____
ROOT
ATOM      1  N   UNL     1      34.581 -15.965 -21.711  0.00  0.00    +0.391 N 
ATOM      2  N   UNL     1      33.364 -13.395 -21.434  0.00  0.00    -0.312 N 
ATOM      3  C   UNL     1      34.591 -15.275 -20.415  0.00  0.00    -0.055 C 
ATOM      4  C   UNL     1      34.660 -14.984 -22.800  0.00  0.00    -0.055 C 
ATOM      5  C   UNL     1      33.402 -14.320 -20.293  0.00  0.00    +0.068 C 
ATOM      6  C   UNL     1      33.473 -14.018 -22.757  0.00  0.00    +0.068 C 
ATOM      7  H   UNL     1      33.708 -16.486 -21.800  0.00  0.00    -0.079 HD
ENDROOT
BRANCH   2   8
ATOM      8  C   UNL     1      32.656 -12.198 -21.286  0.00  0.00    +0.048 C 
ATOM      9  C   UNL     1      32.594 -11.257 -22.333  0.00  0.00    +0.018 C 
ATOM     10  C   UNL     1      31.982 -11.897 -20.085  0.00  0.00    +0.015 C 
ATOM     11  C   UNL     1      31.887 -10.063 -22.186  0.00  0.00    +0.073 C 
ATOM     12  C   UNL     1      31.275 -10.704 -19.938  0.00  0.00    +0.001 C 
ATOM     13  C   UNL     1      31.228  -9.786 -20.988  0.00  0.00    +0.004 C 
BRANCH  11  17
ATOM     14  F   UNL     1      32.215  -9.607 -24.510  0.00  0.00    -0.166 F 
ATOM     15  F   UNL     1      30.594  -8.560 -23.521  0.00  0.00    -0.166 F 
ATOM     16  F   UNL     1      32.655  -8.009 -23.103  0.00  0.00    -0.166 F 
ATOM     17  C   UNL     1      31.837  -9.082 -23.307  0.00  0.00    +0.419 C 
ENDBRANCH  11  17
ENDBRANCH   2   8
BRANCH   1  18
ATOM     18  C   UNL     1      35.690 -16.915 -21.794  0.00  0.00    -0.052 C 
BRANCH  18  19
ATOM     19  C   UNL     1      35.165 -18.320 -22.048  0.00  0.00    +0.088 C 
BRANCH  19  21
ATOM     20  O   UNL     1      37.936 -18.773 -20.940  0.00  0.00    -0.247 OA
ATOM     21  N   UNL     1      35.603 -19.232 -21.027  0.00  0.00    -0.282 N 
ATOM     22  N   UNL     1      36.898 -20.388 -19.559  0.00  0.00    -0.305 N 
ATOM     23  C   UNL     1      34.781 -20.125 -20.321  0.00  0.00    +0.079 A 
ATOM     24  C   UNL     1      36.943 -19.379 -20.564  0.00  0.00    +0.328 A 
ATOM     25  C   UNL     1      35.581 -20.830 -19.424  0.00  0.00    +0.076 A 
ATOM     26  C   UNL     1      33.423 -20.355 -20.409  0.00  0.00    +0.019 C 
ATOM     27  C   UNL     1      35.073 -21.790 -18.576  0.00  0.00    +0.019 C 
ATOM     28  C   UNL     1      32.884 -21.325 -19.558  0.00  0.00    +0.002 C 
ATOM     29  C   UNL     1      33.700 -22.035 -18.653  0.00  0.00    +0.002 C 
ATOM     30  H   UNL     1      37.669 -20.718 -19.045  0.00  0.00    +0.170 HD
ENDBRANCH  19  21
ENDBRANCH  18  19
ENDBRANCH   1  18
TORSDOF 5
ENDMDL
MODEL 4
REMARK VINA RESULT:     -11.1      3.069      4.576
REMARK  Name = 6918248
REMARK  5 active torsions:
REMARK  status: ('A' for Active; 'I' for Inactive)
REMARK    1  A    between atoms: N_1  and  C_18
REMARK    2  A    between atoms: N_2  and  C_8
REMARK    3  A    between atoms: C_11  and  C_17
REMARK    4  A    between atoms: C_18  and  C_19
REMARK    5  A    between atoms: C_19  and  N_21
REMARK                            x       y       z     vdW  Elec       q    Type
REMARK                         _______ _______ _______ _____ _____    ______ ____
ROOT
ATOM      1  N   UNL     1      32.825 -13.011 -22.570  0.00  0.00    +0.391 N 
ATOM      2  N   UNL     1      32.364 -10.220 -22.975  0.00  0.00    -0.312 N 
ATOM      3  C   UNL     1      32.167 -12.209 -21.532  0.00  0.00    -0.055 C 
ATOM      4  C   UNL     1      33.811 -12.190 -23.285  0.00  0.00    -0.055 C 
ATOM      5  C   UNL     1      31.444 -11.006 -22.142  0.00  0.00    +0.068 C 
ATOM      6  C   UNL     1      33.142 -10.986 -23.953  0.00  0.00    +0.068 C 
ATOM      7  H   UNL     1      32.120 -13.331 -23.235  0.00  0.00    -0.079 HD
ENDROOT
BRANCH   2   8
ATOM      8  C   UNL     1      32.034  -8.887 -23.240  0.00  0.00    +0.048 C 
ATOM      9  C   UNL     1      31.730  -7.993 -22.194  0.00  0.00    +0.018 C 
ATOM     10  C   UNL     1      31.997  -8.397 -24.561  0.00  0.00    +0.015 C 
ATOM     11  C   UNL     1      31.403  -6.663 -22.458  0.00  0.00    +0.073 C 
ATOM     12  C   UNL     1      31.670  -7.067 -24.825  0.00  0.00    +0.001 C 
ATOM     13  C   UNL     1      31.372  -6.200 -23.774  0.00  0.00    +0.004 C 
BRANCH  11  17
ATOM     14  F   UNL     1      31.924  -4.662 -21.256  0.00  0.00    -0.166 F 
ATOM     15  F   UNL     1      29.829  -5.201 -21.407  0.00  0.00    -0.166 F 
ATOM     16  F   UNL     1      31.152  -6.345 -20.116  0.00  0.00    -0.166 F 
ATOM     17  C   UNL     1      31.084  -5.736 -21.335  0.00  0.00    +0.419 C 
ENDBRANCH  11  17
ENDBRANCH   2   8
BRANCH   1  18
ATOM     18  C   UNL     1      33.466 -14.187 -21.982  0.00  0.00    -0.052 C 
BRANCH  18  19
ATOM     19  C   UNL     1      34.713 -14.559 -22.770  0.00  0.00    +0.088 C 
BRANCH  19  21
ATOM     20  O   UNL     1      33.828 -15.457 -25.512  0.00  0.00    -0.247 OA
ATOM     21  N   UNL     1      34.611 -15.888 -23.308  0.00  0.00    -0.282 N 
ATOM     22  N   UNL     1      34.240 -17.641 -24.707  0.00  0.00    -0.305 N 
ATOM     23  C   UNL     1      34.921 -17.074 -22.621  0.00  0.00    +0.079 A 
ATOM     24  C   UNL     1      34.180 -16.220 -24.625  0.00  0.00    +0.328 A 
ATOM     25  C   UNL     1      34.691 -18.143 -23.485  0.00  0.00    +0.076 A 
ATOM     26  C   UNL     1      35.376 -17.272 -21.334  0.00  0.00    +0.019 C 
ATOM     27  C   UNL     1      34.901 -19.453 -23.112  0.00  0.00    +0.019 C 
ATOM     28  C   UNL     1      35.596 -18.593 -20.932  0.00  0.00    +0.002 C 
ATOM     29  C   UNL     1      35.361 -19.671 -21.811  0.00  0.00    +0.002 C 
ATOM     30  H   UNL     1      34.003 -18.179 -25.495  0.00  0.00    +0.170 HD
ENDBRANCH  19  21
ENDBRANCH  18  19
ENDBRANCH   1  18
TORSDOF 5
ENDMDL
MODEL 5
REMARK VINA RESULT:     -11.0      6.717      9.284
REMARK  Name = 6918248
REMARK  5 active torsions:
REMARK  status: ('A' for Active; 'I' for Inactive)
REMARK    1  A    between atoms: N_1  and  C_18
REMARK    2  A    between atoms: N_2  and  C_8
REMARK    3  A    between atoms: C_11  and  C_17
REMARK    4  A    between atoms: C_18  and  C_19
REMARK    5  A    between atoms: C_19  and  N_21
REMARK                            x       y       z     vdW  Elec       q    Type
REMARK                         _______ _______ _______ _____ _____    ______ ____
ROOT
ATOM      1  N   UNL     1      34.652 -23.045 -17.190  0.00  0.00    +0.391 N 
ATOM      2  N   UNL     1      35.331 -21.101 -19.170  0.00  0.00    -0.312 N 
ATOM      3  C   UNL     1      33.601 -22.377 -17.965  0.00  0.00    -0.055 C 
ATOM      4  C   UNL     1      35.775 -22.123 -16.973  0.00  0.00    -0.055 C 
ATOM      5  C   UNL     1      34.126 -21.925 -19.329  0.00  0.00    +0.068 C 
ATOM      6  C   UNL     1      36.373 -21.663 -18.304  0.00  0.00    +0.068 C 
ATOM      7  H   UNL     1      34.988 -23.853 -17.716  0.00  0.00    -0.079 HD
ENDROOT
BRANCH   2   8
ATOM      8  C   UNL     1      35.686 -20.246 -20.219  0.00  0.00    +0.048 C 
ATOM      9  C   UNL     1      34.884 -20.139 -21.372  0.00  0.00    +0.018 C 
ATOM     10  C   UNL     1      36.857 -19.464 -20.153  0.00  0.00    +0.015 C 
ATOM     11  C   UNL     1      35.237 -19.286 -22.417  0.00  0.00    +0.073 C 
ATOM     12  C   UNL     1      37.211 -18.610 -21.198  0.00  0.00    +0.001 C 
ATOM     13  C   UNL     1      36.401 -18.521 -22.331  0.00  0.00    +0.004 C 
BRANCH  11  17
ATOM     14  F   UNL     1      33.048 -19.401 -23.373  0.00  0.00    -0.166 F 
ATOM     15  F   UNL     1      34.427 -17.974 -24.245  0.00  0.00    -0.166 F 
ATOM     16  F   UNL     1      34.710 -20.102 -24.587  0.00  0.00    -0.166 F 
ATOM     17  C   UNL     1      34.373 -19.191 -23.628  0.00  0.00    +0.419 C 
ENDBRANCH  11  17
ENDBRANCH   2   8
BRANCH   1  18
ATOM     18  C   UNL     1      34.125 -23.521 -15.911  0.00  0.00    -0.052 C 
BRANCH  18  19
ATOM     19  C   UNL     1      34.804 -22.799 -14.758  0.00  0.00    +0.088 C 
BRANCH  19  21
ATOM     20  O   UNL     1      33.316 -23.867 -12.358  0.00  0.00    -0.247 OA
ATOM     21  N   UNL     1      35.241 -23.726 -13.749  0.00  0.00    -0.282 N 
ATOM     22  N   UNL     1      35.301 -25.075 -11.921  0.00  0.00    -0.305 N 
ATOM     23  C   UNL     1      36.505 -24.337 -13.692  0.00  0.00    +0.079 A 
ATOM     24  C   UNL     1      34.464 -24.177 -12.643  0.00  0.00    +0.328 A 
ATOM     25  C   UNL     1      36.534 -25.161 -12.570  0.00  0.00    +0.076 A 
ATOM     26  C   UNL     1      37.595 -24.221 -14.530  0.00  0.00    +0.019 C 
ATOM     27  C   UNL     1      37.641 -25.907 -12.228  0.00  0.00    +0.019 C 
ATOM     28  C   UNL     1      38.731 -24.969 -14.204  0.00  0.00    +0.002 C 
ATOM     29  C   UNL     1      38.754 -25.802 -13.066  0.00  0.00    +0.002 C 
ATOM     30  H   UNL     1      35.050 -25.557 -11.100  0.00  0.00    +0.170 HD
ENDBRANCH  19  21
ENDBRANCH  18  19
ENDBRANCH   1  18
TORSDOF 5
ENDMDL
MODEL 6
REMARK VINA RESULT:     -10.8      5.412      9.933
REMARK  Name = 6918248
REMARK  5 active torsions:
REMARK  status: ('A' for Active; 'I' for Inactive)
REMARK    1  A    between atoms: N_1  and  C_18
REMARK    2  A    between atoms: N_2  and  C_8
REMARK    3  A    between atoms: C_11  and  C_17
REMARK    4  A    between atoms: C_18  and  C_19
REMARK    5  A    between atoms: C_19  and  N_21
REMARK                            x       y       z     vdW  Elec       q    Type
REMARK                         _______ _______ _______ _____ _____    ______ ____
ROOT
ATOM      1  N   UNL     1      34.838 -20.356 -21.082  0.00  0.00    +0.391 N 
ATOM      2  N   UNL     1      35.496 -21.380 -18.497  0.00  0.00    -0.312 N 
ATOM      3  C   UNL     1      36.046 -19.895 -20.387  0.00  0.00    -0.055 C 
ATOM      4  C   UNL     1      33.780 -20.646 -20.106  0.00  0.00    -0.055 C 
ATOM      5  C   UNL     1      36.561 -20.961 -19.417  0.00  0.00    +0.068 C 
ATOM      6  C   UNL     1      34.220 -21.737 -19.127  0.00  0.00    +0.068 C 
ATOM      7  H   UNL     1      35.057 -21.211 -21.593  0.00  0.00    -0.079 HD
ENDROOT
BRANCH   2   8
ATOM      8  C   UNL     1      35.868 -21.982 -17.291  0.00  0.00    +0.048 C 
ATOM      9  C   UNL     1      34.935 -22.708 -16.523  0.00  0.00    +0.018 C 
ATOM     10  C   UNL     1      37.188 -21.883 -16.808  0.00  0.00    +0.015 C 
ATOM     11  C   UNL     1      35.308 -23.309 -15.321  0.00  0.00    +0.073 C 
ATOM     12  C   UNL     1      37.561 -22.485 -15.606  0.00  0.00    +0.001 C 
ATOM     13  C   UNL     1      36.620 -23.197 -14.861  0.00  0.00    +0.004 C 
BRANCH  11  17
ATOM     14  F   UNL     1      34.115 -23.577 -13.265  0.00  0.00    -0.166 F 
ATOM     15  F   UNL     1      33.059 -24.090 -15.089  0.00  0.00    -0.166 F 
ATOM     16  F   UNL     1      34.649 -25.380 -14.357  0.00  0.00    -0.166 F 
ATOM     17  C   UNL     1      34.303 -24.070 -14.525  0.00  0.00    +0.419 C 
ENDBRANCH  11  17
ENDBRANCH   2   8
BRANCH   1  18
ATOM     18  C   UNL     1      34.386 -19.352 -22.045  0.00  0.00    -0.052 C 
BRANCH  18  19
ATOM     19  C   UNL     1      35.516 -18.388 -22.374  0.00  0.00    +0.088 C 
BRANCH  19  21
ATOM     20  O   UNL     1      34.763 -17.501 -25.159  0.00  0.00    -0.247 OA
ATOM     21  N   UNL     1      35.005 -17.121 -22.823  0.00  0.00    -0.282 N 
ATOM     22  N   UNL     1      34.215 -15.442 -24.135  0.00  0.00    -0.305 N 
ATOM     23  C   UNL     1      34.749 -16.007 -22.007  0.00  0.00    +0.079 A 
ATOM     24  C   UNL     1      34.675 -16.789 -24.169  0.00  0.00    +0.328 A 
ATOM     25  C   UNL     1      34.266 -14.982 -22.818  0.00  0.00    +0.076 A 
ATOM     26  C   UNL     1      34.908 -15.837 -20.647  0.00  0.00    +0.019 C 
ATOM     27  C   UNL     1      33.917 -13.746 -22.318  0.00  0.00    +0.019 C 
ATOM     28  C   UNL     1      34.560 -14.590 -20.117  0.00  0.00    +0.002 C 
ATOM     29  C   UNL     1      34.071 -13.556 -20.943  0.00  0.00    +0.002 C 
ATOM     30  H   UNL     1      33.910 -14.921 -24.912  0.00  0.00    +0.170 HD
ENDBRANCH  19  21
ENDBRANCH  18  19
ENDBRANCH   1  18
TORSDOF 5
ENDMDL
MODEL 7
REMARK VINA RESULT:     -10.8      4.436      9.303
REMARK  Name = 6918248
REMARK  5 active torsions:
REMARK  status: ('A' for Active; 'I' for Inactive)
REMARK    1  A    between atoms: N_1  and  C_18
REMARK    2  A    between atoms: N_2  and  C_8
REMARK    3  A    between atoms: C_11  and  C_17
REMARK    4  A    between atoms: C_18  and  C_19
REMARK    5  A    between atoms: C_19  and  N_21
REMARK                            x       y       z     vdW  Elec       q    Type
REMARK                         _______ _______ _______ _____ _____    ______ ____
ROOT
ATOM      1  N   UNL     1      34.626 -14.323 -22.667  0.00  0.00    +0.391 N 
ATOM      2  N   UNL     1      34.961 -16.950 -21.595  0.00  0.00    -0.312 N 
ATOM      3  C   UNL     1      34.148 -14.640 -21.316  0.00  0.00    -0.055 C 
ATOM      4  C   UNL     1      34.494 -15.502 -23.533  0.00  0.00    -0.055 C 
ATOM      5  C   UNL     1      34.957 -15.784 -20.702  0.00  0.00    +0.068 C 
ATOM      6  C   UNL     1      35.313 -16.676 -22.991  0.00  0.00    +0.068 C 
ATOM      7  H   UNL     1      35.611 -14.062 -22.616  0.00  0.00    -0.079 HD
ENDROOT
BRANCH   2   8
ATOM      8  C   UNL     1      35.244 -18.202 -21.040  0.00  0.00    +0.048 C 
ATOM      9  C   UNL     1      34.209 -19.080 -20.660  0.00  0.00    +0.018 C 
ATOM     10  C   UNL     1      36.575 -18.625 -20.845  0.00  0.00    +0.015 C 
ATOM     11  C   UNL     1      34.492 -20.328 -20.107  0.00  0.00    +0.073 C 
ATOM     12  C   UNL     1      36.858 -19.875 -20.293  0.00  0.00    +0.001 C 
ATOM     13  C   UNL     1      35.817 -20.726 -19.923  0.00  0.00    +0.004 C 
BRANCH  11  17
ATOM     14  F   UNL     1      32.273 -21.127 -20.503  0.00  0.00    -0.166 F 
ATOM     15  F   UNL     1      33.715 -22.562 -19.753  0.00  0.00    -0.166 F 
ATOM     16  F   UNL     1      32.943 -21.012 -18.438  0.00  0.00    -0.166 F 
ATOM     17  C   UNL     1      33.380 -21.239 -19.711  0.00  0.00    +0.419 C 
ENDBRANCH  11  17
ENDBRANCH   2   8
BRANCH   1  18
ATOM     18  C   UNL     1      33.882 -13.193 -23.223  0.00  0.00    -0.052 C 
BRANCH  18  19
ATOM     19  C   UNL     1      32.611 -12.952 -22.424  0.00  0.00    +0.088 C 
BRANCH  19  21
ATOM     20  O   UNL     1      32.698 -10.599 -24.312  0.00  0.00    -0.247 OA
ATOM     21  N   UNL     1      32.424 -11.553 -22.150  0.00  0.00    -0.282 N 
ATOM     22  N   UNL     1      32.241  -9.301 -22.390  0.00  0.00    -0.305 N 
ATOM     23  C   UNL     1      32.153 -10.996 -20.890  0.00  0.00    +0.079 A 
ATOM     24  C   UNL     1      32.484 -10.504 -23.113  0.00  0.00    +0.328 A 
ATOM     25  C   UNL     1      32.043  -9.616 -21.045  0.00  0.00    +0.076 A 
ATOM     26  C   UNL     1      32.003 -11.597 -19.657  0.00  0.00    +0.019 C 
ATOM     27  C   UNL     1      31.778  -8.772 -19.989  0.00  0.00    +0.019 C 
ATOM     28  C   UNL     1      31.733 -10.761 -18.569  0.00  0.00    +0.002 C 
ATOM     29  C   UNL     1      31.622  -9.364 -18.733  0.00  0.00    +0.002 C 
ATOM     30  H   UNL     1      32.217  -8.396 -22.776  0.00  0.00    +0.170 HD
ENDBRANCH  19  21
ENDBRANCH  18  19
ENDBRANCH   1  18
TORSDOF 5
ENDMDL
MODEL 8
REMARK VINA RESULT:     -10.7      3.911      5.386
REMARK  Name = 6918248
REMARK  5 active torsions:
REMARK  status: ('A' for Active; 'I' for Inactive)
REMARK    1  A    between atoms: N_1  and  C_18
REMARK    2  A    between atoms: N_2  and  C_8
REMARK    3  A    between atoms: C_11  and  C_17
REMARK    4  A    between atoms: C_18  and  C_19
REMARK    5  A    between atoms: C_19  and  N_21
REMARK                            x       y       z     vdW  Elec       q    Type
REMARK                         _______ _______ _______ _____ _____    ______ ____
ROOT
ATOM      1  N   UNL     1      32.819 -12.910 -22.629  0.00  0.00    +0.391 N 
ATOM      2  N   UNL     1      32.539 -10.100 -23.067  0.00  0.00    -0.312 N 
ATOM      3  C   UNL     1      32.228 -12.052 -21.594  0.00  0.00    -0.055 C 
ATOM      4  C   UNL     1      33.848 -12.165 -23.366  0.00  0.00    -0.055 C 
ATOM      5  C   UNL     1      31.579 -10.812 -22.212  0.00  0.00    +0.068 C 
ATOM      6  C   UNL     1      33.253 -10.929 -24.043  0.00  0.00    +0.068 C 
ATOM      7  H   UNL     1      32.086 -13.191 -23.281  0.00  0.00    -0.079 HD
ENDROOT
BRANCH   2   8
ATOM      8  C   UNL     1      32.295  -8.751 -23.346  0.00  0.00    +0.048 C 
ATOM      9  C   UNL     1      33.284  -7.942 -23.939  0.00  0.00    +0.018 C 
ATOM     10  C   UNL     1      31.051  -8.161 -23.043  0.00  0.00    +0.015 C 
ATOM     11  C   UNL     1      33.040  -6.597 -24.218  0.00  0.00    +0.073 C 
ATOM     12  C   UNL     1      30.807  -6.816 -23.323  0.00  0.00    +0.001 C 
ATOM     13  C   UNL     1      31.802  -6.034 -23.910  0.00  0.00    +0.004 C 
BRANCH  11  17
ATOM     14  F   UNL     1      34.410  -6.132 -26.123  0.00  0.00    -0.166 F 
ATOM     15  F   UNL     1      33.780  -4.436 -24.926  0.00  0.00    -0.166 F 
ATOM     16  F   UNL     1      35.282  -5.807 -24.158  0.00  0.00    -0.166 F 
ATOM     17  C   UNL     1      34.103  -5.761 -24.845  0.00  0.00    +0.419 C 
ENDBRANCH  11  17
ENDBRANCH   2   8
BRANCH   1  18
ATOM     18  C   UNL     1      33.387 -14.117 -22.032  0.00  0.00    -0.052 C 
BRANCH  18  19
ATOM     19  C   UNL     1      34.674 -14.505 -22.745  0.00  0.00    +0.088 C 
BRANCH  19  21
ATOM     20  O   UNL     1      33.782 -15.402 -25.486  0.00  0.00    -0.247 OA
ATOM     21  N   UNL     1      34.588 -15.833 -23.290  0.00  0.00    -0.282 N 
ATOM     22  N   UNL     1      34.232 -17.583 -24.694  0.00  0.00    -0.305 N 
ATOM     23  C   UNL     1      34.920 -17.017 -22.611  0.00  0.00    +0.079 A 
ATOM     24  C   UNL     1      34.151 -16.164 -24.605  0.00  0.00    +0.328 A 
ATOM     25  C   UNL     1      34.699 -18.085 -23.478  0.00  0.00    +0.076 A 
ATOM     26  C   UNL     1      35.386 -17.215 -21.328  0.00  0.00    +0.019 C 
ATOM     27  C   UNL     1      34.931 -19.394 -23.114  0.00  0.00    +0.019 C 
ATOM     28  C   UNL     1      35.629 -18.535 -20.935  0.00  0.00    +0.002 C 
ATOM     29  C   UNL     1      35.404 -19.612 -21.818  0.00  0.00    +0.002 C 
ATOM     30  H   UNL     1      33.997 -18.122 -25.484  0.00  0.00    +0.170 HD
ENDBRANCH  19  21
ENDBRANCH  18  19
ENDBRANCH   1  18
TORSDOF 5
ENDMDL
MODEL 9
REMARK VINA RESULT:     -10.7      4.931      9.459
REMARK  Name = 6918248
REMARK  5 active torsions:
REMARK  status: ('A' for Active; 'I' for Inactive)
REMARK    1  A    between atoms: N_1  and  C_18
REMARK    2  A    between atoms: N_2  and  C_8
REMARK    3  A    between atoms: C_11  and  C_17
REMARK    4  A    between atoms: C_18  and  C_19
REMARK    5  A    between atoms: C_19  and  N_21
REMARK                            x       y       z     vdW  Elec       q    Type
REMARK                         _______ _______ _______ _____ _____    ______ ____
ROOT
ATOM      1  N   UNL     1      34.536 -19.764 -20.996  0.00  0.00    +0.391 N 
ATOM      2  N   UNL     1      33.962 -21.514 -18.812  0.00  0.00    -0.312 N 
ATOM      3  C   UNL     1      33.186 -20.311 -20.819  0.00  0.00    -0.055 C 
ATOM      4  C   UNL     1      35.534 -20.742 -20.544  0.00  0.00    -0.055 C 
ATOM      5  C   UNL     1      32.913 -20.636 -19.349  0.00  0.00    +0.068 C 
ATOM      6  C   UNL     1      35.340 -21.081 -19.065  0.00  0.00    +0.068 C 
ATOM      7  H   UNL     1      34.626 -18.918 -20.432  0.00  0.00    -0.079 HD
ENDROOT
BRANCH   2   8
ATOM      8  C   UNL     1      33.668 -22.266 -17.670  0.00  0.00    +0.048 C 
ATOM      9  C   UNL     1      32.339 -22.430 -17.230  0.00  0.00    +0.018 C 
ATOM     10  C   UNL     1      34.692 -22.884 -16.925  0.00  0.00    +0.015 C 
ATOM     11  C   UNL     1      32.046 -23.181 -16.092  0.00  0.00    +0.073 C 
ATOM     12  C   UNL     1      34.399 -23.636 -15.787  0.00  0.00    +0.001 C 
ATOM     13  C   UNL     1      33.077 -23.784 -15.370  0.00  0.00    +0.004 C 
BRANCH  11  17
ATOM     14  F   UNL     1      29.729 -22.716 -16.458  0.00  0.00    -0.166 F 
ATOM     15  F   UNL     1      30.220 -24.640 -15.587  0.00  0.00    -0.166 F 
ATOM     16  F   UNL     1      30.416 -22.831 -14.398  0.00  0.00    -0.166 F 
ATOM     17  C   UNL     1      30.633 -23.340 -15.646  0.00  0.00    +0.419 C 
ENDBRANCH  11  17
ENDBRANCH   2   8
BRANCH   1  18
ATOM     18  C   UNL     1      34.765 -19.406 -22.396  0.00  0.00    -0.052 C 
BRANCH  18  19
ATOM     19  C   UNL     1      35.758 -18.258 -22.492  0.00  0.00    +0.088 C 
BRANCH  19  21
ATOM     20  O   UNL     1      34.839 -17.291 -25.200  0.00  0.00    -0.247 OA
ATOM     21  N   UNL     1      35.102 -17.030 -22.850  0.00  0.00    -0.282 N 
ATOM     22  N   UNL     1      34.098 -15.371 -24.036  0.00  0.00    -0.305 N 
ATOM     23  C   UNL     1      34.749 -16.003 -21.960  0.00  0.00    +0.079 A 
ATOM     24  C   UNL     1      34.701 -16.655 -24.165  0.00  0.00    +0.328 A 
ATOM     25  C   UNL     1      34.135 -14.990 -22.693  0.00  0.00    +0.076 A 
ATOM     26  C   UNL     1      34.925 -15.899 -20.595  0.00  0.00    +0.019 C 
ATOM     27  C   UNL     1      33.668 -13.832 -22.110  0.00  0.00    +0.019 C 
ATOM     28  C   UNL     1      34.459 -14.732 -19.980  0.00  0.00    +0.002 C 
ATOM     29  C   UNL     1      33.838 -13.711 -20.728  0.00  0.00    +0.002 C 
ATOM     30  H   UNL     1      33.718 -14.841 -24.772  0.00  0.00    +0.170 HD
ENDBRANCH  19  21
ENDBRANCH  18  19
ENDBRANCH   1  18
TORSDOF 5
ENDMDL
