MODEL 1
REMARK VINA RESULT:     -10.7      0.000      0.000
REMARK  Name = 24893974
REMARK  11 active torsions:
REMARK  status: ('A' for Active; 'I' for Inactive)
REMARK    1  A    between atoms: C_1  and  C_4
REMARK    2  A    between atoms: C_1  and  C_20
REMARK    3  A    between atoms: N_3  and  C_6
REMARK    4  A    between atoms: C_7  and  C_14
REMARK    5  A    between atoms: N_13  and  C_16
REMARK    6  A    between atoms: C_16  and  C_17
REMARK    7  A    between atoms: C_17  and  C_18
REMARK    8  A    between atoms: C_20  and  C_21
REMARK    9  A    between atoms: C_21  and  C_22
REMARK   10  A    between atoms: C_22  and  C_23
REMARK   11  A    between atoms: C_23  and  N_24
REMARK                            x       y       z     vdW  Elec       q    Type
REMARK                         _______ _______ _______ _____ _____    ______ ____
ROOT
ATOM      1  C   UNL     1      36.830 -20.011 -19.619  0.00  0.00    +0.085 C 
ENDROOT
BRANCH   1   4
ATOM      2  O   UNL     1      37.928 -18.602 -21.237  0.00  0.00    -0.275 OA
ATOM      3  N   UNL     1      35.585 -18.585 -21.090  0.00  0.00    -0.284 N 
ATOM      4  C   UNL     1      36.872 -18.991 -20.750  0.00  0.00    +0.226 C 
ATOM      5  H   UNL     1      34.850 -18.993 -20.577  0.00  0.00    +0.155 HD
BRANCH   3   6
ATOM      6  C   UNL     1      35.210 -17.654 -22.089  0.00  0.00    +0.050 C 
ATOM      7  C   UNL     1      34.687 -15.390 -22.749  0.00  0.00    +0.055 C 
ATOM      8  C   UNL     1      35.057 -16.306 -21.765  0.00  0.00    +0.019 C 
ATOM      9  C   UNL     1      34.994 -18.087 -23.397  0.00  0.00    +0.015 C 
ATOM     10  C   UNL     1      34.471 -15.822 -24.058  0.00  0.00    +0.005 C 
ATOM     11  C   UNL     1      34.625 -17.170 -24.382  0.00  0.00    +0.001 C 
BRANCH   7  14
ATOM     12  O   UNL     1      34.871 -13.560 -21.296  0.00  0.00    -0.270 OA
ATOM     13  N   UNL     1      33.998 -13.150 -23.404  0.00  0.00    -0.301 N 
ATOM     14  C   UNL     1      34.527 -13.984 -22.413  0.00  0.00    +0.246 C 
ATOM     15  H   UNL     1      33.746 -13.552 -24.266  0.00  0.00    +0.150 HD
BRANCH  13  16
ATOM     16  C   UNL     1      33.801 -11.729 -23.230  0.00  0.00    +0.090 C 
BRANCH  16  17
ATOM     17  C   UNL     1      32.353 -11.378 -22.906  0.00  0.00    +0.021 C 
BRANCH  17  18
ATOM     18  C   UNL     1      32.127 -11.130 -21.412  0.00  0.00    +0.002 C 
ATOM     19  C   UNL     1      31.611 -12.377 -20.714  0.00  0.00    +0.000 C 
ENDBRANCH  17  18
ENDBRANCH  16  17
ENDBRANCH  13  16
ENDBRANCH   7  14
ENDBRANCH   3   6
ENDBRANCH   1   4
BRANCH   1  20
ATOM     20  C   UNL     1      35.658 -20.989 -19.710  0.00  0.00    +0.010 C 
BRANCH  20  21
ATOM     21  C   UNL     1      35.532 -21.866 -18.459  0.00  0.00    +0.002 C 
BRANCH  21  22
ATOM     22  C   UNL     1      36.704 -21.632 -17.500  0.00  0.00    +0.021 C 
BRANCH  22  23
ATOM     23  C   UNL     1      36.458 -22.225 -16.116  0.00  0.00    +0.088 C 
BRANCH  23  24
ATOM     24  N   UNL     1      37.566 -23.056 -15.709  0.00  0.00    -0.320 N 
ATOM     25  N   UNL     1      39.873 -24.856 -14.794  0.00  0.00    -0.270 NA
ATOM     26  N   UNL     1      36.321 -24.241 -14.061  0.00  0.00    -0.232 NA
ATOM     27  N   UNL     1      39.679 -26.393 -13.192  0.00  0.00    -0.307 N 
ATOM     28  N   UNL     1      37.332 -25.995 -12.699  0.00  0.00    -0.232 NA
ATOM     29  C   UNL     1      37.482 -24.022 -14.720  0.00  0.00    +0.124 C 
ATOM     30  C   UNL     1      38.576 -24.789 -14.370  0.00  0.00    +0.164 C 
ATOM     31  C   UNL     1      38.480 -25.752 -13.375  0.00  0.00    +0.125 C 
ATOM     32  C   UNL     1      40.494 -25.832 -14.060  0.00  0.00    +0.163 C 
ATOM     33  C   UNL     1      36.318 -25.201 -13.105  0.00  0.00    +0.252 C 
ATOM     34  H   UNL     1      38.431 -22.928 -16.163  0.00  0.00    +0.148 HD
ATOM     35  H   UNL     1      40.285 -24.306 -15.499  0.00  0.00    +0.126 HD
ATOM     36  H   UNL     1      39.884 -27.113 -12.553  0.00  0.00    +0.149 HD
ENDBRANCH  23  24
ENDBRANCH  22  23
ENDBRANCH  21  22
ENDBRANCH  20  21
ENDBRANCH   1  20
TORSDOF 11
ENDMDL
MODEL 2
REMARK VINA RESULT:     -10.6      2.541      4.110
REMARK  Name = 24893974
REMARK  11 active torsions:
REMARK  status: ('A' for Active; 'I' for Inactive)
REMARK    1  A    between atoms: C_1  and  C_4
REMARK    2  A    between atoms: C_1  and  C_20
REMARK    3  A    between atoms: N_3  and  C_6
REMARK    4  A    between atoms: C_7  and  C_14
REMARK    5  A    between atoms: N_13  and  C_16
REMARK    6  A    between atoms: C_16  and  C_17
REMARK    7  A    between atoms: C_17  and  C_18
REMARK    8  A    between atoms: C_20  and  C_21
REMARK    9  A    between atoms: C_21  and  C_22
REMARK   10  A    between atoms: C_22  and  C_23
REMARK   11  A    between atoms: C_23  and  N_24
REMARK                            x       y       z     vdW  Elec       q    Type
REMARK                         _______ _______ _______ _____ _____    ______ ____
ROOT
ATOM      1  C   UNL     1      33.415 -22.924 -18.130  0.00  0.00    +0.085 C 
ENDROOT
BRANCH   1   4
ATOM      2  O   UNL     1      32.707 -20.844 -19.123  0.00  0.00    -0.275 OA
ATOM      3  N   UNL     1      34.928 -21.557 -19.392  0.00  0.00    -0.284 N 
ATOM      4  C   UNL     1      33.619 -21.642 -18.928  0.00  0.00    +0.226 C 
ATOM      5  H   UNL     1      35.524 -22.303 -19.153  0.00  0.00    +0.155 HD
BRANCH   3   6
ATOM      6  C   UNL     1      35.503 -20.521 -20.167  0.00  0.00    +0.050 C 
ATOM      7  C   UNL     1      35.396 -19.006 -22.045  0.00  0.00    +0.055 C 
ATOM      8  C   UNL     1      34.828 -20.026 -21.283  0.00  0.00    +0.019 C 
ATOM      9  C   UNL     1      36.745 -19.995 -19.812  0.00  0.00    +0.015 C 
ATOM     10  C   UNL     1      36.638 -18.479 -21.691  0.00  0.00    +0.005 C 
ATOM     11  C   UNL     1      37.313 -18.973 -20.574  0.00  0.00    +0.001 C 
BRANCH   7  14
ATOM     12  O   UNL     1      33.971 -19.235 -23.892  0.00  0.00    -0.270 OA
ATOM     13  N   UNL     1      34.854 -17.128 -23.495  0.00  0.00    -0.301 N 
ATOM     14  C   UNL     1      34.693 -18.489 -23.209  0.00  0.00    +0.246 C 
ATOM     15  H   UNL     1      35.442 -16.595 -22.912  0.00  0.00    +0.150 HD
BRANCH  13  16
ATOM     16  C   UNL     1      34.204 -16.463 -24.601  0.00  0.00    +0.090 C 
BRANCH  16  17
ATOM     17  C   UNL     1      33.878 -15.006 -24.293  0.00  0.00    +0.021 C 
BRANCH  17  18
ATOM     18  C   UNL     1      34.469 -14.539 -22.959  0.00  0.00    +0.002 C 
ATOM     19  C   UNL     1      33.927 -13.177 -22.559  0.00  0.00    +0.000 C 
ENDBRANCH  17  18
ENDBRANCH  16  17
ENDBRANCH  13  16
ENDBRANCH   7  14
ENDBRANCH   3   6
ENDBRANCH   1   4
BRANCH   1  20
ATOM     20  C   UNL     1      32.527 -22.750 -16.897  0.00  0.00    +0.010 C 
BRANCH  20  21
ATOM     21  C   UNL     1      33.182 -23.298 -15.625  0.00  0.00    +0.002 C 
BRANCH  21  22
ATOM     22  C   UNL     1      32.339 -22.976 -14.387  0.00  0.00    +0.021 C 
BRANCH  22  23
ATOM     23  C   UNL     1      32.744 -23.800 -13.168  0.00  0.00    +0.088 C 
BRANCH  23  24
ATOM     24  N   UNL     1      33.949 -24.549 -13.432  0.00  0.00    -0.320 N 
ATOM     25  N   UNL     1      36.538 -26.116 -13.924  0.00  0.00    -0.270 NA
ATOM     26  N   UNL     1      35.010 -23.929 -11.392  0.00  0.00    -0.232 NA
ATOM     27  N   UNL     1      38.247 -26.159 -12.493  0.00  0.00    -0.307 N 
ATOM     28  N   UNL     1      37.246 -24.715 -10.814  0.00  0.00    -0.232 NA
ATOM     29  C   UNL     1      35.029 -24.600 -12.566  0.00  0.00    +0.124 C 
ATOM     30  C   UNL     1      36.159 -25.334 -12.870  0.00  0.00    +0.164 C 
ATOM     31  C   UNL     1      37.236 -25.376 -11.995  0.00  0.00    +0.125 C 
ATOM     32  C   UNL     1      37.794 -26.589 -13.652  0.00  0.00    +0.163 C 
ATOM     33  C   UNL     1      36.103 -24.026 -10.600  0.00  0.00    +0.252 C 
ATOM     34  H   UNL     1      34.006 -25.052 -14.277  0.00  0.00    +0.148 HD
ATOM     35  H   UNL     1      36.006 -26.306 -14.730  0.00  0.00    +0.126 HD
ATOM     36  H   UNL     1      39.116 -26.356 -12.076  0.00  0.00    +0.149 HD
ENDBRANCH  23  24
ENDBRANCH  22  23
ENDBRANCH  21  22
ENDBRANCH  20  21
ENDBRANCH   1  20
TORSDOF 11
ENDMDL
MODEL 3
REMARK VINA RESULT:     -10.6      3.120      5.266
REMARK  Name = 24893974
REMARK  11 active torsions:
REMARK  status: ('A' for Active; 'I' for Inactive)
REMARK    1  A    between atoms: C_1  and  C_4
REMARK    2  A    between atoms: C_1  and  C_20
REMARK    3  A    between atoms: N_3  and  C_6
REMARK    4  A    between atoms: C_7  and  C_14
REMARK    5  A    between atoms: N_13  and  C_16
REMARK    6  A    between atoms: C_16  and  C_17
REMARK    7  A    between atoms: C_17  and  C_18
REMARK    8  A    between atoms: C_20  and  C_21
REMARK    9  A    between atoms: C_21  and  C_22
REMARK   10  A    between atoms: C_22  and  C_23
REMARK   11  A    between atoms: C_23  and  N_24
REMARK                            x       y       z     vdW  Elec       q    Type
REMARK                         _______ _______ _______ _____ _____    ______ ____
ROOT
ATOM      1  C   UNL     1      31.374 -23.224 -16.496  0.00  0.00    +0.085 C 
ENDROOT
BRANCH   1   4
ATOM      2  O   UNL     1      33.761 -23.208 -16.158  0.00  0.00    -0.275 OA
ATOM      3  N   UNL     1      32.855 -22.166 -18.057  0.00  0.00    -0.284 N 
ATOM      4  C   UNL     1      32.813 -22.885 -16.867  0.00  0.00    +0.226 C 
ATOM      5  H   UNL     1      31.988 -21.980 -18.484  0.00  0.00    +0.155 HD
BRANCH   3   6
ATOM      6  C   UNL     1      34.000 -21.672 -18.727  0.00  0.00    +0.050 C 
ATOM      7  C   UNL     1      34.997 -20.188 -20.351  0.00  0.00    +0.055 C 
ATOM      8  C   UNL     1      33.869 -20.674 -19.692  0.00  0.00    +0.019 C 
ATOM      9  C   UNL     1      35.261 -22.184 -18.419  0.00  0.00    +0.015 C 
ATOM     10  C   UNL     1      36.258 -20.699 -20.044  0.00  0.00    +0.005 C 
ATOM     11  C   UNL     1      36.391 -21.697 -19.078  0.00  0.00    +0.001 C 
BRANCH   7  14
ATOM     12  O   UNL     1      34.287 -19.381 -22.435  0.00  0.00    -0.270 OA
ATOM     13  N   UNL     1      35.382 -17.886 -21.041  0.00  0.00    -0.301 N 
ATOM     14  C   UNL     1      34.861 -19.146 -21.357  0.00  0.00    +0.246 C 
ATOM     15  H   UNL     1      35.824 -17.769 -20.170  0.00  0.00    +0.150 HD
BRANCH  13  16
ATOM     16  C   UNL     1      35.304 -16.745 -21.926  0.00  0.00    +0.090 C 
BRANCH  16  17
ATOM     17  C   UNL     1      34.692 -15.524 -21.248  0.00  0.00    +0.021 C 
BRANCH  17  18
ATOM     18  C   UNL     1      34.594 -14.318 -22.186  0.00  0.00    +0.002 C 
ATOM     19  C   UNL     1      33.852 -14.667 -23.465  0.00  0.00    +0.000 C 
ENDBRANCH  17  18
ENDBRANCH  16  17
ENDBRANCH  13  16
ENDBRANCH   7  14
ENDBRANCH   3   6
ENDBRANCH   1   4
BRANCH   1  20
ATOM     20  C   UNL     1      31.049 -23.004 -15.019  0.00  0.00    +0.010 C 
BRANCH  20  21
ATOM     21  C   UNL     1      30.457 -24.255 -14.359  0.00  0.00    +0.002 C 
BRANCH  21  22
ATOM     22  C   UNL     1      31.490 -24.949 -13.466  0.00  0.00    +0.021 C 
BRANCH  22  23
ATOM     23  C   UNL     1      32.671 -24.046 -13.121  0.00  0.00    +0.088 C 
BRANCH  23  24
ATOM     24  N   UNL     1      33.923 -24.714 -13.388  0.00  0.00    -0.320 N 
ATOM     25  N   UNL     1      36.608 -26.109 -13.884  0.00  0.00    -0.270 NA
ATOM     26  N   UNL     1      34.934 -24.051 -11.336  0.00  0.00    -0.232 NA
ATOM     27  N   UNL     1      38.310 -26.060 -12.446  0.00  0.00    -0.307 N 
ATOM     28  N   UNL     1      37.213 -24.700 -10.756  0.00  0.00    -0.232 NA
ATOM     29  C   UNL     1      35.000 -24.707 -12.517  0.00  0.00    +0.124 C 
ATOM     30  C   UNL     1      36.176 -25.364 -12.824  0.00  0.00    +0.164 C 
ATOM     31  C   UNL     1      37.250 -25.348 -11.944  0.00  0.00    +0.125 C 
ATOM     32  C   UNL     1      37.891 -26.504 -13.612  0.00  0.00    +0.163 C 
ATOM     33  C   UNL     1      36.028 -24.088 -10.539  0.00  0.00    +0.252 C 
ATOM     34  H   UNL     1      34.015 -25.203 -14.238  0.00  0.00    +0.148 HD
ATOM     35  H   UNL     1      36.092 -26.323 -14.695  0.00  0.00    +0.126 HD
ATOM     36  H   UNL     1      39.188 -26.206 -12.027  0.00  0.00    +0.149 HD
ENDBRANCH  23  24
ENDBRANCH  22  23
ENDBRANCH  21  22
ENDBRANCH  20  21
ENDBRANCH   1  20
TORSDOF 11
ENDMDL
MODEL 4
REMARK VINA RESULT:     -10.6      3.565     12.681
REMARK  Name = 24893974
REMARK  11 active torsions:
REMARK  status: ('A' for Active; 'I' for Inactive)
REMARK    1  A    between atoms: C_1  and  C_4
REMARK    2  A    between atoms: C_1  and  C_20
REMARK    3  A    between atoms: N_3  and  C_6
REMARK    4  A    between atoms: C_7  and  C_14
REMARK    5  A    between atoms: N_13  and  C_16
REMARK    6  A    between atoms: C_16  and  C_17
REMARK    7  A    between atoms: C_17  and  C_18
REMARK    8  A    between atoms: C_20  and  C_21
REMARK    9  A    between atoms: C_21  and  C_22
REMARK   10  A    between atoms: C_22  and  C_23
REMARK   11  A    between atoms: C_23  and  N_24
REMARK                            x       y       z     vdW  Elec       q    Type
REMARK                         _______ _______ _______ _____ _____    ______ ____
ROOT
ATOM      1  C   UNL     1      33.353 -21.532 -19.295  0.00  0.00    +0.085 C 
ENDROOT
BRANCH   1   4
ATOM      2  O   UNL     1      34.588 -23.106 -17.950  0.00  0.00    -0.275 OA
ATOM      3  N   UNL     1      32.443 -22.437 -17.269  0.00  0.00    -0.284 N 
ATOM      4  C   UNL     1      33.561 -22.450 -18.096  0.00  0.00    +0.226 C 
ATOM      5  H   UNL     1      31.697 -21.860 -17.555  0.00  0.00    +0.155 HD
BRANCH   3   6
ATOM      6  C   UNL     1      32.252 -23.154 -16.064  0.00  0.00    +0.050 C 
ATOM      7  C   UNL     1      33.155 -24.159 -14.061  0.00  0.00    +0.055 C 
ATOM      8  C   UNL     1      33.344 -23.452 -15.248  0.00  0.00    +0.019 C 
ATOM      9  C   UNL     1      30.971 -23.563 -15.692  0.00  0.00    +0.015 C 
ATOM     10  C   UNL     1      31.874 -24.568 -13.689  0.00  0.00    +0.005 C 
ATOM     11  C   UNL     1      30.782 -24.270 -14.504  0.00  0.00    +0.001 C 
BRANCH   7  14
ATOM     12  O   UNL     1      34.270 -24.184 -11.999  0.00  0.00    -0.270 OA
ATOM     13  N   UNL     1      35.380 -25.112 -13.811  0.00  0.00    -0.301 N 
ATOM     14  C   UNL     1      34.292 -24.469 -13.209  0.00  0.00    +0.246 C 
ATOM     15  H   UNL     1      35.331 -25.308 -14.774  0.00  0.00    +0.150 HD
BRANCH  13  16
ATOM     16  C   UNL     1      36.572 -25.506 -13.094  0.00  0.00    +0.090 C 
BRANCH  16  17
ATOM     17  C   UNL     1      37.840 -25.292 -13.913  0.00  0.00    +0.021 C 
BRANCH  17  18
ATOM     18  C   UNL     1      39.109 -25.662 -13.139  0.00  0.00    +0.002 C 
ATOM     19  C   UNL     1      40.312 -25.765 -14.063  0.00  0.00    +0.000 C 
ENDBRANCH  17  18
ENDBRANCH  16  17
ENDBRANCH  13  16
ENDBRANCH   7  14
ENDBRANCH   3   6
ENDBRANCH   1   4
BRANCH   1  20
ATOM     20  C   UNL     1      34.643 -20.909 -19.828  0.00  0.00    +0.010 C 
BRANCH  20  21
ATOM     21  C   UNL     1      34.377 -19.701 -20.733  0.00  0.00    +0.002 C 
BRANCH  21  22
ATOM     22  C   UNL     1      35.328 -19.690 -21.934  0.00  0.00    +0.021 C 
BRANCH  22  23
ATOM     23  C   UNL     1      36.041 -18.352 -22.108  0.00  0.00    +0.088 C 
BRANCH  23  24
ATOM     24  N   UNL     1      35.373 -17.540 -23.097  0.00  0.00    -0.320 N 
ATOM     25  N   UNL     1      33.945 -15.759 -25.144  0.00  0.00    -0.270 NA
ATOM     26  N   UNL     1      34.984 -15.716 -21.616  0.00  0.00    -0.232 NA
ATOM     27  N   UNL     1      33.156 -13.727 -24.676  0.00  0.00    -0.307 N 
ATOM     28  N   UNL     1      33.838 -13.689 -22.343  0.00  0.00    -0.232 NA
ATOM     29  C   UNL     1      34.872 -16.274 -22.843  0.00  0.00    +0.124 C 
ATOM     30  C   UNL     1      34.240 -15.540 -23.828  0.00  0.00    +0.164 C 
ATOM     31  C   UNL     1      33.740 -14.273 -23.561  0.00  0.00    +0.125 C 
ATOM     32  C   UNL     1      33.297 -14.645 -25.608  0.00  0.00    +0.163 C 
ATOM     33  C   UNL     1      34.469 -14.476 -21.444  0.00  0.00    +0.252 C 
ATOM     34  H   UNL     1      35.268 -17.908 -24.005  0.00  0.00    +0.148 HD
ATOM     35  H   UNL     1      34.160 -16.567 -25.663  0.00  0.00    +0.126 HD
ATOM     36  H   UNL     1      32.727 -12.845 -24.759  0.00  0.00    +0.149 HD
ENDBRANCH  23  24
ENDBRANCH  22  23
ENDBRANCH  21  22
ENDBRANCH  20  21
ENDBRANCH   1  20
TORSDOF 11
ENDMDL
MODEL 5
REMARK VINA RESULT:     -10.5      3.533      4.932
REMARK  Name = 24893974
REMARK  11 active torsions:
REMARK  status: ('A' for Active; 'I' for Inactive)
REMARK    1  A    between atoms: C_1  and  C_4
REMARK    2  A    between atoms: C_1  and  C_20
REMARK    3  A    between atoms: N_3  and  C_6
REMARK    4  A    between atoms: C_7  and  C_14
REMARK    5  A    between atoms: N_13  and  C_16
REMARK    6  A    between atoms: C_16  and  C_17
REMARK    7  A    between atoms: C_17  and  C_18
REMARK    8  A    between atoms: C_20  and  C_21
REMARK    9  A    between atoms: C_21  and  C_22
REMARK   10  A    between atoms: C_22  and  C_23
REMARK   11  A    between atoms: C_23  and  N_24
REMARK                            x       y       z     vdW  Elec       q    Type
REMARK                         _______ _______ _______ _____ _____    ______ ____
ROOT
ATOM      1  C   UNL     1      36.309 -18.443 -21.159  0.00  0.00    +0.085 C 
ENDROOT
BRANCH   1   4
ATOM      2  O   UNL     1      34.964 -16.558 -20.488  0.00  0.00    -0.275 OA
ATOM      3  N   UNL     1      35.254 -17.016 -22.772  0.00  0.00    -0.284 N 
ATOM      4  C   UNL     1      35.436 -17.219 -21.407  0.00  0.00    +0.226 C 
ATOM      5  H   UNL     1      35.696 -17.661 -23.370  0.00  0.00    +0.155 HD
BRANCH   3   6
ATOM      6  C   UNL     1      34.511 -15.988 -23.400  0.00  0.00    +0.050 C 
ATOM      7  C   UNL     1      33.424 -13.833 -23.305  0.00  0.00    +0.055 C 
ATOM      8  C   UNL     1      34.157 -14.845 -22.685  0.00  0.00    +0.019 C 
ATOM      9  C   UNL     1      34.133 -16.121 -24.736  0.00  0.00    +0.015 C 
ATOM     10  C   UNL     1      33.046 -13.965 -24.641  0.00  0.00    +0.005 C 
ATOM     11  C   UNL     1      33.400 -15.108 -25.357  0.00  0.00    +0.001 C 
BRANCH   7  14
ATOM     12  O   UNL     1      33.728 -11.599 -22.662  0.00  0.00    -0.270 OA
ATOM     13  N   UNL     1      31.912 -12.720 -21.756  0.00  0.00    -0.301 N 
ATOM     14  C   UNL     1      33.056 -12.639 -22.560  0.00  0.00    +0.246 C 
ATOM     15  H   UNL     1      31.427 -13.576 -21.721  0.00  0.00    +0.150 HD
BRANCH  13  16
ATOM     16  C   UNL     1      31.406 -11.615 -20.975  0.00  0.00    +0.090 C 
BRANCH  16  17
ATOM     17  C   UNL     1      31.963 -11.602 -19.555  0.00  0.00    +0.021 C 
BRANCH  17  18
ATOM     18  C   UNL     1      31.642 -10.305 -18.808  0.00  0.00    +0.002 C 
ATOM     19  C   UNL     1      31.881  -9.086 -19.685  0.00  0.00    +0.000 C 
ENDBRANCH  17  18
ENDBRANCH  16  17
ENDBRANCH  13  16
ENDBRANCH   7  14
ENDBRANCH   3   6
ENDBRANCH   1   4
BRANCH   1  20
ATOM     20  C   UNL     1      35.567 -19.771 -21.306  0.00  0.00    +0.010 C 
BRANCH  20  21
ATOM     21  C   UNL     1      35.472 -20.536 -19.981  0.00  0.00    +0.002 C 
BRANCH  21  22
ATOM     22  C   UNL     1      34.018 -20.890 -19.652  0.00  0.00    +0.021 C 
BRANCH  22  23
ATOM     23  C   UNL     1      33.886 -22.235 -18.942  0.00  0.00    +0.088 C 
BRANCH  23  24
ATOM     24  N   UNL     1      32.637 -22.316 -18.225  0.00  0.00    -0.320 N 
ATOM     25  N   UNL     1      30.020 -22.515 -16.639  0.00  0.00    -0.270 NA
ATOM     26  N   UNL     1      33.617 -23.162 -16.227  0.00  0.00    -0.232 NA
ATOM     27  N   UNL     1      29.903 -23.247 -14.536  0.00  0.00    -0.307 N 
ATOM     28  N   UNL     1      32.278 -23.679 -14.254  0.00  0.00    -0.232 NA
ATOM     29  C   UNL     1      32.526 -22.763 -16.918  0.00  0.00    +0.124 C 
ATOM     30  C   UNL     1      31.303 -22.821 -16.280  0.00  0.00    +0.164 C 
ATOM     31  C   UNL     1      31.203 -23.273 -14.971  0.00  0.00    +0.125 C 
ATOM     32  C   UNL     1      29.218 -22.786 -15.562  0.00  0.00    +0.163 C 
ATOM     33  C   UNL     1      33.429 -23.589 -14.955  0.00  0.00    +0.252 C 
ATOM     34  H   UNL     1      31.815 -22.036 -18.692  0.00  0.00    +0.148 HD
ATOM     35  H   UNL     1      29.726 -22.163 -17.510  0.00  0.00    +0.126 HD
ATOM     36  H   UNL     1      29.558 -23.514 -13.654  0.00  0.00    +0.149 HD
ENDBRANCH  23  24
ENDBRANCH  22  23
ENDBRANCH  21  22
ENDBRANCH  20  21
ENDBRANCH   1  20
TORSDOF 11
ENDMDL
MODEL 6
REMARK VINA RESULT:     -10.5      3.559      5.084
REMARK  Name = 24893974
REMARK  11 active torsions:
REMARK  status: ('A' for Active; 'I' for Inactive)
REMARK    1  A    between atoms: C_1  and  C_4
REMARK    2  A    between atoms: C_1  and  C_20
REMARK    3  A    between atoms: N_3  and  C_6
REMARK    4  A    between atoms: C_7  and  C_14
REMARK    5  A    between atoms: N_13  and  C_16
REMARK    6  A    between atoms: C_16  and  C_17
REMARK    7  A    between atoms: C_17  and  C_18
REMARK    8  A    between atoms: C_20  and  C_21
REMARK    9  A    between atoms: C_21  and  C_22
REMARK   10  A    between atoms: C_22  and  C_23
REMARK   11  A    between atoms: C_23  and  N_24
REMARK                            x       y       z     vdW  Elec       q    Type
REMARK                         _______ _______ _______ _____ _____    ______ ____
ROOT
ATOM      1  C   UNL     1      36.218 -18.334 -21.001  0.00  0.00    +0.085 C 
ENDROOT
BRANCH   1   4
ATOM      2  O   UNL     1      34.931 -16.362 -20.485  0.00  0.00    -0.275 OA
ATOM      3  N   UNL     1      35.270 -16.967 -22.728  0.00  0.00    -0.284 N 
ATOM      4  C   UNL     1      35.402 -17.095 -21.349  0.00  0.00    +0.226 C 
ATOM      5  H   UNL     1      35.704 -17.664 -23.273  0.00  0.00    +0.155 HD
BRANCH   3   6
ATOM      6  C   UNL     1      34.588 -15.951 -23.439  0.00  0.00    +0.050 C 
ATOM      7  C   UNL     1      33.771 -13.683 -23.580  0.00  0.00    +0.055 C 
ATOM      8  C   UNL     1      34.444 -14.682 -22.879  0.00  0.00    +0.019 C 
ATOM      9  C   UNL     1      34.060 -16.221 -24.702  0.00  0.00    +0.015 C 
ATOM     10  C   UNL     1      33.243 -13.951 -24.843  0.00  0.00    +0.005 C 
ATOM     11  C   UNL     1      33.388 -15.220 -25.405  0.00  0.00    +0.001 C 
BRANCH   7  14
ATOM     12  O   UNL     1      33.264 -12.227 -21.814  0.00  0.00    -0.270 OA
ATOM     13  N   UNL     1      33.918 -11.265 -23.819  0.00  0.00    -0.301 N 
ATOM     14  C   UNL     1      33.621 -12.358 -22.997  0.00  0.00    +0.246 C 
ATOM     15  H   UNL     1      34.195 -11.441 -24.747  0.00  0.00    +0.150 HD
BRANCH  13  16
ATOM     16  C   UNL     1      33.839  -9.891 -23.379  0.00  0.00    +0.090 C 
BRANCH  16  17
ATOM     17  C   UNL     1      35.151  -9.140 -23.578  0.00  0.00    +0.021 C 
BRANCH  17  18
ATOM     18  C   UNL     1      35.073  -7.684 -23.110  0.00  0.00    +0.002 C 
ATOM     19  C   UNL     1      35.050  -6.723 -24.287  0.00  0.00    +0.000 C 
ENDBRANCH  17  18
ENDBRANCH  16  17
ENDBRANCH  13  16
ENDBRANCH   7  14
ENDBRANCH   3   6
ENDBRANCH   1   4
BRANCH   1  20
ATOM     20  C   UNL     1      35.485 -19.650 -21.262  0.00  0.00    +0.010 C 
BRANCH  20  21
ATOM     21  C   UNL     1      35.410 -20.534 -20.012  0.00  0.00    +0.002 C 
BRANCH  21  22
ATOM     22  C   UNL     1      33.960 -20.909 -19.687  0.00  0.00    +0.021 C 
BRANCH  22  23
ATOM     23  C   UNL     1      33.846 -22.253 -18.973  0.00  0.00    +0.088 C 
BRANCH  23  24
ATOM     24  N   UNL     1      32.611 -22.336 -18.231  0.00  0.00    -0.320 N 
ATOM     25  N   UNL     1      30.028 -22.538 -16.592  0.00  0.00    -0.270 NA
ATOM     26  N   UNL     1      33.643 -23.110 -16.229  0.00  0.00    -0.232 NA
ATOM     27  N   UNL     1      29.961 -23.214 -14.469  0.00  0.00    -0.307 N 
ATOM     28  N   UNL     1      32.349 -23.596 -14.219  0.00  0.00    -0.232 NA
ATOM     29  C   UNL     1      32.532 -22.750 -16.911  0.00  0.00    +0.124 C 
ATOM     30  C   UNL     1      31.322 -22.811 -16.249  0.00  0.00    +0.164 C 
ATOM     31  C   UNL     1      31.254 -23.229 -14.927  0.00  0.00    +0.125 C 
ATOM     32  C   UNL     1      29.250 -22.794 -15.493  0.00  0.00    +0.163 C 
ATOM     33  C   UNL     1      33.486 -23.505 -14.943  0.00  0.00    +0.252 C 
ATOM     34  H   UNL     1      31.777 -22.084 -18.690  0.00  0.00    +0.148 HD
ATOM     35  H   UNL     1      29.712 -22.215 -17.466  0.00  0.00    +0.126 HD
ATOM     36  H   UNL     1      29.638 -23.463 -13.573  0.00  0.00    +0.149 HD
ENDBRANCH  23  24
ENDBRANCH  22  23
ENDBRANCH  21  22
ENDBRANCH  20  21
ENDBRANCH   1  20
TORSDOF 11
ENDMDL
MODEL 7
REMARK VINA RESULT:     -10.4      3.799      5.180
REMARK  Name = 24893974
REMARK  11 active torsions:
REMARK  status: ('A' for Active; 'I' for Inactive)
REMARK    1  A    between atoms: C_1  and  C_4
REMARK    2  A    between atoms: C_1  and  C_20
REMARK    3  A    between atoms: N_3  and  C_6
REMARK    4  A    between atoms: C_7  and  C_14
REMARK    5  A    between atoms: N_13  and  C_16
REMARK    6  A    between atoms: C_16  and  C_17
REMARK    7  A    between atoms: C_17  and  C_18
REMARK    8  A    between atoms: C_20  and  C_21
REMARK    9  A    between atoms: C_21  and  C_22
REMARK   10  A    between atoms: C_22  and  C_23
REMARK   11  A    between atoms: C_23  and  N_24
REMARK                            x       y       z     vdW  Elec       q    Type
REMARK                         _______ _______ _______ _____ _____    ______ ____
ROOT
ATOM      1  C   UNL     1      36.988 -20.005 -19.661  0.00  0.00    +0.085 C 
ENDROOT
BRANCH   1   4
ATOM      2  O   UNL     1      37.989 -18.618 -21.359  0.00  0.00    -0.275 OA
ATOM      3  N   UNL     1      35.681 -18.468 -20.956  0.00  0.00    -0.284 N 
ATOM      4  C   UNL     1      36.969 -18.959 -20.768  0.00  0.00    +0.226 C 
ATOM      5  H   UNL     1      34.982 -18.847 -20.375  0.00  0.00    +0.155 HD
BRANCH   3   6
ATOM      6  C   UNL     1      35.258 -17.490 -21.888  0.00  0.00    +0.050 C 
ATOM      7  C   UNL     1      34.474 -15.256 -22.365  0.00  0.00    +0.055 C 
ATOM      8  C   UNL     1      34.891 -16.218 -21.447  0.00  0.00    +0.019 C 
ATOM      9  C   UNL     1      35.209 -17.798 -23.247  0.00  0.00    +0.015 C 
ATOM     10  C   UNL     1      34.425 -15.563 -23.725  0.00  0.00    +0.005 C 
ATOM     11  C   UNL     1      34.793 -16.834 -24.166  0.00  0.00    +0.001 C 
BRANCH   7  14
ATOM     12  O   UNL     1      34.471 -12.916 -22.520  0.00  0.00    -0.270 OA
ATOM     13  N   UNL     1      33.271 -13.860 -20.774  0.00  0.00    -0.301 N 
ATOM     14  C   UNL     1      34.091 -13.929 -21.907  0.00  0.00    +0.246 C 
ATOM     15  H   UNL     1      33.009 -14.702 -20.338  0.00  0.00    +0.150 HD
BRANCH  13  16
ATOM     16  C   UNL     1      32.789 -12.619 -20.212  0.00  0.00    +0.090 C 
BRANCH  16  17
ATOM     17  C   UNL     1      31.396 -12.257 -20.713  0.00  0.00    +0.021 C 
BRANCH  17  18
ATOM     18  C   UNL     1      31.023 -10.801 -20.415  0.00  0.00    +0.002 C 
ATOM     19  C   UNL     1      31.352 -10.427 -18.979  0.00  0.00    +0.000 C 
ENDBRANCH  17  18
ENDBRANCH  16  17
ENDBRANCH  13  16
ENDBRANCH   7  14
ENDBRANCH   3   6
ENDBRANCH   1   4
BRANCH   1  20
ATOM     20  C   UNL     1      35.924 -21.091 -19.819  0.00  0.00    +0.010 C 
BRANCH  20  21
ATOM     21  C   UNL     1      35.456 -21.649 -18.470  0.00  0.00    +0.002 C 
BRANCH  21  22
ATOM     22  C   UNL     1      34.163 -22.456 -18.625  0.00  0.00    +0.021 C 
BRANCH  22  23
ATOM     23  C   UNL     1      33.674 -23.044 -17.305  0.00  0.00    +0.088 C 
BRANCH  23  24
ATOM     24  N   UNL     1      32.249 -22.868 -17.161  0.00  0.00    -0.320 N 
ATOM     25  N   UNL     1      29.225 -22.525 -16.784  0.00  0.00    -0.270 NA
ATOM     26  N   UNL     1      32.156 -23.830 -14.984  0.00  0.00    -0.232 NA
ATOM     27  N   UNL     1      28.129 -23.165 -14.951  0.00  0.00    -0.307 N 
ATOM     28  N   UNL     1      30.059 -24.030 -13.754  0.00  0.00    -0.232 NA
ATOM     29  C   UNL     1      31.535 -23.251 -16.037  0.00  0.00    +0.124 C 
ATOM     30  C   UNL     1      30.170 -23.059 -15.953  0.00  0.00    +0.164 C 
ATOM     31  C   UNL     1      29.465 -23.448 -14.822  0.00  0.00    +0.125 C 
ATOM     32  C   UNL     1      28.019 -22.611 -16.140  0.00  0.00    +0.163 C 
ATOM     33  C   UNL     1      31.391 -24.178 -13.922  0.00  0.00    +0.252 C 
ATOM     34  H   UNL     1      31.756 -22.451 -17.905  0.00  0.00    +0.148 HD
ATOM     35  H   UNL     1      29.382 -22.148 -17.679  0.00  0.00    +0.126 HD
ATOM     36  H   UNL     1      27.412 -23.337 -14.299  0.00  0.00    +0.149 HD
ENDBRANCH  23  24
ENDBRANCH  22  23
ENDBRANCH  21  22
ENDBRANCH  20  21
ENDBRANCH   1  20
TORSDOF 11
ENDMDL
MODEL 8
REMARK VINA RESULT:     -10.4      3.573     12.005
REMARK  Name = 24893974
REMARK  11 active torsions:
REMARK  status: ('A' for Active; 'I' for Inactive)
REMARK    1  A    between atoms: C_1  and  C_4
REMARK    2  A    between atoms: C_1  and  C_20
REMARK    3  A    between atoms: N_3  and  C_6
REMARK    4  A    between atoms: C_7  and  C_14
REMARK    5  A    between atoms: N_13  and  C_16
REMARK    6  A    between atoms: C_16  and  C_17
REMARK    7  A    between atoms: C_17  and  C_18
REMARK    8  A    between atoms: C_20  and  C_21
REMARK    9  A    between atoms: C_21  and  C_22
REMARK   10  A    between atoms: C_22  and  C_23
REMARK   11  A    between atoms: C_23  and  N_24
REMARK                            x       y       z     vdW  Elec       q    Type
REMARK                         _______ _______ _______ _____ _____    ______ ____
ROOT
ATOM      1  C   UNL     1      35.500 -21.140 -19.202  0.00  0.00    +0.085 C 
ENDROOT
BRANCH   1   4
ATOM      2  O   UNL     1      34.535 -23.109 -18.200  0.00  0.00    -0.275 OA
ATOM      3  N   UNL     1      36.210 -21.930 -17.052  0.00  0.00    -0.284 N 
ATOM      4  C   UNL     1      35.346 -22.192 -18.111  0.00  0.00    +0.226 C 
ATOM      5  H   UNL     1      36.782 -21.134 -17.145  0.00  0.00    +0.155 HD
BRANCH   3   6
ATOM      6  C   UNL     1      36.363 -22.675 -15.859  0.00  0.00    +0.050 C 
ATOM      7  C   UNL     1      35.391 -23.817 -13.965  0.00  0.00    +0.055 C 
ATOM      8  C   UNL     1      35.239 -23.083 -15.141  0.00  0.00    +0.019 C 
ATOM      9  C   UNL     1      37.640 -23.003 -15.402  0.00  0.00    +0.015 C 
ATOM     10  C   UNL     1      36.667 -24.145 -13.507  0.00  0.00    +0.005 C 
ATOM     11  C   UNL     1      37.792 -23.738 -14.226  0.00  0.00    +0.001 C 
BRANCH   7  14
ATOM     12  O   UNL     1      34.263 -24.338 -11.977  0.00  0.00    -0.270 OA
ATOM     13  N   UNL     1      33.058 -24.512 -13.950  0.00  0.00    -0.301 N 
ATOM     14  C   UNL     1      34.219 -24.243 -13.216  0.00  0.00    +0.246 C 
ATOM     15  H   UNL     1      33.094 -24.418 -14.929  0.00  0.00    +0.150 HD
BRANCH  13  16
ATOM     16  C   UNL     1      31.810 -24.922 -13.349  0.00  0.00    +0.090 C 
BRANCH  16  17
ATOM     17  C   UNL     1      30.784 -23.795 -13.313  0.00  0.00    +0.021 C 
BRANCH  17  18
ATOM     18  C   UNL     1      30.659 -23.069 -14.655  0.00  0.00    +0.002 C 
ATOM     19  C   UNL     1      29.222 -22.658 -14.933  0.00  0.00    +0.000 C 
ENDBRANCH  17  18
ENDBRANCH  16  17
ENDBRANCH  13  16
ENDBRANCH   7  14
ENDBRANCH   3   6
ENDBRANCH   1   4
BRANCH   1  20
ATOM     20  C   UNL     1      34.177 -20.705 -19.833  0.00  0.00    +0.010 C 
BRANCH  20  21
ATOM     21  C   UNL     1      34.340 -19.484 -20.746  0.00  0.00    +0.002 C 
BRANCH  21  22
ATOM     22  C   UNL     1      35.613 -19.592 -21.591  0.00  0.00    +0.021 C 
BRANCH  22  23
ATOM     23  C   UNL     1      36.274 -18.238 -21.835  0.00  0.00    +0.088 C 
BRANCH  23  24
ATOM     24  N   UNL     1      35.580 -17.509 -22.870  0.00  0.00    -0.320 N 
ATOM     25  N   UNL     1      34.092 -15.902 -25.016  0.00  0.00    -0.270 NA
ATOM     26  N   UNL     1      34.985 -15.689 -21.454  0.00  0.00    -0.232 NA
ATOM     27  N   UNL     1      33.121 -13.933 -24.633  0.00  0.00    -0.307 N 
ATOM     28  N   UNL     1      33.705 -13.782 -22.278  0.00  0.00    -0.232 NA
ATOM     29  C   UNL     1      34.967 -16.283 -22.669  0.00  0.00    +0.124 C 
ATOM     30  C   UNL     1      34.317 -15.628 -23.696  0.00  0.00    +0.164 C 
ATOM     31  C   UNL     1      33.704 -14.401 -23.483  0.00  0.00    +0.125 C 
ATOM     32  C   UNL     1      33.373 -14.858 -25.535  0.00  0.00    +0.163 C 
ATOM     33  C   UNL     1      34.363 -14.492 -21.335  0.00  0.00    +0.252 C 
ATOM     34  H   UNL     1      35.542 -17.906 -23.770  0.00  0.00    +0.148 HD
ATOM     35  H   UNL     1      34.393 -16.702 -25.505  0.00  0.00    +0.126 HD
ATOM     36  H   UNL     1      32.624 -13.092 -24.756  0.00  0.00    +0.149 HD
ENDBRANCH  23  24
ENDBRANCH  22  23
ENDBRANCH  21  22
ENDBRANCH  20  21
ENDBRANCH   1  20
TORSDOF 11
ENDMDL
MODEL 9
REMARK VINA RESULT:     -10.3      4.193     12.077
REMARK  Name = 24893974
REMARK  11 active torsions:
REMARK  status: ('A' for Active; 'I' for Inactive)
REMARK    1  A    between atoms: C_1  and  C_4
REMARK    2  A    between atoms: C_1  and  C_20
REMARK    3  A    between atoms: N_3  and  C_6
REMARK    4  A    between atoms: C_7  and  C_14
REMARK    5  A    between atoms: N_13  and  C_16
REMARK    6  A    between atoms: C_16  and  C_17
REMARK    7  A    between atoms: C_17  and  C_18
REMARK    8  A    between atoms: C_20  and  C_21
REMARK    9  A    between atoms: C_21  and  C_22
REMARK   10  A    between atoms: C_22  and  C_23
REMARK   11  A    between atoms: C_23  and  N_24
REMARK                            x       y       z     vdW  Elec       q    Type
REMARK                         _______ _______ _______ _____ _____    ______ ____
ROOT
ATOM      1  C   UNL     1      35.060 -21.372 -19.308  0.00  0.00    +0.085 C 
ENDROOT
BRANCH   1   4
ATOM      2  O   UNL     1      33.962 -23.429 -18.697  0.00  0.00    -0.275 OA
ATOM      3  N   UNL     1      35.125 -22.211 -17.063  0.00  0.00    -0.284 N 
ATOM      4  C   UNL     1      34.646 -22.475 -18.342  0.00  0.00    +0.226 C 
ATOM      5  H   UNL     1      35.647 -21.382 -16.956  0.00  0.00    +0.155 HD
BRANCH   3   6
ATOM      6  C   UNL     1      34.953 -22.995 -15.897  0.00  0.00    +0.050 C 
ATOM      7  C   UNL     1      33.510 -23.942 -14.207  0.00  0.00    +0.055 C 
ATOM      8  C   UNL     1      33.679 -23.169 -15.355  0.00  0.00    +0.019 C 
ATOM      9  C   UNL     1      36.057 -23.594 -15.291  0.00  0.00    +0.015 C 
ATOM     10  C   UNL     1      34.614 -24.542 -13.600  0.00  0.00    +0.005 C 
ATOM     11  C   UNL     1      35.888 -24.368 -14.143  0.00  0.00    +0.001 C 
BRANCH   7  14
ATOM     12  O   UNL     1      31.879 -23.593 -12.560  0.00  0.00    -0.270 OA
ATOM     13  N   UNL     1      31.279 -24.900 -14.378  0.00  0.00    -0.301 N 
ATOM     14  C   UNL     1      32.183 -24.125 -13.641  0.00  0.00    +0.246 C 
ATOM     15  H   UNL     1      31.587 -25.292 -15.227  0.00  0.00    +0.150 HD
BRANCH  13  16
ATOM     16  C   UNL     1      29.919 -25.154 -13.961  0.00  0.00    +0.090 C 
BRANCH  16  17
ATOM     17  C   UNL     1      28.899 -24.714 -15.005  0.00  0.00    +0.021 C 
BRANCH  17  18
ATOM     18  C   UNL     1      28.983 -23.217 -15.317  0.00  0.00    +0.002 C 
ATOM     19  C   UNL     1      27.610 -22.566 -15.291  0.00  0.00    +0.000 C 
ENDBRANCH  17  18
ENDBRANCH  16  17
ENDBRANCH  13  16
ENDBRANCH   7  14
ENDBRANCH   3   6
ENDBRANCH   1   4
BRANCH   1  20
ATOM     20  C   UNL     1      33.882 -20.649 -19.962  0.00  0.00    +0.010 C 
BRANCH  20  21
ATOM     21  C   UNL     1      34.320 -19.761 -21.132  0.00  0.00    +0.002 C 
BRANCH  21  22
ATOM     22  C   UNL     1      35.690 -19.129 -20.863  0.00  0.00    +0.021 C 
BRANCH  22  23
ATOM     23  C   UNL     1      36.293 -18.482 -22.106  0.00  0.00    +0.088 C 
BRANCH  23  24
ATOM     24  N   UNL     1      35.831 -17.122 -22.252  0.00  0.00    -0.320 N 
ATOM     25  N   UNL     1      34.809 -14.256 -22.625  0.00  0.00    -0.270 NA
ATOM     26  N   UNL     1      34.542 -17.567 -24.204  0.00  0.00    -0.232 NA
ATOM     27  N   UNL     1      33.454 -13.633 -24.282  0.00  0.00    -0.307 N 
ATOM     28  N   UNL     1      33.271 -15.817 -25.334  0.00  0.00    -0.232 NA
ATOM     29  C   UNL     1      34.988 -16.700 -23.267  0.00  0.00    +0.124 C 
ATOM     30  C   UNL     1      34.577 -15.385 -23.359  0.00  0.00    +0.164 C 
ATOM     31  C   UNL     1      33.734 -14.972 -24.382  0.00  0.00    +0.125 C 
ATOM     32  C   UNL     1      34.115 -13.233 -23.216  0.00  0.00    +0.163 C 
ATOM     33  C   UNL     1      33.722 -17.079 -25.166  0.00  0.00    +0.252 C 
ATOM     34  H   UNL     1      36.133 -16.457 -21.591  0.00  0.00    +0.148 HD
ATOM     35  H   UNL     1      35.371 -14.189 -21.819  0.00  0.00    +0.126 HD
ATOM     36  H   UNL     1      32.886 -13.092 -24.875  0.00  0.00    +0.149 HD
ENDBRANCH  23  24
ENDBRANCH  22  23
ENDBRANCH  21  22
ENDBRANCH  20  21
ENDBRANCH   1  20
TORSDOF 11
ENDMDL
