MODEL 1
REMARK VINA RESULT:     -11.7      0.000      0.000
REMARK  Name = 11406590
REMARK  3 active torsions:
REMARK  status: ('A' for Active; 'I' for Inactive)
REMARK    1  A    between atoms: N_2  and  C_16
REMARK    2  A    between atoms: C_12  and  O_21
REMARK    3  A    between atoms: O_21  and  C_24
REMARK                            x       y       z     vdW  Elec       q    Type
REMARK                         _______ _______ _______ _____ _____    ______ ____
ROOT
ATOM      1  O   UNL     1      34.705 -17.140 -25.138  0.00  0.00    -0.266 OA
ATOM      2  N   UNL     1      32.432 -11.446 -21.591  0.00  0.00    -0.270 N 
ATOM      3  N   UNL     1      33.171 -13.318 -22.799  0.00  0.00    -0.322 NA
ATOM      4  N   UNL     1      33.934 -15.243 -24.031  0.00  0.00    -0.225 N 
ATOM      5  N   UNL     1      33.582 -13.131 -20.435  0.00  0.00    -0.170 NA
ATOM      6  C   UNL     1      33.095 -12.693 -21.607  0.00  0.00    +0.146 C 
ATOM      7  C   UNL     1      33.808 -14.514 -22.810  0.00  0.00    +0.204 C 
ATOM      8  C   UNL     1      34.350 -15.062 -21.657  0.00  0.00    +0.068 C 
ATOM      9  C   UNL     1      34.206 -14.324 -20.493  0.00  0.00    +0.116 C 
ATOM     10  C   UNL     1      35.029 -16.345 -21.686  0.00  0.00    +0.048 C 
ATOM     11  C   UNL     1      34.578 -16.480 -24.106  0.00  0.00    +0.289 C 
ATOM     12  C   UNL     1      35.143 -17.023 -22.833  0.00  0.00    +0.199 C 
ATOM     13  C   UNL     1      33.355 -14.642 -25.230  0.00  0.00    +0.123 C 
ATOM     14  H   UNL     1      32.358 -10.964 -20.736  0.00  0.00    +0.159 HD
ENDROOT
BRANCH   2  16
ATOM     15  O   UNL     1      32.525  -8.035 -22.892  0.00  0.00    -0.354 OA
ATOM     16  C   UNL     1      31.858 -10.846 -22.779  0.00  0.00    +0.084 C 
ATOM     17  C   UNL     1      30.869  -9.745 -22.391  0.00  0.00    +0.052 C 
ATOM     18  C   UNL     1      32.970 -10.292 -23.672  0.00  0.00    +0.052 C 
ATOM     19  C   UNL     1      31.577  -8.476 -21.922  0.00  0.00    +0.144 C 
ATOM     20  C   UNL     1      33.553  -8.998 -23.115  0.00  0.00    +0.144 C 
ENDBRANCH   2  16
BRANCH  12  21
ATOM     21  O   UNL     1      35.779 -18.245 -22.910  0.00  0.00    -0.447 OA
BRANCH  21  24
ATOM     22  F   UNL     1      38.015 -18.599 -21.344  0.00  0.00    -0.201 F 
ATOM     23  F   UNL     1      35.572 -21.432 -18.444  0.00  0.00    -0.204 F 
ATOM     24  C   UNL     1      35.728 -19.038 -21.798  0.00  0.00    +0.173 C 
ATOM     25  C   UNL     1      36.868 -19.208 -21.015  0.00  0.00    +0.177 C 
ATOM     26  C   UNL     1      34.538 -19.672 -21.455  0.00  0.00    +0.042 C 
ATOM     27  C   UNL     1      36.814 -20.018 -19.881  0.00  0.00    +0.062 C 
ATOM     28  C   UNL     1      34.484 -20.482 -20.320  0.00  0.00    +0.033 C 
ATOM     29  C   UNL     1      35.623 -20.654 -19.533  0.00  0.00    +0.143 C 
ENDBRANCH  21  24
ENDBRANCH  12  21
TORSDOF 3
ENDMDL
MODEL 2
REMARK VINA RESULT:     -10.6      3.811      8.777
REMARK  Name = 11406590
REMARK  3 active torsions:
REMARK  status: ('A' for Active; 'I' for Inactive)
REMARK    1  A    between atoms: N_2  and  C_16
REMARK    2  A    between atoms: C_12  and  O_21
REMARK    3  A    between atoms: O_21  and  C_24
REMARK                            x       y       z     vdW  Elec       q    Type
REMARK                         _______ _______ _______ _____ _____    ______ ____
ROOT
ATOM      1  O   UNL     1      33.142 -13.699 -25.650  0.00  0.00    -0.266 OA
ATOM      2  N   UNL     1      35.622 -17.707 -20.362  0.00  0.00    -0.270 N 
ATOM      3  N   UNL     1      34.805 -16.409 -22.139  0.00  0.00    -0.322 NA
ATOM      4  N   UNL     1      33.965 -15.068 -23.956  0.00  0.00    -0.225 N 
ATOM      5  N   UNL     1      34.921 -15.516 -19.906  0.00  0.00    -0.170 NA
ATOM      6  C   UNL     1      35.090 -16.482 -20.823  0.00  0.00    +0.146 C 
ATOM      7  C   UNL     1      34.295 -15.232 -22.577  0.00  0.00    +0.204 C 
ATOM      8  C   UNL     1      34.079 -14.165 -21.716  0.00  0.00    +0.068 C 
ATOM      9  C   UNL     1      34.412 -14.365 -20.386  0.00  0.00    +0.116 C 
ATOM     10  C   UNL     1      33.531 -12.912 -22.202  0.00  0.00    +0.048 C 
ATOM     11  C   UNL     1      33.437 -13.880 -24.467  0.00  0.00    +0.289 C 
ATOM     12  C   UNL     1      33.225 -12.764 -23.496  0.00  0.00    +0.199 C 
ATOM     13  C   UNL     1      34.202 -16.207 -24.839  0.00  0.00    +0.123 C 
ATOM     14  H   UNL     1      35.841 -17.794 -19.407  0.00  0.00    +0.159 HD
ENDROOT
BRANCH   2  16
ATOM     15  O   UNL     1      35.263 -21.304 -19.843  0.00  0.00    -0.354 OA
ATOM     16  C   UNL     1      35.857 -18.840 -21.235  0.00  0.00    +0.084 C 
ATOM     17  C   UNL     1      36.944 -19.742 -20.649  0.00  0.00    +0.052 C 
ATOM     18  C   UNL     1      34.555 -19.616 -21.441  0.00  0.00    +0.052 C 
ATOM     19  C   UNL     1      36.432 -20.574 -19.477  0.00  0.00    +0.144 C 
ATOM     20  C   UNL     1      34.187 -20.444 -20.214  0.00  0.00    +0.144 C 
ENDBRANCH   2  16
BRANCH  12  21
ATOM     21  O   UNL     1      32.703 -11.592 -24.003  0.00  0.00    -0.447 OA
BRANCH  21  24
ATOM     22  F   UNL     1      31.383  -9.573 -22.677  0.00  0.00    -0.201 F 
ATOM     23  F   UNL     1      35.319  -6.945 -22.699  0.00  0.00    -0.204 F 
ATOM     24  C   UNL     1      33.353 -10.435 -23.678  0.00  0.00    +0.173 C 
ATOM     25  C   UNL     1      32.672  -9.422 -23.008  0.00  0.00    +0.177 C 
ATOM     26  C   UNL     1      34.693 -10.276 -24.021  0.00  0.00    +0.042 C 
ATOM     27  C   UNL     1      33.338  -8.241 -22.676  0.00  0.00    +0.062 C 
ATOM     28  C   UNL     1      35.358  -9.095 -23.690  0.00  0.00    +0.033 C 
ATOM     29  C   UNL     1      34.680  -8.078 -23.017  0.00  0.00    +0.143 C 
ENDBRANCH  21  24
ENDBRANCH  12  21
TORSDOF 3
ENDMDL
MODEL 3
REMARK VINA RESULT:     -10.5      1.532      2.625
REMARK  Name = 11406590
REMARK  3 active torsions:
REMARK  status: ('A' for Active; 'I' for Inactive)
REMARK    1  A    between atoms: N_2  and  C_16
REMARK    2  A    between atoms: C_12  and  O_21
REMARK    3  A    between atoms: O_21  and  C_24
REMARK                            x       y       z     vdW  Elec       q    Type
REMARK                         _______ _______ _______ _____ _____    ______ ____
ROOT
ATOM      1  O   UNL     1      35.766 -17.274 -20.230  0.00  0.00    -0.266 OA
ATOM      2  N   UNL     1      33.145 -11.865 -23.978  0.00  0.00    -0.270 N 
ATOM      3  N   UNL     1      34.016 -13.634 -22.705  0.00  0.00    -0.322 NA
ATOM      4  N   UNL     1      34.909 -15.457 -21.406  0.00  0.00    -0.225 N 
ATOM      5  N   UNL     1      33.388 -13.958 -25.006  0.00  0.00    -0.170 NA
ATOM      6  C   UNL     1      33.535 -13.220 -23.894  0.00  0.00    +0.146 C 
ATOM      7  C   UNL     1      34.389 -14.935 -22.629  0.00  0.00    +0.204 C 
ATOM      8  C   UNL     1      34.280 -15.789 -23.717  0.00  0.00    +0.068 C 
ATOM      9  C   UNL     1      33.772 -15.244 -24.885  0.00  0.00    +0.116 C 
ATOM     10  C   UNL     1      34.685 -17.180 -23.618  0.00  0.00    +0.048 C 
ATOM     11  C   UNL     1      35.310 -16.787 -21.266  0.00  0.00    +0.289 C 
ATOM     12  C   UNL     1      35.172 -17.663 -22.470  0.00  0.00    +0.199 C 
ATOM     13  C   UNL     1      35.011 -14.536 -20.278  0.00  0.00    +0.123 C 
ATOM     14  H   UNL     1      32.790 -11.530 -24.832  0.00  0.00    +0.159 HD
ENDROOT
BRANCH   2  16
ATOM     15  O   UNL     1      30.994  -9.131 -22.865  0.00  0.00    -0.354 OA
ATOM     16  C   UNL     1      33.244 -10.948 -22.860  0.00  0.00    +0.084 C 
ATOM     17  C   UNL     1      33.345  -9.508 -23.363  0.00  0.00    +0.052 C 
ATOM     18  C   UNL     1      32.035 -11.121 -21.937  0.00  0.00    +0.052 C 
ATOM     19  C   UNL     1      32.003  -8.976 -23.861  0.00  0.00    +0.144 C 
ATOM     20  C   UNL     1      30.775 -10.501 -22.531  0.00  0.00    +0.144 C 
ENDBRANCH   2  16
BRANCH  12  21
ATOM     21  O   UNL     1      35.569 -18.976 -22.329  0.00  0.00    -0.447 OA
BRANCH  21  24
ATOM     22  F   UNL     1      37.081 -20.229 -20.400  0.00  0.00    -0.201 F 
ATOM     23  F   UNL     1      33.148 -21.883 -18.350  0.00  0.00    -0.204 F 
ATOM     24  C   UNL     1      34.967 -19.700 -21.338  0.00  0.00    +0.173 C 
ATOM     25  C   UNL     1      35.745 -20.328 -20.369  0.00  0.00    +0.177 C 
ATOM     26  C   UNL     1      33.580 -19.805 -21.304  0.00  0.00    +0.042 C 
ATOM     27  C   UNL     1      35.129 -21.067 -19.358  0.00  0.00    +0.062 C 
ATOM     28  C   UNL     1      32.964 -20.543 -20.293  0.00  0.00    +0.033 C 
ATOM     29  C   UNL     1      33.739 -21.173 -19.320  0.00  0.00    +0.143 C 
ENDBRANCH  21  24
ENDBRANCH  12  21
TORSDOF 3
ENDMDL
MODEL 4
REMARK VINA RESULT:      -9.9      6.360     11.257
REMARK  Name = 11406590
REMARK  3 active torsions:
REMARK  status: ('A' for Active; 'I' for Inactive)
REMARK    1  A    between atoms: N_2  and  C_16
REMARK    2  A    between atoms: C_12  and  O_21
REMARK    3  A    between atoms: O_21  and  C_24
REMARK                            x       y       z     vdW  Elec       q    Type
REMARK                         _______ _______ _______ _____ _____    ______ ____
ROOT
ATOM      1  O   UNL     1      32.659 -22.148 -19.695  0.00  0.00    -0.266 OA
ATOM      2  N   UNL     1      36.921 -22.930 -14.093  0.00  0.00    -0.270 N 
ATOM      3  N   UNL     1      35.480 -22.686 -15.929  0.00  0.00    -0.322 NA
ATOM      4  N   UNL     1      34.008 -22.432 -17.819  0.00  0.00    -0.225 N 
ATOM      5  N   UNL     1      37.764 -21.934 -16.041  0.00  0.00    -0.170 NA
ATOM      6  C   UNL     1      36.713 -22.495 -15.420  0.00  0.00    +0.146 C 
ATOM      7  C   UNL     1      35.285 -22.267 -17.203  0.00  0.00    +0.204 C 
ATOM      8  C   UNL     1      36.300 -21.674 -17.939  0.00  0.00    +0.068 C 
ATOM      9  C   UNL     1      37.524 -21.533 -17.305  0.00  0.00    +0.116 C 
ATOM     10  C   UNL     1      36.074 -21.230 -19.302  0.00  0.00    +0.048 C 
ATOM     11  C   UNL     1      33.745 -22.021 -19.128  0.00  0.00    +0.289 C 
ATOM     12  C   UNL     1      34.875 -21.388 -19.875  0.00  0.00    +0.199 C 
ATOM     13  C   UNL     1      32.958 -23.059 -17.021  0.00  0.00    +0.123 C 
ATOM     14  H   UNL     1      37.811 -22.806 -13.691  0.00  0.00    +0.159 HD
ENDROOT
BRANCH   2  16
ATOM     15  O   UNL     1      37.038 -25.496 -11.497  0.00  0.00    -0.354 OA
ATOM     16  C   UNL     1      35.881 -23.551 -13.297  0.00  0.00    +0.084 C 
ATOM     17  C   UNL     1      35.837 -25.056 -13.566  0.00  0.00    +0.052 C 
ATOM     18  C   UNL     1      36.123 -23.268 -11.813  0.00  0.00    +0.052 C 
ATOM     19  C   UNL     1      36.988 -25.796 -12.890  0.00  0.00    +0.144 C 
ATOM     20  C   UNL     1      37.265 -24.109 -11.253  0.00  0.00    +0.144 C 
ENDBRANCH   2  16
BRANCH  12  21
ATOM     21  O   UNL     1      34.613 -20.983 -21.167  0.00  0.00    -0.447 OA
BRANCH  21  24
ATOM     22  F   UNL     1      34.890 -20.177 -23.785  0.00  0.00    -0.201 F 
ATOM     23  F   UNL     1      35.630 -15.722 -22.366  0.00  0.00    -0.204 F 
ATOM     24  C   UNL     1      34.866 -19.674 -21.466  0.00  0.00    +0.173 C 
ATOM     25  C   UNL     1      35.004 -19.281 -22.796  0.00  0.00    +0.177 C 
ATOM     26  C   UNL     1      34.986 -18.741 -20.441  0.00  0.00    +0.042 C 
ATOM     27  C   UNL     1      35.263 -17.944 -23.100  0.00  0.00    +0.062 C 
ATOM     28  C   UNL     1      35.244 -17.404 -20.744  0.00  0.00    +0.033 C 
ATOM     29  C   UNL     1      35.382 -17.006 -22.074  0.00  0.00    +0.143 C 
ENDBRANCH  21  24
ENDBRANCH  12  21
TORSDOF 3
ENDMDL
MODEL 5
REMARK VINA RESULT:      -9.5      4.195      9.137
REMARK  Name = 11406590
REMARK  3 active torsions:
REMARK  status: ('A' for Active; 'I' for Inactive)
REMARK    1  A    between atoms: N_2  and  C_16
REMARK    2  A    between atoms: C_12  and  O_21
REMARK    3  A    between atoms: O_21  and  C_24
REMARK                            x       y       z     vdW  Elec       q    Type
REMARK                         _______ _______ _______ _____ _____    ______ ____
ROOT
ATOM      1  O   UNL     1      32.652 -10.632 -24.035  0.00  0.00    -0.266 OA
ATOM      2  N   UNL     1      34.833 -16.506 -20.734  0.00  0.00    -0.270 N 
ATOM      3  N   UNL     1      34.134 -14.568 -21.857  0.00  0.00    -0.322 NA
ATOM      4  N   UNL     1      33.410 -12.576 -23.003  0.00  0.00    -0.225 N 
ATOM      5  N   UNL     1      33.195 -15.168 -19.723  0.00  0.00    -0.170 NA
ATOM      6  C   UNL     1      34.013 -15.358 -20.772  0.00  0.00    +0.146 C 
ATOM      7  C   UNL     1      33.345 -13.467 -21.890  0.00  0.00    +0.204 C 
ATOM      8  C   UNL     1      32.462 -13.172 -20.861  0.00  0.00    +0.068 C 
ATOM      9  C   UNL     1      32.430 -14.061 -19.798  0.00  0.00    +0.116 C 
ATOM     10  C   UNL     1      31.624 -11.988 -20.911  0.00  0.00    +0.048 C 
ATOM     11  C   UNL     1      32.623 -11.426 -23.093  0.00  0.00    +0.289 C 
ATOM     12  C   UNL     1      31.691 -11.157 -21.957  0.00  0.00    +0.199 C 
ATOM     13  C   UNL     1      34.347 -12.911 -24.072  0.00  0.00    +0.123 C 
ATOM     14  H   UNL     1      34.770 -17.104 -19.954  0.00  0.00    +0.159 HD
ENDROOT
BRANCH   2  16
ATOM     15  O   UNL     1      35.195 -19.491 -22.807  0.00  0.00    -0.354 OA
ATOM     16  C   UNL     1      35.763 -16.844 -21.793  0.00  0.00    +0.084 C 
ATOM     17  C   UNL     1      36.586 -18.073 -21.404  0.00  0.00    +0.052 C 
ATOM     18  C   UNL     1      35.000 -17.087 -23.097  0.00  0.00    +0.052 C 
ATOM     19  C   UNL     1      35.779 -19.363 -21.513  0.00  0.00    +0.144 C 
ATOM     20  C   UNL     1      34.282 -18.432 -23.092  0.00  0.00    +0.144 C 
ENDBRANCH   2  16
BRANCH  12  21
ATOM     21  O   UNL     1      30.914 -10.020 -22.049  0.00  0.00    -0.447 OA
BRANCH  21  24
ATOM     22  F   UNL     1      30.698  -7.660 -23.448  0.00  0.00    -0.201 F 
ATOM     23  F   UNL     1      33.060  -5.385 -20.035  0.00  0.00    -0.204 F 
ATOM     24  C   UNL     1      31.448  -8.866 -21.548  0.00  0.00    +0.173 C 
ATOM     25  C   UNL     1      31.331  -7.679 -22.268  0.00  0.00    +0.177 C 
ATOM     26  C   UNL     1      32.106  -8.884 -20.322  0.00  0.00    +0.042 C 
ATOM     27  C   UNL     1      31.876  -6.502 -21.755  0.00  0.00    +0.062 C 
ATOM     28  C   UNL     1      32.651  -7.706 -19.809  0.00  0.00    +0.033 C 
ATOM     29  C   UNL     1      32.536  -6.515 -20.526  0.00  0.00    +0.143 C 
ENDBRANCH  21  24
ENDBRANCH  12  21
TORSDOF 3
ENDMDL
MODEL 6
REMARK VINA RESULT:      -9.1      2.895      5.022
REMARK  Name = 11406590
REMARK  3 active torsions:
REMARK  status: ('A' for Active; 'I' for Inactive)
REMARK    1  A    between atoms: N_2  and  C_16
REMARK    2  A    between atoms: C_12  and  O_21
REMARK    3  A    between atoms: O_21  and  C_24
REMARK                            x       y       z     vdW  Elec       q    Type
REMARK                         _______ _______ _______ _____ _____    ______ ____
ROOT
ATOM      1  O   UNL     1      31.555 -13.288 -22.861  0.00  0.00    -0.266 OA
ATOM      2  N   UNL     1      33.277  -6.456 -22.138  0.00  0.00    -0.270 N 
ATOM      3  N   UNL     1      32.672  -8.713 -22.361  0.00  0.00    -0.322 NA
ATOM      4  N   UNL     1      32.061 -11.032 -22.593  0.00  0.00    -0.225 N 
ATOM      5  N   UNL     1      34.766  -7.902 -23.230  0.00  0.00    -0.170 NA
ATOM      6  C   UNL     1      33.589  -7.754 -22.600  0.00  0.00    +0.146 C 
ATOM      7  C   UNL     1      32.976  -9.957 -22.805  0.00  0.00    +0.204 C 
ATOM      8  C   UNL     1      34.164 -10.224 -23.469  0.00  0.00    +0.068 C 
ATOM      9  C   UNL     1      35.025  -9.154 -23.653  0.00  0.00    +0.116 C 
ATOM     10  C   UNL     1      34.474 -11.563 -23.938  0.00  0.00    +0.048 C 
ATOM     11  C   UNL     1      32.318 -12.335 -23.027  0.00  0.00    +0.289 C 
ATOM     12  C   UNL     1      33.613 -12.566 -23.736  0.00  0.00    +0.199 C 
ATOM     13  C   UNL     1      30.818 -10.722 -21.892  0.00  0.00    +0.123 C 
ATOM     14  H   UNL     1      33.925  -5.733 -22.296  0.00  0.00    +0.159 HD
ENDROOT
BRANCH   2  16
ATOM     15  O   UNL     1      30.574  -4.119 -22.893  0.00  0.00    -0.354 OA
ATOM     16  C   UNL     1      32.043  -6.144 -21.444  0.00  0.00    +0.084 C 
ATOM     17  C   UNL     1      32.029  -4.673 -21.025  0.00  0.00    +0.052 C 
ATOM     18  C   UNL     1      30.846  -6.469 -22.339  0.00  0.00    +0.052 C 
ATOM     19  C   UNL     1      31.763  -3.742 -22.205  0.00  0.00    +0.144 C 
ATOM     20  C   UNL     1      30.665  -5.432 -23.443  0.00  0.00    +0.144 C 
ENDBRANCH   2  16
BRANCH  12  21
ATOM     21  O   UNL     1      33.864 -13.854 -24.163  0.00  0.00    -0.447 OA
BRANCH  21  24
ATOM     22  F   UNL     1      34.777 -16.338 -24.919  0.00  0.00    -0.201 F 
ATOM     23  F   UNL     1      35.735 -17.391 -20.405  0.00  0.00    -0.204 F 
ATOM     24  C   UNL     1      34.329 -14.735 -23.229  0.00  0.00    +0.173 C 
ATOM     25  C   UNL     1      34.788 -15.988 -23.626  0.00  0.00    +0.177 C 
ATOM     26  C   UNL     1      34.342 -14.374 -21.884  0.00  0.00    +0.042 C 
ATOM     27  C   UNL     1      35.264 -16.887 -22.670  0.00  0.00    +0.062 C 
ATOM     28  C   UNL     1      34.818 -15.272 -20.929  0.00  0.00    +0.033 C 
ATOM     29  C   UNL     1      35.279 -16.528 -21.322  0.00  0.00    +0.143 C 
ENDBRANCH  21  24
ENDBRANCH  12  21
TORSDOF 3
ENDMDL
MODEL 7
REMARK VINA RESULT:      -9.1      5.070      9.908
REMARK  Name = 11406590
REMARK  3 active torsions:
REMARK  status: ('A' for Active; 'I' for Inactive)
REMARK    1  A    between atoms: N_2  and  C_16
REMARK    2  A    between atoms: C_12  and  O_21
REMARK    3  A    between atoms: O_21  and  C_24
REMARK                            x       y       z     vdW  Elec       q    Type
REMARK                         _______ _______ _______ _____ _____    ______ ____
ROOT
ATOM      1  O   UNL     1      37.713 -18.885 -20.754  0.00  0.00    -0.266 OA
ATOM      2  N   UNL     1      33.655 -23.274 -16.955  0.00  0.00    -0.270 N 
ATOM      3  N   UNL     1      35.029 -21.829 -18.190  0.00  0.00    -0.322 NA
ATOM      4  N   UNL     1      36.433 -20.342 -19.465  0.00  0.00    -0.225 N 
ATOM      5  N   UNL     1      32.729 -22.177 -18.808  0.00  0.00    -0.170 NA
ATOM      6  C   UNL     1      33.810 -22.383 -18.038  0.00  0.00    +0.146 C 
ATOM      7  C   UNL     1      35.174 -20.974 -19.232  0.00  0.00    +0.204 C 
ATOM      8  C   UNL     1      34.124 -20.687 -20.092  0.00  0.00    +0.068 C 
ATOM      9  C   UNL     1      32.919 -21.320 -19.830  0.00  0.00    +0.116 C 
ATOM     10  C   UNL     1      34.295 -19.769 -21.202  0.00  0.00    +0.048 C 
ATOM     11  C   UNL     1      36.643 -19.452 -20.521  0.00  0.00    +0.289 C 
ATOM     12  C   UNL     1      35.477 -19.179 -21.416  0.00  0.00    +0.199 C 
ATOM     13  C   UNL     1      37.521 -20.662 -18.546  0.00  0.00    +0.123 C 
ATOM     14  H   UNL     1      32.776 -23.696 -16.815  0.00  0.00    +0.159 HD
ENDROOT
BRANCH   2  16
ATOM     15  O   UNL     1      33.713 -23.814 -13.343  0.00  0.00    -0.354 OA
ATOM     16  C   UNL     1      34.732 -23.596 -16.040  0.00  0.00    +0.084 C 
ATOM     17  C   UNL     1      34.895 -22.485 -15.002  0.00  0.00    +0.052 C 
ATOM     18  C   UNL     1      34.457 -24.940 -15.364  0.00  0.00    +0.052 C 
ATOM     19  C   UNL     1      33.798 -22.523 -13.942  0.00  0.00    +0.144 C 
ATOM     20  C   UNL     1      33.378 -24.826 -14.292  0.00  0.00    +0.144 C 
ENDBRANCH   2  16
BRANCH  12  21
ATOM     21  O   UNL     1      35.688 -18.300 -22.458  0.00  0.00    -0.447 OA
BRANCH  21  24
ATOM     22  F   UNL     1      35.043 -16.747 -24.637  0.00  0.00    -0.201 F 
ATOM     23  F   UNL     1      33.867 -13.166 -21.773  0.00  0.00    -0.204 F 
ATOM     24  C   UNL     1      35.235 -17.022 -22.288  0.00  0.00    +0.173 C 
ATOM     25  C   UNL     1      34.912 -16.248 -23.400  0.00  0.00    +0.177 C 
ATOM     26  C   UNL     1      35.099 -16.502 -21.004  0.00  0.00    +0.042 C 
ATOM     27  C   UNL     1      34.449 -14.944 -23.226  0.00  0.00    +0.062 C 
ATOM     28  C   UNL     1      34.636 -15.197 -20.830  0.00  0.00    +0.033 C 
ATOM     29  C   UNL     1      34.311 -14.419 -21.941  0.00  0.00    +0.143 C 
ENDBRANCH  21  24
ENDBRANCH  12  21
TORSDOF 3
ENDMDL
MODEL 8
REMARK VINA RESULT:      -9.1      2.161      3.587
REMARK  Name = 11406590
REMARK  3 active torsions:
REMARK  status: ('A' for Active; 'I' for Inactive)
REMARK    1  A    between atoms: N_2  and  C_16
REMARK    2  A    between atoms: C_12  and  O_21
REMARK    3  A    between atoms: O_21  and  C_24
REMARK                            x       y       z     vdW  Elec       q    Type
REMARK                         _______ _______ _______ _____ _____    ______ ____
ROOT
ATOM      1  O   UNL     1      33.495 -15.078 -19.495  0.00  0.00    -0.266 OA
ATOM      2  N   UNL     1      32.103  -9.502 -23.634  0.00  0.00    -0.270 N 
ATOM      3  N   UNL     1      32.539 -11.336 -22.237  0.00  0.00    -0.322 NA
ATOM      4  N   UNL     1      32.993 -13.223 -20.808  0.00  0.00    -0.225 N 
ATOM      5  N   UNL     1      33.611 -11.134 -24.382  0.00  0.00    -0.170 NA
ATOM      6  C   UNL     1      32.785 -10.717 -23.408  0.00  0.00    +0.146 C 
ATOM      7  C   UNL     1      33.196 -12.502 -22.024  0.00  0.00    +0.204 C 
ATOM      8  C   UNL     1      34.073 -13.026 -22.962  0.00  0.00    +0.068 C 
ATOM      9  C   UNL     1      34.243 -12.296 -24.128  0.00  0.00    +0.116 C 
ATOM     10  C   UNL     1      34.769 -14.276 -22.719  0.00  0.00    +0.048 C 
ATOM     11  C   UNL     1      33.642 -14.429 -20.532  0.00  0.00    +0.289 C 
ATOM     12  C   UNL     1      34.575 -14.947 -21.578  0.00  0.00    +0.199 C 
ATOM     13  C   UNL     1      32.065 -12.648 -19.839  0.00  0.00    +0.123 C 
ATOM     14  H   UNL     1      32.261  -9.024 -24.480  0.00  0.00    +0.159 HD
ENDROOT
BRANCH   2  16
ATOM     15  O   UNL     1      31.873  -6.170 -22.155  0.00  0.00    -0.354 OA
ATOM     16  C   UNL     1      31.179  -8.929 -22.675  0.00  0.00    +0.084 C 
ATOM     17  C   UNL     1      31.928  -8.487 -21.417  0.00  0.00    +0.052 C 
ATOM     18  C   UNL     1      30.434  -7.752 -23.309  0.00  0.00    +0.052 C 
ATOM     19  C   UNL     1      32.715  -7.198 -21.639  0.00  0.00    +0.144 C 
ATOM     20  C   UNL     1      31.320  -6.516 -23.424  0.00  0.00    +0.144 C 
ENDBRANCH   2  16
BRANCH  12  21
ATOM     21  O   UNL     1      35.214 -16.138 -21.302  0.00  0.00    -0.447 OA
BRANCH  21  24
ATOM     22  F   UNL     1      35.417 -18.751 -20.460  0.00  0.00    -0.201 F 
ATOM     23  F   UNL     1      34.381 -20.268 -24.822  0.00  0.00    -0.204 F 
ATOM     24  C   UNL     1      35.007 -17.167 -22.177  0.00  0.00    +0.173 C 
ATOM     25  C   UNL     1      35.113 -18.484 -21.737  0.00  0.00    +0.177 C 
ATOM     26  C   UNL     1      34.691 -16.892 -23.505  0.00  0.00    +0.042 C 
ATOM     27  C   UNL     1      34.901 -19.533 -22.632  0.00  0.00    +0.062 C 
ATOM     28  C   UNL     1      34.479 -17.940 -24.400  0.00  0.00    +0.033 C 
ATOM     29  C   UNL     1      34.584 -19.261 -23.963  0.00  0.00    +0.143 C 
ENDBRANCH  21  24
ENDBRANCH  12  21
TORSDOF 3
ENDMDL
MODEL 9
REMARK VINA RESULT:      -9.0      4.550      7.446
REMARK  Name = 11406590
REMARK  3 active torsions:
REMARK  status: ('A' for Active; 'I' for Inactive)
REMARK    1  A    between atoms: N_2  and  C_16
REMARK    2  A    between atoms: C_12  and  O_21
REMARK    3  A    between atoms: O_21  and  C_24
REMARK                            x       y       z     vdW  Elec       q    Type
REMARK                         _______ _______ _______ _____ _____    ______ ____
ROOT
ATOM      1  O   UNL     1      32.298 -10.219 -19.198  0.00  0.00    -0.266 OA
ATOM      2  N   UNL     1      31.494  -4.794 -23.679  0.00  0.00    -0.270 N 
ATOM      3  N   UNL     1      31.775  -6.567 -22.168  0.00  0.00    -0.322 NA
ATOM      4  N   UNL     1      32.060  -8.394 -20.623  0.00  0.00    -0.225 N 
ATOM      5  N   UNL     1      30.785  -6.932 -24.332  0.00  0.00    -0.170 NA
ATOM      6  C   UNL     1      31.343  -6.166 -23.380  0.00  0.00    +0.146 C 
ATOM      7  C   UNL     1      31.629  -7.884 -21.885  0.00  0.00    +0.204 C 
ATOM      8  C   UNL     1      31.065  -8.767 -22.795  0.00  0.00    +0.068 C 
ATOM      9  C   UNL     1      30.661  -8.233 -24.008  0.00  0.00    +0.116 C 
ATOM     10  C   UNL     1      30.916 -10.176 -22.476  0.00  0.00    +0.048 C 
ATOM     11  C   UNL     1      31.936  -9.741 -20.274  0.00  0.00    +0.289 C 
ATOM     12  C   UNL     1      31.322 -10.647 -21.292  0.00  0.00    +0.199 C 
ATOM     13  C   UNL     1      32.649  -7.443 -19.685  0.00  0.00    +0.123 C 
ATOM     14  H   UNL     1      31.189  -4.468 -24.557  0.00  0.00    +0.159 HD
ENDROOT
BRANCH   2  16
ATOM     15  O   UNL     1      30.137  -1.816 -22.058  0.00  0.00    -0.354 OA
ATOM     16  C   UNL     1      32.076  -3.846 -22.750  0.00  0.00    +0.084 C 
ATOM     17  C   UNL     1      32.091  -2.445 -23.363  0.00  0.00    +0.052 C 
ATOM     18  C   UNL     1      31.295  -3.859 -21.435  0.00  0.00    +0.052 C 
ATOM     19  C   UNL     1      30.706  -1.803 -23.365  0.00  0.00    +0.144 C 
ATOM     20  C   UNL     1      29.955  -3.142 -21.564  0.00  0.00    +0.144 C 
ENDBRANCH   2  16
BRANCH  12  21
ATOM     21  O   UNL     1      31.201 -11.977 -20.944  0.00  0.00    -0.447 OA
BRANCH  21  24
ATOM     22  F   UNL     1      32.298 -13.719 -19.118  0.00  0.00    -0.201 F 
ATOM     23  F   UNL     1      35.318 -15.304 -22.400  0.00  0.00    -0.204 F 
ATOM     24  C   UNL     1      32.226 -12.805 -21.306  0.00  0.00    +0.173 C 
ATOM     25  C   UNL     1      32.771 -13.682 -20.371  0.00  0.00    +0.177 C 
ATOM     26  C   UNL     1      32.719 -12.768 -22.607  0.00  0.00    +0.042 C 
ATOM     27  C   UNL     1      33.817 -14.527 -20.741  0.00  0.00    +0.062 C 
ATOM     28  C   UNL     1      33.765 -13.613 -22.977  0.00  0.00    +0.033 C 
ATOM     29  C   UNL     1      34.314 -14.493 -22.044  0.00  0.00    +0.143 C 
ENDBRANCH  21  24
ENDBRANCH  12  21
TORSDOF 3
ENDMDL
