MODEL 1
REMARK VINA RESULT:     -11.7      0.000      0.000
REMARK  Name = 104758
REMARK  11 active torsions:
REMARK  status: ('A' for Active; 'I' for Inactive)
REMARK    1  A    between atoms: C_2  and  N_21
REMARK    2  A    between atoms: C_3  and  C_8
REMARK    3  A    between atoms: N_7  and  CA_10
REMARK    4  A    between atoms: CA_10  and  C_12
REMARK    5  A    between atoms: CA_10  and  CB_15
REMARK    6  A    between atoms: C_12  and  O_13
REMARK    7  A    between atoms: CB_15  and  CG_16
REMARK    8  A    between atoms: CG_16  and  CD_18
REMARK    9  A    between atoms: CD_18  and  OE1_19
REMARK   10  A    between atoms: N_21  and  C_23
REMARK   11  A    between atoms: C_23  and  C_27
REMARK                            x       y       z     vdW  Elec       q    Type
REMARK                         _______ _______ _______ _____ _____    ______ ____
ROOT
ATOM      1  S   UNL     1      35.196 -21.349 -19.209  0.00  0.00    -0.068 S 
ATOM      2  C   UNL     1      34.794 -20.172 -20.386  0.00  0.00    +0.079 C 
ATOM      3  C   UNL     1      33.547 -21.629 -18.847  0.00  0.00    +0.084 C 
ATOM      4  C   UNL     1      33.433 -19.998 -20.499  0.00  0.00    +0.022 C 
ATOM      5  C   UNL     1      32.710 -20.843 -19.608  0.00  0.00    +0.013 C 
ENDROOT
BRANCH   3   8
ATOM      6  O   UNL     1      33.890 -23.618 -17.607  0.00  0.00    -0.270 OA
ATOM      7  N   UNL     1      32.015 -22.382 -17.125  0.00  0.00    -0.293 N 
ATOM      8  C   ACE A   0      33.208 -22.593 -17.850  0.00  0.00    +0.252 C 
ATOM      9  H   UNL     1      31.488 -21.575 -17.324  0.00  0.00    +0.150 HD
BRANCH   7  10
ATOM     10  CA  UNL     1      31.525 -23.284 -16.108  0.00  0.00    +0.172 C 
BRANCH  10  12
ATOM     11  OXT UNL     1      29.305 -24.272 -15.969  0.00  0.00    -0.248 OA
ATOM     12  C   UNL     1      30.014 -23.302 -16.201  0.00  0.00    +0.332 C 
BRANCH  12  13
ATOM     13  O   UNL     1      29.512 -22.086 -16.541  0.00  0.00    -0.479 OA
ATOM     14  H   UNL     1      29.210 -21.500 -15.875  0.00  0.00    +0.295 HD
ENDBRANCH  12  13
ENDBRANCH  10  12
BRANCH  10  15
ATOM     15  CB  UNL     1      32.055 -22.942 -14.710  0.00  0.00    +0.043 C 
BRANCH  15  16
ATOM     16  CG  UNL     1      31.121 -23.278 -13.540  0.00  0.00    +0.112 C 
BRANCH  16  18
ATOM     17  OE2 UNL     1      32.217 -25.290 -12.711  0.00  0.00    -0.250 OA
ATOM     18  CD  UNL     1      31.203 -24.719 -13.088  0.00  0.00    +0.314 C 
BRANCH  18  19
ATOM     19  OE1 UNL     1      30.000 -25.344 -13.189  0.00  0.00    -0.480 OA
ATOM     20  HE1 UNL     1      29.224 -24.920 -12.877  0.00  0.00    +0.295 HD
ENDBRANCH  18  19
ENDBRANCH  16  18
ENDBRANCH  15  16
ENDBRANCH  10  15
ENDBRANCH   7  10
ENDBRANCH   3   8
BRANCH   2  21
ATOM     21  N   UNL     1      35.775 -19.505 -21.109  0.00  0.00    -0.297 N 
ATOM     22  C   UNL     1      37.101 -19.270 -20.534  0.00  0.00    +0.113 C 
BRANCH  21  23
ATOM     23  C   UNL     1      35.543 -19.021 -22.453  0.00  0.00    +0.118 C 
BRANCH  23  27
ATOM     24  O   UNL     1      33.556 -15.640 -25.796  0.00  0.00    -0.209 OA
ATOM     25  N   UNL     1      34.077 -13.526 -22.429  0.00  0.00    -0.290 N 
ATOM     26  N   UNL     1      33.371 -13.633 -24.704  0.00  0.00    -0.322 NA
ATOM     27  C   UNL     1      35.161 -17.579 -22.442  0.00  0.00    -0.002 C 
ATOM     28  C   UNL     1      34.276 -15.639 -23.570  0.00  0.00    +0.108 C 
ATOM     29  C   UNL     1      34.631 -16.990 -23.591  0.00  0.00    +0.011 C 
ATOM     30  C   UNL     1      34.446 -14.873 -22.408  0.00  0.00    +0.062 C 
ATOM     31  C   UNL     1      35.332 -16.822 -21.282  0.00  0.00    -0.001 C 
ATOM     32  C   UNL     1      34.976 -15.473 -21.264  0.00  0.00    +0.015 C 
ATOM     33  C   UNL     1      33.707 -14.974 -24.776  0.00  0.00    +0.207 C 
ATOM     34  C   UNL     1      33.562 -12.993 -23.587  0.00  0.00    +0.174 C 
ATOM     35  C   UNL     1      33.184 -11.532 -23.545  0.00  0.00    +0.085 C 
ATOM     36  H   UNL     1      34.185 -12.967 -21.626  0.00  0.00    +0.154 HD
ENDBRANCH  23  27
ENDBRANCH  21  23
ENDBRANCH   2  21
TORSDOF 11
ENDMDL
MODEL 2
REMARK VINA RESULT:     -11.6      1.220      2.010
REMARK  Name = 104758
REMARK  11 active torsions:
REMARK  status: ('A' for Active; 'I' for Inactive)
REMARK    1  A    between atoms: C_2  and  N_21
REMARK    2  A    between atoms: C_3  and  C_8
REMARK    3  A    between atoms: N_7  and  CA_10
REMARK    4  A    between atoms: CA_10  and  C_12
REMARK    5  A    between atoms: CA_10  and  CB_15
REMARK    6  A    between atoms: C_12  and  O_13
REMARK    7  A    between atoms: CB_15  and  CG_16
REMARK    8  A    between atoms: CG_16  and  CD_18
REMARK    9  A    between atoms: CD_18  and  OE1_19
REMARK   10  A    between atoms: N_21  and  C_23
REMARK   11  A    between atoms: C_23  and  C_27
REMARK                            x       y       z     vdW  Elec       q    Type
REMARK                         _______ _______ _______ _____ _____    ______ ____
ROOT
ATOM      1  S   UNL     1      35.385 -21.345 -19.516  0.00  0.00    -0.068 S 
ATOM      2  C   UNL     1      34.933 -20.057 -20.549  0.00  0.00    +0.079 C 
ATOM      3  C   UNL     1      33.753 -21.660 -19.106  0.00  0.00    +0.084 C 
ATOM      4  C   UNL     1      33.568 -19.873 -20.579  0.00  0.00    +0.022 C 
ATOM      5  C   UNL     1      32.885 -20.803 -19.744  0.00  0.00    +0.013 C 
ENDROOT
BRANCH   3   8
ATOM      6  O   UNL     1      33.806 -23.912 -18.371  0.00  0.00    -0.270 OA
ATOM      7  N   UNL     1      32.702 -22.394 -17.048  0.00  0.00    -0.293 N 
ATOM      8  C   ACE A   0      33.458 -22.719 -18.195  0.00  0.00    +0.252 C 
ATOM      9  H   UNL     1      32.434 -21.455 -16.920  0.00  0.00    +0.150 HD
BRANCH   7  10
ATOM     10  CA  UNL     1      32.300 -23.360 -16.052  0.00  0.00    +0.172 C 
BRANCH  10  12
ATOM     11  OXT UNL     1      30.068 -22.524 -16.549  0.00  0.00    -0.248 OA
ATOM     12  C   UNL     1      30.793 -23.283 -15.920  0.00  0.00    +0.332 C 
BRANCH  12  13
ATOM     13  O   UNL     1      30.314 -24.195 -15.034  0.00  0.00    -0.479 OA
ATOM     14  H   UNL     1      30.389 -24.038 -14.113  0.00  0.00    +0.295 HD
ENDBRANCH  12  13
ENDBRANCH  10  12
BRANCH  10  15
ATOM     15  CB  UNL     1      33.047 -23.188 -14.724  0.00  0.00    +0.043 C 
BRANCH  15  16
ATOM     16  CG  UNL     1      34.296 -24.059 -14.541  0.00  0.00    +0.112 C 
BRANCH  16  18
ATOM     17  OE2 UNL     1      35.668 -22.339 -15.589  0.00  0.00    -0.250 OA
ATOM     18  CD  UNL     1      35.538 -23.488 -15.191  0.00  0.00    +0.314 C 
BRANCH  18  19
ATOM     19  OE1 UNL     1      36.509 -24.430 -15.327  0.00  0.00    -0.480 OA
ATOM     20  HE1 UNL     1      36.946 -24.538 -16.150  0.00  0.00    +0.295 HD
ENDBRANCH  18  19
ENDBRANCH  16  18
ENDBRANCH  15  16
ENDBRANCH  10  15
ENDBRANCH   7  10
ENDBRANCH   3   8
BRANCH   2  21
ATOM     21  N   UNL     1      35.881 -19.320 -21.248  0.00  0.00    -0.297 N 
ATOM     22  C   UNL     1      37.191 -19.035 -20.660  0.00  0.00    +0.113 C 
BRANCH  21  23
ATOM     23  C   UNL     1      35.629 -18.810 -22.579  0.00  0.00    +0.118 C 
BRANCH  23  27
ATOM     24  O   UNL     1      33.542 -15.413 -25.843  0.00  0.00    -0.209 OA
ATOM     25  N   UNL     1      33.934 -13.384 -22.408  0.00  0.00    -0.290 N 
ATOM     26  N   UNL     1      33.260 -13.450 -24.694  0.00  0.00    -0.322 NA
ATOM     27  C   UNL     1      35.187 -17.386 -22.529  0.00  0.00    -0.002 C 
ATOM     28  C   UNL     1      34.235 -15.451 -23.610  0.00  0.00    +0.108 C 
ATOM     29  C   UNL     1      34.647 -16.785 -23.667  0.00  0.00    +0.011 C 
ATOM     30  C   UNL     1      34.358 -14.715 -22.423  0.00  0.00    +0.062 C 
ATOM     31  C   UNL     1      35.313 -16.659 -21.345  0.00  0.00    -0.001 C 
ATOM     32  C   UNL     1      34.900 -15.327 -21.290  0.00  0.00    +0.015 C 
ATOM     33  C   UNL     1      33.653 -14.773 -24.802  0.00  0.00    +0.207 C 
ATOM     34  C   UNL     1      33.411 -12.837 -23.556  0.00  0.00    +0.174 C 
ATOM     35  C   UNL     1      32.971 -11.395 -23.475  0.00  0.00    +0.085 C 
ATOM     36  H   UNL     1      34.009 -12.846 -21.588  0.00  0.00    +0.154 HD
ENDBRANCH  23  27
ENDBRANCH  21  23
ENDBRANCH   2  21
TORSDOF 11
ENDMDL
MODEL 3
REMARK VINA RESULT:     -10.9      2.207      2.823
REMARK  Name = 104758
REMARK  11 active torsions:
REMARK  status: ('A' for Active; 'I' for Inactive)
REMARK    1  A    between atoms: C_2  and  N_21
REMARK    2  A    between atoms: C_3  and  C_8
REMARK    3  A    between atoms: N_7  and  CA_10
REMARK    4  A    between atoms: CA_10  and  C_12
REMARK    5  A    between atoms: CA_10  and  CB_15
REMARK    6  A    between atoms: C_12  and  O_13
REMARK    7  A    between atoms: CB_15  and  CG_16
REMARK    8  A    between atoms: CG_16  and  CD_18
REMARK    9  A    between atoms: CD_18  and  OE1_19
REMARK   10  A    between atoms: N_21  and  C_23
REMARK   11  A    between atoms: C_23  and  C_27
REMARK                            x       y       z     vdW  Elec       q    Type
REMARK                         _______ _______ _______ _____ _____    ______ ____
ROOT
ATOM      1  S   UNL     1      35.393 -21.298 -19.835  0.00  0.00    -0.068 S 
ATOM      2  C   UNL     1      34.467 -20.137 -20.687  0.00  0.00    +0.079 C 
ATOM      3  C   UNL     1      34.033 -21.791 -18.920  0.00  0.00    +0.084 C 
ATOM      4  C   UNL     1      33.151 -20.127 -20.281  0.00  0.00    +0.022 C 
ATOM      5  C   UNL     1      32.900 -21.086 -19.258  0.00  0.00    +0.013 C 
ENDROOT
BRANCH   3   8
ATOM      6  O   UNL     1      33.801 -24.007 -18.115  0.00  0.00    -0.270 OA
ATOM      7  N   UNL     1      34.784 -22.473 -16.718  0.00  0.00    -0.293 N 
ATOM      8  C   ACE A   0      34.188 -22.825 -17.948  0.00  0.00    +0.252 C 
ATOM      9  H   UNL     1      35.083 -21.542 -16.597  0.00  0.00    +0.150 HD
BRANCH   7  10
ATOM     10  CA  UNL     1      34.980 -23.400 -15.627  0.00  0.00    +0.172 C 
BRANCH  10  12
ATOM     11  OXT UNL     1      32.617 -23.211 -15.071  0.00  0.00    -0.248 OA
ATOM     12  C   UNL     1      33.783 -23.285 -14.706  0.00  0.00    +0.332 C 
BRANCH  12  13
ATOM     13  O   UNL     1      34.146 -23.310 -13.397  0.00  0.00    -0.479 OA
ATOM     14  H   UNL     1      34.939 -23.737 -13.138  0.00  0.00    +0.295 HD
ENDBRANCH  12  13
ENDBRANCH  10  12
BRANCH  10  15
ATOM     15  CB  UNL     1      36.326 -23.204 -14.919  0.00  0.00    +0.043 C 
BRANCH  15  16
ATOM     16  CG  UNL     1      37.189 -24.463 -14.763  0.00  0.00    +0.112 C 
BRANCH  16  18
ATOM     17  OE2 UNL     1      36.152 -26.584 -15.366  0.00  0.00    -0.250 OA
ATOM     18  CD  UNL     1      36.389 -25.726 -14.528  0.00  0.00    +0.314 C 
BRANCH  18  19
ATOM     19  OE1 UNL     1      35.914 -25.787 -13.256  0.00  0.00    -0.480 OA
ATOM     20  HE1 UNL     1      35.589 -25.012 -12.839  0.00  0.00    +0.295 HD
ENDBRANCH  18  19
ENDBRANCH  16  18
ENDBRANCH  15  16
ENDBRANCH  10  15
ENDBRANCH   7  10
ENDBRANCH   3   8
BRANCH   2  21
ATOM     21  N   UNL     1      35.037 -19.329 -21.663  0.00  0.00    -0.297 N 
ATOM     22  C   UNL     1      34.711 -19.520 -23.077  0.00  0.00    +0.113 C 
BRANCH  21  23
ATOM     23  C   UNL     1      35.963 -18.266 -21.336  0.00  0.00    +0.118 C 
BRANCH  23  27
ATOM     24  O   UNL     1      34.199 -15.515 -25.321  0.00  0.00    -0.209 OA
ATOM     25  N   UNL     1      33.562 -13.172 -22.131  0.00  0.00    -0.290 N 
ATOM     26  N   UNL     1      33.416 -13.531 -24.483  0.00  0.00    -0.322 NA
ATOM     27  C   UNL     1      35.334 -16.929 -21.540  0.00  0.00    -0.002 C 
ATOM     28  C   UNL     1      34.390 -15.260 -23.004  0.00  0.00    +0.108 C 
ATOM     29  C   UNL     1      34.978 -16.514 -22.824  0.00  0.00    +0.011 C 
ATOM     30  C   UNL     1      34.154 -14.418 -21.908  0.00  0.00    +0.062 C 
ATOM     31  C   UNL     1      35.102 -16.095 -20.445  0.00  0.00    -0.001 C 
ATOM     32  C   UNL     1      34.513 -14.843 -20.627  0.00  0.00    +0.015 C 
ATOM     33  C   UNL     1      33.996 -14.781 -24.358  0.00  0.00    +0.207 C 
ATOM     34  C   UNL     1      33.233 -12.810 -23.416  0.00  0.00    +0.174 C 
ATOM     35  C   UNL     1      32.598 -11.451 -23.590  0.00  0.00    +0.085 C 
ATOM     36  H   UNL     1      33.385 -12.562 -21.379  0.00  0.00    +0.154 HD
ENDBRANCH  23  27
ENDBRANCH  21  23
ENDBRANCH   2  21
TORSDOF 11
ENDMDL
MODEL 4
REMARK VINA RESULT:     -10.9      1.544      2.221
REMARK  Name = 104758
REMARK  11 active torsions:
REMARK  status: ('A' for Active; 'I' for Inactive)
REMARK    1  A    between atoms: C_2  and  N_21
REMARK    2  A    between atoms: C_3  and  C_8
REMARK    3  A    between atoms: N_7  and  CA_10
REMARK    4  A    between atoms: CA_10  and  C_12
REMARK    5  A    between atoms: CA_10  and  CB_15
REMARK    6  A    between atoms: C_12  and  O_13
REMARK    7  A    between atoms: CB_15  and  CG_16
REMARK    8  A    between atoms: CG_16  and  CD_18
REMARK    9  A    between atoms: CD_18  and  OE1_19
REMARK   10  A    between atoms: N_21  and  C_23
REMARK   11  A    between atoms: C_23  and  C_27
REMARK                            x       y       z     vdW  Elec       q    Type
REMARK                         _______ _______ _______ _____ _____    ______ ____
ROOT
ATOM      1  S   UNL     1      35.312 -21.263 -19.502  0.00  0.00    -0.068 S 
ATOM      2  C   UNL     1      34.815 -20.041 -20.593  0.00  0.00    +0.079 C 
ATOM      3  C   UNL     1      33.700 -21.549 -19.002  0.00  0.00    +0.084 C 
ATOM      4  C   UNL     1      33.450 -19.856 -20.574  0.00  0.00    +0.022 C 
ATOM      5  C   UNL     1      32.804 -20.730 -19.653  0.00  0.00    +0.013 C 
ENDROOT
BRANCH   3   8
ATOM      6  O   UNL     1      34.143 -23.583 -17.870  0.00  0.00    -0.270 OA
ATOM      7  N   UNL     1      32.322 -22.364 -17.181  0.00  0.00    -0.293 N 
ATOM      8  C   ACE A   0      33.446 -22.549 -18.015  0.00  0.00    +0.252 C 
ATOM      9  H   UNL     1      31.782 -21.549 -17.304  0.00  0.00    +0.150 HD
BRANCH   7  10
ATOM     10  CA  UNL     1      31.919 -23.302 -16.158  0.00  0.00    +0.172 C 
BRANCH  10  12
ATOM     11  OXT UNL     1      29.694 -22.437 -16.636  0.00  0.00    -0.248 OA
ATOM     12  C   UNL     1      30.412 -23.219 -16.028  0.00  0.00    +0.332 C 
BRANCH  12  13
ATOM     13  O   UNL     1      29.926 -24.154 -15.170  0.00  0.00    -0.479 OA
ATOM     14  H   UNL     1      29.303 -24.786 -15.470  0.00  0.00    +0.295 HD
ENDBRANCH  12  13
ENDBRANCH  10  12
BRANCH  10  15
ATOM     15  CB  UNL     1      32.667 -23.092 -14.836  0.00  0.00    +0.043 C 
BRANCH  15  16
ATOM     16  CG  UNL     1      33.737 -24.139 -14.500  0.00  0.00    +0.112 C 
BRANCH  16  18
ATOM     17  OE2 UNL     1      33.879 -24.544 -12.101  0.00  0.00    -0.250 OA
ATOM     18  CD  UNL     1      34.311 -23.998 -13.107  0.00  0.00    +0.314 C 
BRANCH  18  19
ATOM     19  OE1 UNL     1      35.367 -23.142 -13.085  0.00  0.00    -0.480 OA
ATOM     20  HE1 UNL     1      36.039 -23.243 -12.439  0.00  0.00    +0.295 HD
ENDBRANCH  18  19
ENDBRANCH  16  18
ENDBRANCH  15  16
ENDBRANCH  10  15
ENDBRANCH   7  10
ENDBRANCH   3   8
BRANCH   2  21
ATOM     21  N   UNL     1      35.730 -19.352 -21.377  0.00  0.00    -0.297 N 
ATOM     22  C   UNL     1      36.948 -18.789 -20.789  0.00  0.00    +0.113 C 
BRANCH  21  23
ATOM     23  C   UNL     1      35.536 -19.162 -22.798  0.00  0.00    +0.118 C 
BRANCH  23  27
ATOM     24  O   UNL     1      34.878 -14.780 -20.167  0.00  0.00    -0.209 OA
ATOM     25  N   UNL     1      33.731 -13.883 -23.902  0.00  0.00    -0.290 N 
ATOM     26  N   UNL     1      34.073 -13.218 -21.639  0.00  0.00    -0.322 NA
ATOM     27  C   UNL     1      35.061 -17.779 -23.092  0.00  0.00    -0.002 C 
ATOM     28  C   UNL     1      34.577 -15.531 -22.361  0.00  0.00    +0.108 C 
ATOM     29  C   UNL     1      35.023 -16.824 -22.075  0.00  0.00    +0.011 C 
ATOM     30  C   UNL     1      34.170 -15.186 -23.658  0.00  0.00    +0.062 C 
ATOM     31  C   UNL     1      34.657 -17.442 -24.385  0.00  0.00    -0.001 C 
ATOM     32  C   UNL     1      34.212 -16.150 -24.669  0.00  0.00    +0.015 C 
ATOM     33  C   UNL     1      34.522 -14.484 -21.304  0.00  0.00    +0.207 C 
ATOM     34  C   UNL     1      33.711 -12.980 -22.866  0.00  0.00    +0.174 C 
ATOM     35  C   UNL     1      33.226 -11.589 -23.194  0.00  0.00    +0.085 C 
ATOM     36  H   UNL     1      33.441 -13.615 -24.804  0.00  0.00    +0.154 HD
ENDBRANCH  23  27
ENDBRANCH  21  23
ENDBRANCH   2  21
TORSDOF 11
ENDMDL
MODEL 5
REMARK VINA RESULT:     -10.8      4.439      5.696
REMARK  Name = 104758
REMARK  11 active torsions:
REMARK  status: ('A' for Active; 'I' for Inactive)
REMARK    1  A    between atoms: C_2  and  N_21
REMARK    2  A    between atoms: C_3  and  C_8
REMARK    3  A    between atoms: N_7  and  CA_10
REMARK    4  A    between atoms: CA_10  and  C_12
REMARK    5  A    between atoms: CA_10  and  CB_15
REMARK    6  A    between atoms: C_12  and  O_13
REMARK    7  A    between atoms: CB_15  and  CG_16
REMARK    8  A    between atoms: CG_16  and  CD_18
REMARK    9  A    between atoms: CD_18  and  OE1_19
REMARK   10  A    between atoms: N_21  and  C_23
REMARK   11  A    between atoms: C_23  and  C_27
REMARK                            x       y       z     vdW  Elec       q    Type
REMARK                         _______ _______ _______ _____ _____    ______ ____
ROOT
ATOM      1  S   UNL     1      34.775 -22.743 -16.887  0.00  0.00    -0.068 S 
ATOM      2  C   UNL     1      35.562 -21.722 -18.015  0.00  0.00    +0.079 C 
ATOM      3  C   UNL     1      36.072 -22.608 -15.778  0.00  0.00    +0.084 C 
ATOM      4  C   UNL     1      36.786 -21.290 -17.553  0.00  0.00    +0.022 C 
ATOM      5  C   UNL     1      37.081 -21.803 -16.257  0.00  0.00    +0.013 C 
ENDROOT
BRANCH   3   8
ATOM      6  O   UNL     1      34.918 -23.597 -13.960  0.00  0.00    -0.270 OA
ATOM      7  N   UNL     1      37.213 -23.639 -13.903  0.00  0.00    -0.293 N 
ATOM      8  C   ACE A   0      35.995 -23.301 -14.532  0.00  0.00    +0.252 C 
ATOM      9  H   UNL     1      38.053 -23.401 -14.360  0.00  0.00    +0.150 HD
BRANCH   7  10
ATOM     10  CA  UNL     1      37.298 -24.312 -12.627  0.00  0.00    +0.172 C 
BRANCH  10  12
ATOM     11  OXT UNL     1      37.093 -22.409 -11.123  0.00  0.00    -0.248 OA
ATOM     12  C   UNL     1      37.777 -23.301 -11.606  0.00  0.00    +0.332 C 
BRANCH  12  13
ATOM     13  O   UNL     1      39.068 -23.520 -11.244  0.00  0.00    -0.479 OA
ATOM     14  H   UNL     1      39.353 -24.384 -11.021  0.00  0.00    +0.295 HD
ENDBRANCH  12  13
ENDBRANCH  10  12
BRANCH  10  15
ATOM     15  CB  UNL     1      38.151 -25.585 -12.686  0.00  0.00    +0.043 C 
BRANCH  15  16
ATOM     16  CG  UNL     1      38.643 -25.997 -14.079  0.00  0.00    +0.112 C 
BRANCH  16  18
ATOM     17  OE2 UNL     1      40.736 -24.813 -13.683  0.00  0.00    -0.250 OA
ATOM     18  CD  UNL     1      40.058 -25.554 -14.381  0.00  0.00    +0.314 C 
BRANCH  18  19
ATOM     19  OE1 UNL     1      40.494 -26.050 -15.569  0.00  0.00    -0.480 OA
ATOM     20  HE1 UNL     1      39.909 -26.097 -16.301  0.00  0.00    +0.295 HD
ENDBRANCH  18  19
ENDBRANCH  16  18
ENDBRANCH  15  16
ENDBRANCH  10  15
ENDBRANCH   7  10
ENDBRANCH   3   8
BRANCH   2  21
ATOM     21  N   UNL     1      34.981 -21.406 -19.236  0.00  0.00    -0.297 N 
ATOM     22  C   UNL     1      33.550 -21.113 -19.331  0.00  0.00    +0.113 C 
BRANCH  21  23
ATOM     23  C   UNL     1      35.750 -21.343 -20.459  0.00  0.00    +0.118 C 
BRANCH  23  27
ATOM     24  O   UNL     1      33.606 -19.542 -24.785  0.00  0.00    -0.209 OA
ATOM     25  N   UNL     1      35.131 -16.292 -23.000  0.00  0.00    -0.290 N 
ATOM     26  N   UNL     1      33.949 -17.276 -24.822  0.00  0.00    -0.322 NA
ATOM     27  C   UNL     1      35.591 -20.016 -21.122  0.00  0.00    -0.002 C 
ATOM     28  C   UNL     1      34.775 -18.675 -22.955  0.00  0.00    +0.108 C 
ATOM     29  C   UNL     1      34.920 -19.923 -22.342  0.00  0.00    +0.011 C 
ATOM     30  C   UNL     1      35.297 -17.520 -22.355  0.00  0.00    +0.062 C 
ATOM     31  C   UNL     1      36.113 -18.870 -20.520  0.00  0.00    -0.001 C 
ATOM     32  C   UNL     1      35.967 -17.625 -21.134  0.00  0.00    +0.015 C 
ATOM     33  C   UNL     1      34.065 -18.534 -24.256  0.00  0.00    +0.207 C 
ATOM     34  C   UNL     1      34.464 -16.254 -24.201  0.00  0.00    +0.174 C 
ATOM     35  C   UNL     1      34.318 -14.897 -24.847  0.00  0.00    +0.085 C 
ATOM     36  H   UNL     1      35.487 -15.467 -22.600  0.00  0.00    +0.154 HD
ENDBRANCH  23  27
ENDBRANCH  21  23
ENDBRANCH   2  21
TORSDOF 11
ENDMDL
MODEL 6
REMARK VINA RESULT:     -10.8      3.636      4.747
REMARK  Name = 104758
REMARK  11 active torsions:
REMARK  status: ('A' for Active; 'I' for Inactive)
REMARK    1  A    between atoms: C_2  and  N_21
REMARK    2  A    between atoms: C_3  and  C_8
REMARK    3  A    between atoms: N_7  and  CA_10
REMARK    4  A    between atoms: CA_10  and  C_12
REMARK    5  A    between atoms: CA_10  and  CB_15
REMARK    6  A    between atoms: C_12  and  O_13
REMARK    7  A    between atoms: CB_15  and  CG_16
REMARK    8  A    between atoms: CG_16  and  CD_18
REMARK    9  A    between atoms: CD_18  and  OE1_19
REMARK   10  A    between atoms: N_21  and  C_23
REMARK   11  A    between atoms: C_23  and  C_27
REMARK                            x       y       z     vdW  Elec       q    Type
REMARK                         _______ _______ _______ _____ _____    ______ ____
ROOT
ATOM      1  S   UNL     1      36.406 -21.675 -17.663  0.00  0.00    -0.068 S 
ATOM      2  C   UNL     1      34.914 -21.615 -18.501  0.00  0.00    +0.079 C 
ATOM      3  C   UNL     1      35.758 -22.722 -16.474  0.00  0.00    +0.084 C 
ATOM      4  C   UNL     1      33.945 -22.376 -17.886  0.00  0.00    +0.022 C 
ATOM      5  C   UNL     1      34.434 -23.018 -16.712  0.00  0.00    +0.013 C 
ENDROOT
BRANCH   3   8
ATOM      6  O   UNL     1      37.466 -22.449 -14.856  0.00  0.00    -0.270 OA
ATOM      7  N   UNL     1      36.448 -24.504 -14.981  0.00  0.00    -0.293 N 
ATOM      8  C   ACE A   0      36.597 -23.166 -15.408  0.00  0.00    +0.252 C 
ATOM      9  H   UNL     1      35.764 -25.058 -15.421  0.00  0.00    +0.150 HD
BRANCH   7  10
ATOM     10  CA  UNL     1      37.245 -25.105 -13.936  0.00  0.00    +0.172 C 
BRANCH  10  12
ATOM     11  OXT UNL     1      38.938 -26.848 -14.091  0.00  0.00    -0.248 OA
ATOM     12  C   UNL     1      37.914 -26.333 -14.519  0.00  0.00    +0.332 C 
BRANCH  12  13
ATOM     13  O   UNL     1      37.217 -26.839 -15.570  0.00  0.00    -0.479 OA
ATOM     14  H   UNL     1      36.715 -26.269 -16.119  0.00  0.00    +0.295 HD
ENDBRANCH  12  13
ENDBRANCH  10  12
BRANCH  10  15
ATOM     15  CB  UNL     1      36.437 -25.386 -12.664  0.00  0.00    +0.043 C 
BRANCH  15  16
ATOM     16  CG  UNL     1      36.840 -24.578 -11.423  0.00  0.00    +0.112 C 
BRANCH  16  18
ATOM     17  OE2 UNL     1      35.593 -24.584  -9.330  0.00  0.00    -0.250 OA
ATOM     18  CD  UNL     1      35.683 -24.254 -10.504  0.00  0.00    +0.314 C 
BRANCH  18  19
ATOM     19  OE1 UNL     1      34.704 -23.570 -11.154  0.00  0.00    -0.480 OA
ATOM     20  HE1 UNL     1      34.908 -23.082 -11.928  0.00  0.00    +0.295 HD
ENDBRANCH  18  19
ENDBRANCH  16  18
ENDBRANCH  15  16
ENDBRANCH  10  15
ENDBRANCH   7  10
ENDBRANCH   3   8
BRANCH   2  21
ATOM     21  N   UNL     1      34.763 -20.866 -19.661  0.00  0.00    -0.297 N 
ATOM     22  C   UNL     1      33.432 -20.516 -20.159  0.00  0.00    +0.113 C 
BRANCH  21  23
ATOM     23  C   UNL     1      35.898 -20.392 -20.423  0.00  0.00    +0.118 C 
BRANCH  23  27
ATOM     24  O   UNL     1      34.930 -15.365 -19.833  0.00  0.00    -0.209 OA
ATOM     25  N   UNL     1      34.431 -16.024 -23.756  0.00  0.00    -0.290 N 
ATOM     26  N   UNL     1      34.415 -14.525 -21.902  0.00  0.00    -0.322 NA
ATOM     27  C   UNL     1      35.512 -19.250 -21.301  0.00  0.00    -0.002 C 
ATOM     28  C   UNL     1      34.972 -16.915 -21.583  0.00  0.00    +0.108 C 
ATOM     29  C   UNL     1      35.333 -17.979 -20.752  0.00  0.00    +0.011 C 
ATOM     30  C   UNL     1      34.790 -17.113 -22.959  0.00  0.00    +0.062 C 
ATOM     31  C   UNL     1      35.333 -19.454 -22.670  0.00  0.00    -0.001 C 
ATOM     32  C   UNL     1      34.973 -18.389 -23.498  0.00  0.00    +0.015 C 
ATOM     33  C   UNL     1      34.771 -15.544 -21.037  0.00  0.00    +0.207 C 
ATOM     34  C   UNL     1      34.264 -14.793 -23.166  0.00  0.00    +0.174 C 
ATOM     35  C   UNL     1      33.874 -13.656 -24.081  0.00  0.00    +0.085 C 
ATOM     36  H   UNL     1      34.298 -16.136 -24.725  0.00  0.00    +0.154 HD
ENDBRANCH  23  27
ENDBRANCH  21  23
ENDBRANCH   2  21
TORSDOF 11
ENDMDL
MODEL 7
REMARK VINA RESULT:     -10.7      3.602     10.550
REMARK  Name = 104758
REMARK  11 active torsions:
REMARK  status: ('A' for Active; 'I' for Inactive)
REMARK    1  A    between atoms: C_2  and  N_21
REMARK    2  A    between atoms: C_3  and  C_8
REMARK    3  A    between atoms: N_7  and  CA_10
REMARK    4  A    between atoms: CA_10  and  C_12
REMARK    5  A    between atoms: CA_10  and  CB_15
REMARK    6  A    between atoms: C_12  and  O_13
REMARK    7  A    between atoms: CB_15  and  CG_16
REMARK    8  A    between atoms: CG_16  and  CD_18
REMARK    9  A    between atoms: CD_18  and  OE1_19
REMARK   10  A    between atoms: N_21  and  C_23
REMARK   11  A    between atoms: C_23  and  C_27
REMARK                            x       y       z     vdW  Elec       q    Type
REMARK                         _______ _______ _______ _____ _____    ______ ____
ROOT
ATOM      1  S   UNL     1      34.699 -15.485 -22.216  0.00  0.00    -0.068 S 
ATOM      2  C   UNL     1      34.781 -16.769 -23.346  0.00  0.00    +0.079 C 
ATOM      3  C   UNL     1      33.964 -14.449 -23.364  0.00  0.00    +0.084 C 
ATOM      4  C   UNL     1      34.260 -16.413 -24.571  0.00  0.00    +0.022 C 
ATOM      5  C   UNL     1      33.787 -15.069 -24.581  0.00  0.00    +0.013 C 
ENDROOT
BRANCH   3   8
ATOM      6  O   UNL     1      34.125 -12.089 -23.499  0.00  0.00    -0.270 OA
ATOM      7  N   UNL     1      32.693 -12.964 -21.931  0.00  0.00    -0.293 N 
ATOM      8  C   ACE A   0      33.625 -13.117 -22.980  0.00  0.00    +0.252 C 
ATOM      9  H   UNL     1      32.308 -13.776 -21.530  0.00  0.00    +0.150 HD
BRANCH   7  10
ATOM     10  CA  UNL     1      32.274 -11.682 -21.411  0.00  0.00    +0.172 C 
BRANCH  10  12
ATOM     11  OXT UNL     1      31.691 -10.951 -19.163  0.00  0.00    -0.248 OA
ATOM     12  C   UNL     1      32.055 -11.840 -19.921  0.00  0.00    +0.332 C 
BRANCH  12  13
ATOM     13  O   UNL     1      32.274 -13.116 -19.509  0.00  0.00    -0.479 OA
ATOM     14  H   UNL     1      32.219 -13.823 -20.122  0.00  0.00    +0.295 HD
ENDBRANCH  12  13
ENDBRANCH  10  12
BRANCH  10  15
ATOM     15  CB  UNL     1      31.063 -11.109 -22.157  0.00  0.00    +0.043 C 
BRANCH  15  16
ATOM     16  CG  UNL     1      31.176  -9.641 -22.589  0.00  0.00    +0.112 C 
BRANCH  16  18
ATOM     17  OE2 UNL     1      32.904  -8.392 -21.409  0.00  0.00    -0.250 OA
ATOM     18  CD  UNL     1      32.553  -9.048 -22.379  0.00  0.00    +0.314 C 
BRANCH  18  19
ATOM     19  OE1 UNL     1      33.371  -9.297 -23.435  0.00  0.00    -0.480 OA
ATOM     20  HE1 UNL     1      34.187  -8.843 -23.513  0.00  0.00    +0.295 HD
ENDBRANCH  18  19
ENDBRANCH  16  18
ENDBRANCH  15  16
ENDBRANCH  10  15
ENDBRANCH   7  10
ENDBRANCH   3   8
BRANCH   2  21
ATOM     21  N   UNL     1      35.322 -18.002 -23.006  0.00  0.00    -0.297 N 
ATOM     22  C   UNL     1      34.854 -19.230 -23.651  0.00  0.00    +0.113 C 
BRANCH  21  23
ATOM     23  C   UNL     1      36.367 -18.135 -22.015  0.00  0.00    +0.118 C 
BRANCH  23  27
ATOM     24  O   UNL     1      32.086 -20.442 -20.310  0.00  0.00    -0.209 OA
ATOM     25  N   UNL     1      35.044 -22.153 -18.214  0.00  0.00    -0.290 N 
ATOM     26  N   UNL     1      32.722 -21.962 -18.717  0.00  0.00    -0.322 NA
ATOM     27  C   UNL     1      36.025 -19.188 -21.016  0.00  0.00    -0.002 C 
ATOM     28  C   UNL     1      34.384 -20.551 -19.889  0.00  0.00    +0.108 C 
ATOM     29  C   UNL     1      34.694 -19.563 -20.826  0.00  0.00    +0.011 C 
ATOM     30  C   UNL     1      35.396 -21.169 -19.140  0.00  0.00    +0.062 C 
ATOM     31  C   UNL     1      37.037 -19.799 -20.274  0.00  0.00    -0.001 C 
ATOM     32  C   UNL     1      36.725 -20.787 -19.338  0.00  0.00    +0.015 C 
ATOM     33  C   UNL     1      32.976 -20.978 -19.657  0.00  0.00    +0.207 C 
ATOM     34  C   UNL     1      33.718 -22.484 -18.063  0.00  0.00    +0.174 C 
ATOM     35  C   UNL     1      33.403 -23.554 -17.045  0.00  0.00    +0.085 C 
ATOM     36  H   UNL     1      35.735 -22.602 -17.676  0.00  0.00    +0.154 HD
ENDBRANCH  23  27
ENDBRANCH  21  23
ENDBRANCH   2  21
TORSDOF 11
ENDMDL
MODEL 8
REMARK VINA RESULT:     -10.6      3.513     10.593
REMARK  Name = 104758
REMARK  11 active torsions:
REMARK  status: ('A' for Active; 'I' for Inactive)
REMARK    1  A    between atoms: C_2  and  N_21
REMARK    2  A    between atoms: C_3  and  C_8
REMARK    3  A    between atoms: N_7  and  CA_10
REMARK    4  A    between atoms: CA_10  and  C_12
REMARK    5  A    between atoms: CA_10  and  CB_15
REMARK    6  A    between atoms: C_12  and  O_13
REMARK    7  A    between atoms: CB_15  and  CG_16
REMARK    8  A    between atoms: CG_16  and  CD_18
REMARK    9  A    between atoms: CD_18  and  OE1_19
REMARK   10  A    between atoms: N_21  and  C_23
REMARK   11  A    between atoms: C_23  and  C_27
REMARK                            x       y       z     vdW  Elec       q    Type
REMARK                         _______ _______ _______ _____ _____    ______ ____
ROOT
ATOM      1  S   UNL     1      34.674 -16.083 -22.080  0.00  0.00    -0.068 S 
ATOM      2  C   UNL     1      34.798 -17.303 -23.276  0.00  0.00    +0.079 C 
ATOM      3  C   UNL     1      34.123 -14.939 -23.228  0.00  0.00    +0.084 C 
ATOM      4  C   UNL     1      34.428 -16.845 -24.521  0.00  0.00    +0.022 C 
ATOM      5  C   UNL     1      34.037 -15.476 -24.493  0.00  0.00    +0.013 C 
ENDROOT
BRANCH   3   8
ATOM      6  O   UNL     1      34.452 -12.593 -23.175  0.00  0.00    -0.270 OA
ATOM      7  N   UNL     1      32.774 -13.456 -21.865  0.00  0.00    -0.293 N 
ATOM      8  C   ACE A   0      33.823 -13.612 -22.797  0.00  0.00    +0.252 C 
ATOM      9  H   UNL     1      32.288 -14.261 -21.574  0.00  0.00    +0.150 HD
BRANCH   7  10
ATOM     10  CA  UNL     1      32.375 -12.181 -21.313  0.00  0.00    +0.172 C 
BRANCH  10  12
ATOM     11  OXT UNL     1      31.998 -11.458 -19.019  0.00  0.00    -0.248 OA
ATOM     12  C   UNL     1      32.211 -12.360 -19.818  0.00  0.00    +0.332 C 
BRANCH  12  13
ATOM     13  O   UNL     1      32.290 -13.666 -19.452  0.00  0.00    -0.479 OA
ATOM     14  H   UNL     1      31.802 -13.977 -18.715  0.00  0.00    +0.295 HD
ENDBRANCH  12  13
ENDBRANCH  10  12
BRANCH  10  15
ATOM     15  CB  UNL     1      31.137 -11.599 -22.005  0.00  0.00    +0.043 C 
BRANCH  15  16
ATOM     16  CG  UNL     1      31.215 -10.112 -22.377  0.00  0.00    +0.112 C 
BRANCH  16  18
ATOM     17  OE2 UNL     1      33.300  -8.864 -22.555  0.00  0.00    -0.250 OA
ATOM     18  CD  UNL     1      32.534  -9.708 -22.999  0.00  0.00    +0.314 C 
BRANCH  18  19
ATOM     19  OE1 UNL     1      32.764 -10.374 -24.161  0.00  0.00    -0.480 OA
ATOM     20  HE1 UNL     1      32.065 -10.836 -24.582  0.00  0.00    +0.295 HD
ENDBRANCH  18  19
ENDBRANCH  16  18
ENDBRANCH  15  16
ENDBRANCH  10  15
ENDBRANCH   7  10
ENDBRANCH   3   8
BRANCH   2  21
ATOM     21  N   UNL     1      35.229 -18.585 -22.961  0.00  0.00    -0.297 N 
ATOM     22  C   UNL     1      34.979 -19.704 -23.872  0.00  0.00    +0.113 C 
BRANCH  21  23
ATOM     23  C   UNL     1      35.944 -18.877 -21.738  0.00  0.00    +0.118 C 
BRANCH  23  27
ATOM     24  O   UNL     1      36.799 -22.147 -17.847  0.00  0.00    -0.209 OA
ATOM     25  N   UNL     1      32.810 -22.093 -18.247  0.00  0.00    -0.290 N 
ATOM     26  N   UNL     1      34.757 -22.905 -17.135  0.00  0.00    -0.322 NA
ATOM     27  C   UNL     1      35.118 -19.720 -20.825  0.00  0.00    -0.002 C 
ATOM     28  C   UNL     1      34.954 -21.292 -19.003  0.00  0.00    +0.108 C 
ATOM     29  C   UNL     1      35.737 -20.507 -19.853  0.00  0.00    +0.011 C 
ATOM     30  C   UNL     1      33.557 -21.295 -19.117  0.00  0.00    +0.062 C 
ATOM     31  C   UNL     1      33.727 -19.718 -20.944  0.00  0.00    -0.001 C 
ATOM     32  C   UNL     1      32.948 -20.503 -20.094  0.00  0.00    +0.015 C 
ATOM     33  C   UNL     1      35.576 -22.146 -17.952  0.00  0.00    +0.207 C 
ATOM     34  C   UNL     1      33.468 -22.852 -17.308  0.00  0.00    +0.174 C 
ATOM     35  C   UNL     1      32.605 -23.693 -16.399  0.00  0.00    +0.085 C 
ATOM     36  H   UNL     1      31.828 -22.112 -18.306  0.00  0.00    +0.154 HD
ENDBRANCH  23  27
ENDBRANCH  21  23
ENDBRANCH   2  21
TORSDOF 11
ENDMDL
MODEL 9
REMARK VINA RESULT:     -10.5      2.893      3.636
REMARK  Name = 104758
REMARK  11 active torsions:
REMARK  status: ('A' for Active; 'I' for Inactive)
REMARK    1  A    between atoms: C_2  and  N_21
REMARK    2  A    between atoms: C_3  and  C_8
REMARK    3  A    between atoms: N_7  and  CA_10
REMARK    4  A    between atoms: CA_10  and  C_12
REMARK    5  A    between atoms: CA_10  and  CB_15
REMARK    6  A    between atoms: C_12  and  O_13
REMARK    7  A    between atoms: CB_15  and  CG_16
REMARK    8  A    between atoms: CG_16  and  CD_18
REMARK    9  A    between atoms: CD_18  and  OE1_19
REMARK   10  A    between atoms: N_21  and  C_23
REMARK   11  A    between atoms: C_23  and  C_27
REMARK                            x       y       z     vdW  Elec       q    Type
REMARK                         _______ _______ _______ _____ _____    ______ ____
ROOT
ATOM      1  S   UNL     1      35.728 -21.443 -19.486  0.00  0.00    -0.068 S 
ATOM      2  C   UNL     1      34.973 -20.244 -20.448  0.00  0.00    +0.079 C 
ATOM      3  C   UNL     1      34.236 -21.891 -18.777  0.00  0.00    +0.084 C 
ATOM      4  C   UNL     1      33.614 -20.188 -20.230  0.00  0.00    +0.022 C 
ATOM      5  C   UNL     1      33.187 -21.142 -19.263  0.00  0.00    +0.013 C 
ENDROOT
BRANCH   3   8
ATOM      6  O   UNL     1      33.560 -23.997 -17.930  0.00  0.00    -0.270 OA
ATOM      7  N   UNL     1      34.958 -22.731 -16.620  0.00  0.00    -0.293 N 
ATOM      8  C   ACE A   0      34.216 -22.935 -17.804  0.00  0.00    +0.252 C 
ATOM      9  H   UNL     1      35.468 -21.894 -16.531  0.00  0.00    +0.150 HD
BRANCH   7  10
ATOM     10  CA  UNL     1      35.010 -23.681 -15.532  0.00  0.00    +0.172 C 
BRANCH  10  12
ATOM     11  OXT UNL     1      32.822 -23.042 -14.676  0.00  0.00    -0.248 OA
ATOM     12  C   UNL     1      34.015 -23.230 -14.482  0.00  0.00    +0.332 C 
BRANCH  12  13
ATOM     13  O   UNL     1      34.595 -23.092 -13.261  0.00  0.00    -0.479 OA
ATOM     14  H   UNL     1      35.500 -22.856 -13.196  0.00  0.00    +0.295 HD
ENDBRANCH  12  13
ENDBRANCH  10  12
BRANCH  10  15
ATOM     15  CB  UNL     1      36.431 -23.884 -14.992  0.00  0.00    +0.043 C 
BRANCH  15  16
ATOM     16  CG  UNL     1      36.828 -25.333 -14.682  0.00  0.00    +0.112 C 
BRANCH  16  18
ATOM     17  OE2 UNL     1      38.971 -24.568 -13.810  0.00  0.00    -0.250 OA
ATOM     18  CD  UNL     1      38.248 -25.482 -14.181  0.00  0.00    +0.314 C 
BRANCH  18  19
ATOM     19  OE1 UNL     1      38.661 -26.776 -14.226  0.00  0.00    -0.480 OA
ATOM     20  HE1 UNL     1      39.448 -27.001 -14.682  0.00  0.00    +0.295 HD
ENDBRANCH  18  19
ENDBRANCH  16  18
ENDBRANCH  15  16
ENDBRANCH  10  15
ENDBRANCH   7  10
ENDBRANCH   3   8
BRANCH   2  21
ATOM     21  N   UNL     1      35.702 -19.452 -21.326  0.00  0.00    -0.297 N 
ATOM     22  C   UNL     1      36.889 -18.725 -20.870  0.00  0.00    +0.113 C 
BRANCH  21  23
ATOM     23  C   UNL     1      35.337 -19.311 -22.718  0.00  0.00    +0.118 C 
BRANCH  23  27
ATOM     24  O   UNL     1      34.838 -14.892 -20.115  0.00  0.00    -0.209 OA
ATOM     25  N   UNL     1      33.897 -13.937 -23.894  0.00  0.00    -0.290 N 
ATOM     26  N   UNL     1      34.187 -13.288 -21.618  0.00  0.00    -0.322 NA
ATOM     27  C   UNL     1      34.958 -17.903 -23.031  0.00  0.00    -0.002 C 
ATOM     28  C   UNL     1      34.580 -15.629 -22.320  0.00  0.00    +0.108 C 
ATOM     29  C   UNL     1      34.936 -16.945 -22.016  0.00  0.00    +0.011 C 
ATOM     30  C   UNL     1      34.246 -15.263 -23.632  0.00  0.00    +0.062 C 
ATOM     31  C   UNL     1      34.627 -17.546 -24.339  0.00  0.00    -0.001 C 
ATOM     32  C   UNL     1      34.271 -16.230 -24.640  0.00  0.00    +0.015 C 
ATOM     33  C   UNL     1      34.546 -14.578 -21.265  0.00  0.00    +0.207 C 
ATOM     34  C   UNL     1      33.889 -13.032 -22.858  0.00  0.00    +0.174 C 
ATOM     35  C   UNL     1      33.502 -11.615 -23.206  0.00  0.00    +0.085 C 
ATOM     36  H   UNL     1      33.659 -13.654 -24.806  0.00  0.00    +0.154 HD
ENDBRANCH  23  27
ENDBRANCH  21  23
ENDBRANCH   2  21
TORSDOF 11
ENDMDL
