MODEL 1
REMARK VINA RESULT:     -11.5      0.000      0.000
REMARK  Name = 16720766
REMARK  7 active torsions:
REMARK  status: ('A' for Active; 'I' for Inactive)
REMARK    1  A    between atoms: N_1  and  C_10
REMARK    2  A    between atoms: C_11  and  C_17
REMARK    3  A    between atoms: C_13  and  O_15
REMARK    4  A    between atoms: C_17  and  O_18
REMARK    5  A    between atoms: O_18  and  S_19
REMARK    6  A    between atoms: S_19  and  N_22
REMARK    7  A    between atoms: N_25  and  C_27
REMARK                            x       y       z     vdW  Elec       q    Type
REMARK                         _______ _______ _______ _____ _____    ______ ____
ROOT
ATOM      1  N   UNL     1      34.279 -21.465 -19.129  0.00  0.00    -0.276 N 
ATOM      2  N   UNL     1      36.483 -20.522 -19.388  0.00  0.00    -0.233 NA
ATOM      3  N   UNL     1      36.544 -18.668 -20.963  0.00  0.00    -0.233 NA
ATOM      4  C   UNL     1      35.169 -20.576 -19.669  0.00  0.00    +0.120 C 
ATOM      5  C   UNL     1      33.029 -21.231 -19.644  0.00  0.00    +0.062 C 
ATOM      6  C   UNL     1      34.475 -19.754 -20.549  0.00  0.00    +0.131 C 
ATOM      7  C   UNL     1      33.120 -20.175 -20.526  0.00  0.00    +0.004 C 
ATOM      8  C   UNL     1      35.208 -18.760 -21.218  0.00  0.00    +0.113 C 
ATOM      9  C   UNL     1      37.087 -19.537 -20.082  0.00  0.00    +0.252 C 
ATOM     10  N   UNL     1      34.600 -17.893 -22.112  0.00  0.00    -0.319 N 
ATOM     11  H   UNL     1      33.632 -17.991 -22.269  0.00  0.00    +0.148 HD
ENDROOT
BRANCH  10  12
ATOM     12  C   UNL     1      35.302 -16.856 -22.827  0.00  0.00    +0.093 C 
ATOM     13  C   UNL     1      35.064 -16.972 -24.344  0.00  0.00    +0.029 C 
ATOM     14  C   UNL     1      34.699 -15.513 -22.540  0.00  0.00    -0.008 C 
ATOM     15  C   UNL     1      33.811 -16.140 -24.666  0.00  0.00    +0.028 C 
ATOM     16  C   UNL     1      33.861 -15.106 -23.586  0.00  0.00    -0.025 C 
ATOM     17  C   UNL     1      34.869 -14.725 -21.413  0.00  0.00    -0.003 C 
ATOM     18  C   UNL     1      33.171 -13.908 -23.522  0.00  0.00    -0.005 C 
ATOM     19  C   UNL     1      34.185 -13.510 -21.346  0.00  0.00    -0.000 C 
ATOM     20  C   UNL     1      33.341 -13.104 -22.393  0.00  0.00    -0.000 C 
ENDBRANCH  10  12
BRANCH   1  21
ATOM     21  C   UNL     1      34.597 -22.508 -18.157  0.00  0.00    +0.081 C 
ATOM     22  C   UNL     1      33.536 -22.837 -15.978  0.00  0.00    +0.061 C 
ATOM     23  C   UNL     1      33.368 -23.142 -17.472  0.00  0.00    +0.025 C 
ATOM     24  C   UNL     1      35.053 -22.791 -15.791  0.00  0.00    +0.115 C 
ATOM     25  C   UNL     1      35.523 -22.023 -17.023  0.00  0.00    +0.049 C 
BRANCH  24  26
ATOM     26  O   UNL     1      35.606 -24.101 -15.800  0.00  0.00    -0.384 OA
ATOM     27  H   UNL     1      36.412 -24.116 -15.261  0.00  0.00    +0.210 HD
ENDBRANCH  24  26
BRANCH  22  28
ATOM     28  C   UNL     1      32.817 -23.842 -15.091  0.00  0.00    +0.176 C 
BRANCH  28  29
ATOM     29  O   UNL     1      31.583 -24.186 -15.698  0.00  0.00    -0.230 OA
BRANCH  29  30
ATOM     30  S   UNL     1      30.260 -23.258 -15.438  0.00  0.00    +0.045 S 
ATOM     31  O   UNL     1      30.421 -22.571 -14.169  0.00  0.00    -0.056 OA
ATOM     32  O   UNL     1      30.018 -22.497 -16.650  0.00  0.00    -0.056 OA
BRANCH  30  33
ATOM     33  N   UNL     1      28.984 -24.391 -15.272  0.00  0.00    -0.204 NA
ATOM     34  H   UNL     1      28.680 -24.699 -16.195  0.00  0.00    +0.144 HD
ATOM     35  H   UNL     1      28.202 -23.952 -14.786  0.00  0.00    +0.144 HD
ENDBRANCH  30  33
ENDBRANCH  29  30
ENDBRANCH  28  29
ENDBRANCH  22  28
ENDBRANCH   1  21
TORSDOF 7
ENDMDL
MODEL 2
REMARK VINA RESULT:     -11.3      2.104      2.480
REMARK  Name = 16720766
REMARK  7 active torsions:
REMARK  status: ('A' for Active; 'I' for Inactive)
REMARK    1  A    between atoms: N_1  and  C_10
REMARK    2  A    between atoms: C_11  and  C_17
REMARK    3  A    between atoms: C_13  and  O_15
REMARK    4  A    between atoms: C_17  and  O_18
REMARK    5  A    between atoms: O_18  and  S_19
REMARK    6  A    between atoms: S_19  and  N_22
REMARK    7  A    between atoms: N_25  and  C_27
REMARK                            x       y       z     vdW  Elec       q    Type
REMARK                         _______ _______ _______ _____ _____    ______ ____
ROOT
ATOM      1  N   UNL     1      34.894 -21.160 -19.279  0.00  0.00    -0.276 N 
ATOM      2  N   UNL     1      36.997 -20.105 -19.808  0.00  0.00    -0.233 NA
ATOM      3  N   UNL     1      36.771 -18.284 -21.407  0.00  0.00    -0.233 NA
ATOM      4  C   UNL     1      35.664 -20.236 -19.933  0.00  0.00    +0.120 C 
ATOM      5  C   UNL     1      33.582 -21.004 -19.647  0.00  0.00    +0.062 C 
ATOM      6  C   UNL     1      34.828 -19.471 -20.737  0.00  0.00    +0.131 C 
ATOM      7  C   UNL     1      33.511 -19.964 -20.549  0.00  0.00    +0.004 C 
ATOM      8  C   UNL     1      35.421 -18.454 -21.502  0.00  0.00    +0.113 C 
ATOM      9  C   UNL     1      37.461 -19.104 -20.582  0.00  0.00    +0.252 C 
ATOM     10  N   UNL     1      34.666 -17.640 -22.331  0.00  0.00    -0.319 N 
ATOM     11  H   UNL     1      33.694 -17.793 -22.372  0.00  0.00    +0.148 HD
ENDROOT
BRANCH  10  12
ATOM     12  C   UNL     1      35.222 -16.581 -23.138  0.00  0.00    +0.093 C 
ATOM     13  C   UNL     1      34.862 -16.772 -24.623  0.00  0.00    +0.029 C 
ATOM     14  C   UNL     1      34.545 -15.277 -22.841  0.00  0.00    -0.008 C 
ATOM     15  C   UNL     1      33.525 -16.047 -24.857  0.00  0.00    +0.028 C 
ATOM     16  C   UNL     1      33.590 -14.972 -23.819  0.00  0.00    -0.025 C 
ATOM     17  C   UNL     1      34.751 -14.436 -21.758  0.00  0.00    -0.003 C 
ATOM     18  C   UNL     1      32.817 -13.827 -23.730  0.00  0.00    -0.005 C 
ATOM     19  C   UNL     1      33.984 -13.273 -21.668  0.00  0.00    -0.000 C 
ATOM     20  C   UNL     1      33.023 -12.970 -22.647  0.00  0.00    -0.000 C 
ENDBRANCH  10  12
BRANCH   1  21
ATOM     21  C   UNL     1      35.381 -22.163 -18.336  0.00  0.00    +0.081 C 
ATOM     22  C   UNL     1      34.466 -22.639 -16.118  0.00  0.00    +0.061 C 
ATOM     23  C   UNL     1      34.271 -22.950 -17.608  0.00  0.00    +0.025 C 
ATOM     24  C   UNL     1      35.973 -22.408 -15.996  0.00  0.00    +0.115 C 
ATOM     25  C   UNL     1      36.290 -21.577 -17.236  0.00  0.00    +0.049 C 
BRANCH  24  26
ATOM     26  O   UNL     1      36.682 -23.640 -16.047  0.00  0.00    -0.384 OA
ATOM     27  H   UNL     1      36.297 -24.261 -15.408  0.00  0.00    +0.210 HD
ENDBRANCH  24  26
BRANCH  22  28
ATOM     28  C   UNL     1      33.917 -23.732 -15.215  0.00  0.00    +0.176 C 
BRANCH  28  29
ATOM     29  O   UNL     1      34.178 -23.383 -13.866  0.00  0.00    -0.230 OA
BRANCH  29  30
ATOM     30  S   UNL     1      35.298 -24.216 -13.010  0.00  0.00    +0.045 S 
ATOM     31  O   UNL     1      35.828 -25.274 -13.851  0.00  0.00    -0.056 OA
ATOM     32  O   UNL     1      36.196 -23.246 -12.412  0.00  0.00    -0.056 OA
BRANCH  30  33
ATOM     33  N   UNL     1      34.399 -24.942 -11.744  0.00  0.00    -0.204 NA
ATOM     34  H   UNL     1      33.431 -24.623 -11.787  0.00  0.00    +0.144 HD
ATOM     35  H   UNL     1      34.804 -24.679 -10.846  0.00  0.00    +0.144 HD
ENDBRANCH  30  33
ENDBRANCH  29  30
ENDBRANCH  28  29
ENDBRANCH  22  28
ENDBRANCH   1  21
TORSDOF 7
ENDMDL
MODEL 3
REMARK VINA RESULT:     -11.1      7.768     11.633
REMARK  Name = 16720766
REMARK  7 active torsions:
REMARK  status: ('A' for Active; 'I' for Inactive)
REMARK    1  A    between atoms: N_1  and  C_10
REMARK    2  A    between atoms: C_11  and  C_17
REMARK    3  A    between atoms: C_13  and  O_15
REMARK    4  A    between atoms: C_17  and  O_18
REMARK    5  A    between atoms: O_18  and  S_19
REMARK    6  A    between atoms: S_19  and  N_22
REMARK    7  A    between atoms: N_25  and  C_27
REMARK                            x       y       z     vdW  Elec       q    Type
REMARK                         _______ _______ _______ _____ _____    ______ ____
ROOT
ATOM      1  N   UNL     1      33.438 -12.965 -22.327  0.00  0.00    -0.276 N 
ATOM      2  N   UNL     1      33.581 -14.378 -24.276  0.00  0.00    -0.233 NA
ATOM      3  N   UNL     1      34.539 -16.564 -23.796  0.00  0.00    -0.233 NA
ATOM      4  C   UNL     1      33.760 -14.132 -22.965  0.00  0.00    +0.120 C 
ATOM      5  C   UNL     1      33.758 -13.068 -20.997  0.00  0.00    +0.062 C 
ATOM      6  C   UNL     1      34.300 -15.002 -22.025  0.00  0.00    +0.131 C 
ATOM      7  C   UNL     1      34.294 -14.320 -20.781  0.00  0.00    +0.004 C 
ATOM      8  C   UNL     1      34.702 -16.270 -22.475  0.00  0.00    +0.113 C 
ATOM      9  C   UNL     1      34.000 -15.618 -24.598  0.00  0.00    +0.252 C 
ATOM     10  N   UNL     1      35.249 -17.204 -21.608  0.00  0.00    -0.319 N 
ATOM     11  H   UNL     1      35.350 -16.954 -20.661  0.00  0.00    +0.148 HD
ENDROOT
BRANCH  10  12
ATOM     12  C   UNL     1      35.680 -18.519 -22.015  0.00  0.00    +0.093 C 
ATOM     13  C   UNL     1      37.206 -18.667 -21.876  0.00  0.00    +0.029 C 
ATOM     14  C   UNL     1      35.198 -19.557 -21.046  0.00  0.00    -0.008 C 
ATOM     15  C   UNL     1      37.479 -19.180 -20.451  0.00  0.00    +0.028 C 
ATOM     16  C   UNL     1      36.219 -19.936 -20.167  0.00  0.00    -0.025 C 
ATOM     17  C   UNL     1      33.928 -20.104 -20.943  0.00  0.00    -0.003 C 
ATOM     18  C   UNL     1      35.991 -20.862 -19.163  0.00  0.00    -0.005 C 
ATOM     19  C   UNL     1      33.693 -21.047 -19.942  0.00  0.00    -0.000 C 
ATOM     20  C   UNL     1      34.717 -21.423 -19.057  0.00  0.00    -0.000 C 
ENDBRANCH  10  12
BRANCH   1  21
ATOM     21  C   UNL     1      32.845 -11.786 -22.952  0.00  0.00    +0.081 C 
ATOM     22  C   UNL     1      33.662  -9.487 -22.785  0.00  0.00    +0.061 C 
ATOM     23  C   UNL     1      33.867 -10.798 -23.554  0.00  0.00    +0.025 C 
ATOM     24  C   UNL     1      32.177  -9.515 -22.420  0.00  0.00    +0.115 C 
ATOM     25  C   UNL     1      31.962 -10.964 -21.991  0.00  0.00    +0.049 C 
BRANCH  24  26
ATOM     26  O   UNL     1      31.369  -9.222 -23.553  0.00  0.00    -0.384 OA
ATOM     27  H   UNL     1      31.206  -8.266 -23.595  0.00  0.00    +0.210 HD
ENDBRANCH  24  26
BRANCH  22  28
ATOM     28  C   UNL     1      34.095  -8.267 -23.584  0.00  0.00    +0.176 C 
BRANCH  28  29
ATOM     29  O   UNL     1      33.423  -7.127 -23.075  0.00  0.00    -0.230 OA
BRANCH  29  30
ATOM     30  S   UNL     1      32.527  -6.194 -24.077  0.00  0.00    +0.045 S 
ATOM     31  O   UNL     1      33.052  -4.840 -24.039  0.00  0.00    -0.056 OA
ATOM     32  O   UNL     1      32.419  -6.895 -25.343  0.00  0.00    -0.056 OA
BRANCH  30  33
ATOM     33  N   UNL     1      30.972  -6.181 -23.356  0.00  0.00    -0.204 NA
ATOM     34  H   UNL     1      30.285  -6.533 -24.023  0.00  0.00    +0.144 HD
ATOM     35  H   UNL     1      30.729  -5.228 -23.089  0.00  0.00    +0.144 HD
ENDBRANCH  30  33
ENDBRANCH  29  30
ENDBRANCH  28  29
ENDBRANCH  22  28
ENDBRANCH   1  21
TORSDOF 7
ENDMDL
MODEL 4
REMARK VINA RESULT:     -10.3      5.764      9.324
REMARK  Name = 16720766
REMARK  7 active torsions:
REMARK  status: ('A' for Active; 'I' for Inactive)
REMARK    1  A    between atoms: N_1  and  C_10
REMARK    2  A    between atoms: C_11  and  C_17
REMARK    3  A    between atoms: C_13  and  O_15
REMARK    4  A    between atoms: C_17  and  O_18
REMARK    5  A    between atoms: O_18  and  S_19
REMARK    6  A    between atoms: S_19  and  N_22
REMARK    7  A    between atoms: N_25  and  C_27
REMARK                            x       y       z     vdW  Elec       q    Type
REMARK                         _______ _______ _______ _____ _____    ______ ____
ROOT
ATOM      1  N   UNL     1      33.381 -13.444 -23.158  0.00  0.00    -0.276 N 
ATOM      2  N   UNL     1      31.971 -13.316 -21.206  0.00  0.00    -0.233 NA
ATOM      3  N   UNL     1      31.398 -11.030 -20.597  0.00  0.00    -0.233 NA
ATOM      4  C   UNL     1      32.663 -12.758 -22.216  0.00  0.00    +0.120 C 
ATOM      5  C   UNL     1      33.957 -12.556 -24.030  0.00  0.00    +0.062 C 
ATOM      6  C   UNL     1      32.781 -11.401 -22.490  0.00  0.00    +0.131 C 
ATOM      7  C   UNL     1      33.601 -11.282 -23.641  0.00  0.00    +0.004 C 
ATOM      8  C   UNL     1      32.113 -10.509 -21.635  0.00  0.00    +0.113 C 
ATOM      9  C   UNL     1      31.372 -12.374 -20.451  0.00  0.00    +0.252 C 
ATOM     10  N   UNL     1      32.172  -9.139 -21.831  0.00  0.00    -0.319 N 
ATOM     11  H   UNL     1      32.698  -8.801 -22.592  0.00  0.00    +0.148 HD
ENDROOT
BRANCH  10  12
ATOM     12  C   UNL     1      31.507  -8.178 -20.985  0.00  0.00    +0.093 C 
ATOM     13  C   UNL     1      32.355  -7.861 -19.739  0.00  0.00    +0.029 C 
ATOM     14  C   UNL     1      31.454  -6.835 -21.649  0.00  0.00    -0.008 C 
ATOM     15  C   UNL     1      33.270  -6.681 -20.108  0.00  0.00    +0.028 C 
ATOM     16  C   UNL     1      32.447  -5.985 -21.146  0.00  0.00    -0.025 C 
ATOM     17  C   UNL     1      30.593  -6.412 -22.650  0.00  0.00    -0.003 C 
ATOM     18  C   UNL     1      32.606  -4.701 -21.639  0.00  0.00    -0.005 C 
ATOM     19  C   UNL     1      30.739  -5.114 -23.143  0.00  0.00    -0.000 C 
ATOM     20  C   UNL     1      31.738  -4.265 -22.642  0.00  0.00    -0.000 C 
ENDBRANCH  10  12
BRANCH   1  21
ATOM     21  C   UNL     1      33.523 -14.896 -23.233  0.00  0.00    +0.081 C 
ATOM     22  C   UNL     1      35.537 -16.189 -22.730  0.00  0.00    +0.061 C 
ATOM     23  C   UNL     1      34.322 -15.523 -22.071  0.00  0.00    +0.025 C 
ATOM     24  C   UNL     1      35.018 -16.593 -24.110  0.00  0.00    +0.115 C 
ATOM     25  C   UNL     1      34.199 -15.378 -24.533  0.00  0.00    +0.049 C 
BRANCH  24  26
ATOM     26  O   UNL     1      34.176 -17.736 -24.022  0.00  0.00    -0.384 OA
ATOM     27  H   UNL     1      34.216 -18.232 -24.855  0.00  0.00    +0.210 HD
ENDBRANCH  24  26
BRANCH  22  28
ATOM     28  C   UNL     1      36.096 -17.335 -21.902  0.00  0.00    +0.176 C 
BRANCH  28  29
ATOM     29  O   UNL     1      35.061 -17.855 -21.085  0.00  0.00    -0.230 OA
BRANCH  29  30
ATOM     30  S   UNL     1      34.851 -19.474 -20.966  0.00  0.00    +0.045 S 
ATOM     31  O   UNL     1      33.641 -19.728 -20.205  0.00  0.00    -0.056 OA
ATOM     32  O   UNL     1      35.000 -20.030 -22.299  0.00  0.00    -0.056 OA
BRANCH  30  33
ATOM     33  N   UNL     1      36.188 -20.001 -20.032  0.00  0.00    -0.204 NA
ATOM     34  H   UNL     1      36.255 -19.436 -19.186  0.00  0.00    +0.144 HD
ATOM     35  H   UNL     1      37.044 -19.899 -20.577  0.00  0.00    +0.144 HD
ENDBRANCH  30  33
ENDBRANCH  29  30
ENDBRANCH  28  29
ENDBRANCH  22  28
ENDBRANCH   1  21
TORSDOF 7
ENDMDL
MODEL 5
REMARK VINA RESULT:     -10.0      2.700      4.903
REMARK  Name = 16720766
REMARK  7 active torsions:
REMARK  status: ('A' for Active; 'I' for Inactive)
REMARK    1  A    between atoms: N_1  and  C_10
REMARK    2  A    between atoms: C_11  and  C_17
REMARK    3  A    between atoms: C_13  and  O_15
REMARK    4  A    between atoms: C_17  and  O_18
REMARK    5  A    between atoms: O_18  and  S_19
REMARK    6  A    between atoms: S_19  and  N_22
REMARK    7  A    between atoms: N_25  and  C_27
REMARK                            x       y       z     vdW  Elec       q    Type
REMARK                         _______ _______ _______ _____ _____    ______ ____
ROOT
ATOM      1  N   UNL     1      34.967 -17.738 -22.677  0.00  0.00    -0.276 N 
ATOM      2  N   UNL     1      35.031 -16.496 -20.611  0.00  0.00    -0.233 NA
ATOM      3  N   UNL     1      34.696 -14.106 -20.929  0.00  0.00    -0.233 NA
ATOM      4  C   UNL     1      34.899 -16.582 -21.947  0.00  0.00    +0.120 C 
ATOM      5  C   UNL     1      34.790 -17.450 -24.006  0.00  0.00    +0.062 C 
ATOM      6  C   UNL     1      34.674 -15.531 -22.827  0.00  0.00    +0.131 C 
ATOM      7  C   UNL     1      34.606 -16.090 -24.129  0.00  0.00    +0.004 C 
ATOM      8  C   UNL     1      34.570 -14.242 -22.279  0.00  0.00    +0.113 C 
ATOM      9  C   UNL     1      34.915 -15.220 -20.193  0.00  0.00    +0.252 C 
ATOM     10  N   UNL     1      34.344 -13.133 -23.080  0.00  0.00    -0.319 N 
ATOM     11  H   UNL     1      34.257 -13.272 -24.051  0.00  0.00    +0.148 HD
ENDROOT
BRANCH  10  12
ATOM     12  C   UNL     1      34.229 -11.787 -22.572  0.00  0.00    +0.093 C 
ATOM     13  C   UNL     1      34.139 -10.769 -23.724  0.00  0.00    +0.029 C 
ATOM     14  C   UNL     1      32.903 -11.586 -21.902  0.00  0.00    -0.008 C 
ATOM     15  C   UNL     1      32.647 -10.610 -24.065  0.00  0.00    +0.028 C 
ATOM     16  C   UNL     1      32.011 -10.912 -22.745  0.00  0.00    -0.025 C 
ATOM     17  C   UNL     1      32.516 -11.999 -20.637  0.00  0.00    -0.003 C 
ATOM     18  C   UNL     1      30.713 -10.645 -22.345  0.00  0.00    -0.005 C 
ATOM     19  C   UNL     1      31.212 -11.723 -20.221  0.00  0.00    -0.000 C 
ATOM     20  C   UNL     1      30.316 -11.052 -21.069  0.00  0.00    -0.000 C 
ENDBRANCH  10  12
BRANCH   1  21
ATOM     21  C   UNL     1      35.194 -19.076 -22.137  0.00  0.00    +0.081 C 
ATOM     22  C   UNL     1      34.200 -20.013 -20.108  0.00  0.00    +0.061 C 
ATOM     23  C   UNL     1      33.926 -19.773 -21.598  0.00  0.00    +0.025 C 
ATOM     24  C   UNL     1      35.718 -20.193 -20.048  0.00  0.00    +0.115 C 
ATOM     25  C   UNL     1      36.225 -19.106 -20.990  0.00  0.00    +0.049 C 
BRANCH  24  26
ATOM     26  O   UNL     1      36.097 -21.473 -20.539  0.00  0.00    -0.384 OA
ATOM     27  H   UNL     1      35.595 -21.671 -21.345  0.00  0.00    +0.210 HD
ENDBRANCH  24  26
BRANCH  22  28
ATOM     28  C   UNL     1      33.401 -21.179 -19.546  0.00  0.00    +0.176 C 
BRANCH  28  29
ATOM     29  O   UNL     1      34.162 -21.804 -18.526  0.00  0.00    -0.230 OA
BRANCH  29  30
ATOM     30  S   UNL     1      33.555 -23.103 -17.737  0.00  0.00    +0.045 S 
ATOM     31  O   UNL     1      32.199 -22.796 -17.318  0.00  0.00    -0.056 OA
ATOM     32  O   UNL     1      33.814 -24.271 -18.559  0.00  0.00    -0.056 OA
BRANCH  30  33
ATOM     33  N   UNL     1      34.530 -23.230 -16.332  0.00  0.00    -0.204 NA
ATOM     34  H   UNL     1      35.081 -22.379 -16.223  0.00  0.00    +0.144 HD
ATOM     35  H   UNL     1      35.155 -24.030 -16.424  0.00  0.00    +0.144 HD
ENDBRANCH  30  33
ENDBRANCH  29  30
ENDBRANCH  28  29
ENDBRANCH  22  28
ENDBRANCH   1  21
TORSDOF 7
ENDMDL
MODEL 6
REMARK VINA RESULT:      -9.8      6.823     10.699
REMARK  Name = 16720766
REMARK  7 active torsions:
REMARK  status: ('A' for Active; 'I' for Inactive)
REMARK    1  A    between atoms: N_1  and  C_10
REMARK    2  A    between atoms: C_11  and  C_17
REMARK    3  A    between atoms: C_13  and  O_15
REMARK    4  A    between atoms: C_17  and  O_18
REMARK    5  A    between atoms: O_18  and  S_19
REMARK    6  A    between atoms: S_19  and  N_22
REMARK    7  A    between atoms: N_25  and  C_27
REMARK                            x       y       z     vdW  Elec       q    Type
REMARK                         _______ _______ _______ _____ _____    ______ ____
ROOT
ATOM      1  N   UNL     1      34.203 -13.667 -21.619  0.00  0.00    -0.276 N 
ATOM      2  N   UNL     1      34.651 -15.025 -23.561  0.00  0.00    -0.233 NA
ATOM      3  N   UNL     1      35.170 -17.337 -23.003  0.00  0.00    -0.233 NA
ATOM      4  C   UNL     1      34.524 -14.847 -22.233  0.00  0.00    +0.120 C 
ATOM      5  C   UNL     1      34.162 -13.854 -20.261  0.00  0.00    +0.062 C 
ATOM      6  C   UNL     1      34.694 -15.812 -21.248  0.00  0.00    +0.131 C 
ATOM      7  C   UNL     1      34.462 -15.175 -20.002  0.00  0.00    +0.004 C 
ATOM      8  C   UNL     1      35.031 -17.110 -21.666  0.00  0.00    +0.113 C 
ATOM      9  C   UNL     1      34.975 -16.301 -23.850  0.00  0.00    +0.252 C 
ATOM     10  N   UNL     1      35.218 -18.137 -20.754  0.00  0.00    -0.319 N 
ATOM     11  H   UNL     1      35.108 -17.933 -19.797  0.00  0.00    +0.148 HD
ENDROOT
BRANCH  10  12
ATOM     12  C   UNL     1      35.565 -19.486 -21.127  0.00  0.00    +0.093 C 
ATOM     13  C   UNL     1      37.071 -19.743 -20.928  0.00  0.00    +0.029 C 
ATOM     14  C   UNL     1      34.973 -20.471 -20.165  0.00  0.00    -0.008 C 
ATOM     15  C   UNL     1      37.251 -20.253 -19.488  0.00  0.00    +0.028 C 
ATOM     16  C   UNL     1      35.930 -20.910 -19.242  0.00  0.00    -0.025 C 
ATOM     17  C   UNL     1      33.664 -20.922 -20.104  0.00  0.00    -0.003 C 
ATOM     18  C   UNL     1      35.597 -21.801 -18.236  0.00  0.00    -0.005 C 
ATOM     19  C   UNL     1      33.322 -21.830 -19.100  0.00  0.00    -0.000 C 
ATOM     20  C   UNL     1      34.282 -22.266 -18.172  0.00  0.00    -0.000 C 
ENDBRANCH  10  12
BRANCH   1  21
ATOM     21  C   UNL     1      33.942 -12.397 -22.293  0.00  0.00    +0.081 C 
ATOM     22  C   UNL     1      31.761 -11.330 -22.591  0.00  0.00    +0.061 C 
ATOM     23  C   UNL     1      32.907 -11.497 -21.585  0.00  0.00    +0.025 C 
ATOM     24  C   UNL     1      32.461 -11.420 -23.948  0.00  0.00    +0.115 C 
ATOM     25  C   UNL     1      33.448 -12.566 -23.745  0.00  0.00    +0.049 C 
BRANCH  24  26
ATOM     26  O   UNL     1      33.168 -10.221 -24.236  0.00  0.00    -0.384 OA
ATOM     27  H   UNL     1      34.110 -10.421 -24.354  0.00  0.00    +0.210 HD
ENDBRANCH  24  26
BRANCH  22  28
ATOM     28  C   UNL     1      30.970 -10.051 -22.370  0.00  0.00    +0.176 C 
BRANCH  28  29
ATOM     29  O   UNL     1      31.647  -9.256 -21.411  0.00  0.00    -0.230 OA
BRANCH  29  30
ATOM     30  S   UNL     1      32.119  -7.737 -21.798  0.00  0.00    +0.045 S 
ATOM     31  O   UNL     1      33.372  -7.815 -22.528  0.00  0.00    -0.056 OA
ATOM     32  O   UNL     1      30.976  -7.065 -22.389  0.00  0.00    -0.056 OA
BRANCH  30  33
ATOM     33  N   UNL     1      32.430  -6.999 -20.283  0.00  0.00    -0.204 NA
ATOM     34  H   UNL     1      31.743  -6.263 -20.115  0.00  0.00    +0.144 HD
ATOM     35  H   UNL     1      33.366  -6.594 -20.288  0.00  0.00    +0.144 HD
ENDBRANCH  30  33
ENDBRANCH  29  30
ENDBRANCH  28  29
ENDBRANCH  22  28
ENDBRANCH   1  21
TORSDOF 7
ENDMDL
MODEL 7
REMARK VINA RESULT:      -9.4      5.050      9.616
REMARK  Name = 16720766
REMARK  7 active torsions:
REMARK  status: ('A' for Active; 'I' for Inactive)
REMARK    1  A    between atoms: N_1  and  C_10
REMARK    2  A    between atoms: C_11  and  C_17
REMARK    3  A    between atoms: C_13  and  O_15
REMARK    4  A    between atoms: C_17  and  O_18
REMARK    5  A    between atoms: O_18  and  S_19
REMARK    6  A    between atoms: S_19  and  N_22
REMARK    7  A    between atoms: N_25  and  C_27
REMARK                            x       y       z     vdW  Elec       q    Type
REMARK                         _______ _______ _______ _____ _____    ______ ____
ROOT
ATOM      1  N   UNL     1      34.348 -19.713 -20.641  0.00  0.00    -0.276 N 
ATOM      2  N   UNL     1      36.174 -20.647 -19.372  0.00  0.00    -0.233 NA
ATOM      3  N   UNL     1      35.458 -22.361 -17.799  0.00  0.00    -0.233 NA
ATOM      4  C   UNL     1      34.872 -20.559 -19.702  0.00  0.00    +0.120 C 
ATOM      5  C   UNL     1      32.990 -19.895 -20.713  0.00  0.00    +0.062 C 
ATOM      6  C   UNL     1      33.828 -21.299 -19.159  0.00  0.00    +0.131 C 
ATOM      7  C   UNL     1      32.640 -20.872 -19.805  0.00  0.00    +0.004 C 
ATOM      8  C   UNL     1      34.151 -22.238 -18.165  0.00  0.00    +0.113 C 
ATOM      9  C   UNL     1      36.370 -21.573 -18.413  0.00  0.00    +0.252 C 
ATOM     10  N   UNL     1      33.175 -23.021 -17.568  0.00  0.00    -0.319 N 
ATOM     11  H   UNL     1      32.242 -22.903 -17.860  0.00  0.00    +0.148 HD
ENDROOT
BRANCH  10  12
ATOM     12  C   UNL     1      33.449 -23.999 -16.544  0.00  0.00    +0.093 C 
ATOM     13  C   UNL     1      34.706 -23.619 -15.740  0.00  0.00    +0.029 C 
ATOM     14  C   UNL     1      32.397 -23.956 -15.476  0.00  0.00    -0.008 C 
ATOM     15  C   UNL     1      34.238 -22.739 -14.567  0.00  0.00    +0.028 C 
ATOM     16  C   UNL     1      32.848 -23.250 -14.355  0.00  0.00    -0.025 C 
ATOM     17  C   UNL     1      31.119 -24.490 -15.516  0.00  0.00    -0.003 C 
ATOM     18  C   UNL     1      32.029 -23.055 -13.256  0.00  0.00    -0.005 C 
ATOM     19  C   UNL     1      30.290 -24.309 -14.407  0.00  0.00    -0.000 C 
ATOM     20  C   UNL     1      30.742 -23.596 -13.285  0.00  0.00    -0.000 C 
ENDBRANCH  10  12
BRANCH   1  21
ATOM     21  C   UNL     1      35.105 -18.759 -21.448  0.00  0.00    +0.081 C 
ATOM     22  C   UNL     1      34.492 -16.437 -21.910  0.00  0.00    +0.061 C 
ATOM     23  C   UNL     1      35.166 -17.332 -20.862  0.00  0.00    +0.025 C 
ATOM     24  C   UNL     1      34.791 -17.145 -23.232  0.00  0.00    +0.115 C 
ATOM     25  C   UNL     1      34.568 -18.615 -22.887  0.00  0.00    +0.049 C 
BRANCH  24  26
ATOM     26  O   UNL     1      36.143 -16.942 -23.622  0.00  0.00    -0.384 OA
ATOM     27  H   UNL     1      36.712 -16.949 -22.836  0.00  0.00    +0.210 HD
ENDBRANCH  24  26
BRANCH  22  28
ATOM     28  C   UNL     1      34.969 -14.995 -21.841  0.00  0.00    +0.176 C 
BRANCH  28  29
ATOM     29  O   UNL     1      34.884 -14.425 -23.136  0.00  0.00    -0.230 OA
BRANCH  29  30
ATOM     30  S   UNL     1      33.578 -13.530 -23.550  0.00  0.00    +0.045 S 
ATOM     31  O   UNL     1      32.632 -13.558 -22.448  0.00  0.00    -0.056 OA
ATOM     32  O   UNL     1      34.065 -12.259 -24.056  0.00  0.00    -0.056 OA
BRANCH  30  33
ATOM     33  N   UNL     1      32.887 -14.383 -24.866  0.00  0.00    -0.204 NA
ATOM     34  H   UNL     1      33.447 -15.212 -25.065  0.00  0.00    +0.144 HD
ATOM     35  H   UNL     1      32.867 -13.781 -25.689  0.00  0.00    +0.144 HD
ENDBRANCH  30  33
ENDBRANCH  29  30
ENDBRANCH  28  29
ENDBRANCH  22  28
ENDBRANCH   1  21
TORSDOF 7
ENDMDL
MODEL 8
REMARK VINA RESULT:      -9.2      5.066     10.198
REMARK  Name = 16720766
REMARK  7 active torsions:
REMARK  status: ('A' for Active; 'I' for Inactive)
REMARK    1  A    between atoms: N_1  and  C_10
REMARK    2  A    between atoms: C_11  and  C_17
REMARK    3  A    between atoms: C_13  and  O_15
REMARK    4  A    between atoms: C_17  and  O_18
REMARK    5  A    between atoms: O_18  and  S_19
REMARK    6  A    between atoms: S_19  and  N_22
REMARK    7  A    between atoms: N_25  and  C_27
REMARK                            x       y       z     vdW  Elec       q    Type
REMARK                         _______ _______ _______ _____ _____    ______ ____
ROOT
ATOM      1  N   UNL     1      36.031 -20.774 -19.318  0.00  0.00    -0.276 N 
ATOM      2  N   UNL     1      34.213 -22.333 -19.039  0.00  0.00    -0.233 NA
ATOM      3  N   UNL     1      34.215 -23.412 -16.857  0.00  0.00    -0.233 NA
ATOM      4  C   UNL     1      35.311 -21.691 -18.601  0.00  0.00    +0.120 C 
ATOM      5  C   UNL     1      37.083 -20.326 -18.562  0.00  0.00    +0.062 C 
ATOM      6  C   UNL     1      35.916 -21.835 -17.358  0.00  0.00    +0.131 C 
ATOM      7  C   UNL     1      37.037 -20.966 -17.342  0.00  0.00    +0.004 C 
ATOM      8  C   UNL     1      35.330 -22.738 -16.457  0.00  0.00    +0.113 C 
ATOM      9  C   UNL     1      33.736 -23.173 -18.099  0.00  0.00    +0.252 C 
ATOM     10  N   UNL     1      35.863 -22.946 -15.194  0.00  0.00    -0.319 N 
ATOM     11  H   UNL     1      36.669 -22.440 -14.941  0.00  0.00    +0.148 HD
ENDROOT
BRANCH  10  12
ATOM     12  C   UNL     1      35.304 -23.861 -14.228  0.00  0.00    +0.093 C 
ATOM     13  C   UNL     1      35.233 -25.289 -14.800  0.00  0.00    +0.029 C 
ATOM     14  C   UNL     1      36.244 -24.055 -13.077  0.00  0.00    -0.008 C 
ATOM     15  C   UNL     1      36.567 -25.975 -14.457  0.00  0.00    +0.028 C 
ATOM     16  C   UNL     1      36.953 -25.256 -13.203  0.00  0.00    -0.025 C 
ATOM     17  C   UNL     1      36.467 -23.204 -12.005  0.00  0.00    -0.003 C 
ATOM     18  C   UNL     1      37.903 -25.626 -12.267  0.00  0.00    -0.005 C 
ATOM     19  C   UNL     1      37.415 -23.577 -11.050  0.00  0.00    -0.000 C 
ATOM     20  C   UNL     1      38.129 -24.779 -11.181  0.00  0.00    -0.000 C 
ENDBRANCH  10  12
BRANCH   1  21
ATOM     21  C   UNL     1      35.735 -20.332 -20.679  0.00  0.00    +0.081 C 
ATOM     22  C   UNL     1      35.255 -18.042 -21.392  0.00  0.00    +0.061 C 
ATOM     23  C   UNL     1      36.410 -19.003 -21.082  0.00  0.00    +0.025 C 
ATOM     24  C   UNL     1      34.150 -18.966 -21.906  0.00  0.00    +0.115 C 
ATOM     25  C   UNL     1      34.228 -20.152 -20.949  0.00  0.00    +0.049 C 
BRANCH  24  26
ATOM     26  O   UNL     1      34.425 -19.399 -23.233  0.00  0.00    -0.384 OA
ATOM     27  H   UNL     1      34.874 -18.688 -23.718  0.00  0.00    +0.210 HD
ENDBRANCH  24  26
BRANCH  22  28
ATOM     28  C   UNL     1      35.657 -16.937 -22.357  0.00  0.00    +0.176 C 
BRANCH  28  29
ATOM     29  O   UNL     1      34.483 -16.316 -22.853  0.00  0.00    -0.230 OA
BRANCH  29  30
ATOM     30  S   UNL     1      34.269 -16.150 -24.467  0.00  0.00    +0.045 S 
ATOM     31  O   UNL     1      35.517 -15.695 -25.054  0.00  0.00    -0.056 OA
ATOM     32  O   UNL     1      33.642 -17.367 -24.950  0.00  0.00    -0.056 OA
BRANCH  30  33
ATOM     33  N   UNL     1      33.122 -14.884 -24.608  0.00  0.00    -0.204 NA
ATOM     34  H   UNL     1      32.607 -14.793 -23.732  0.00  0.00    +0.144 HD
ATOM     35  H   UNL     1      32.471 -15.097 -25.363  0.00  0.00    +0.144 HD
ENDBRANCH  30  33
ENDBRANCH  29  30
ENDBRANCH  28  29
ENDBRANCH  22  28
ENDBRANCH   1  21
TORSDOF 7
ENDMDL
MODEL 9
REMARK VINA RESULT:      -9.2      7.001     10.541
REMARK  Name = 16720766
REMARK  7 active torsions:
REMARK  status: ('A' for Active; 'I' for Inactive)
REMARK    1  A    between atoms: N_1  and  C_10
REMARK    2  A    between atoms: C_11  and  C_17
REMARK    3  A    between atoms: C_13  and  O_15
REMARK    4  A    between atoms: C_17  and  O_18
REMARK    5  A    between atoms: O_18  and  S_19
REMARK    6  A    between atoms: S_19  and  N_22
REMARK    7  A    between atoms: N_25  and  C_27
REMARK                            x       y       z     vdW  Elec       q    Type
REMARK                         _______ _______ _______ _____ _____    ______ ____
ROOT
ATOM      1  N   UNL     1      32.405 -11.925 -22.677  0.00  0.00    -0.276 N 
ATOM      2  N   UNL     1      34.434 -10.953 -23.542  0.00  0.00    -0.233 NA
ATOM      3  N   UNL     1      34.428  -8.520 -23.469  0.00  0.00    -0.233 NA
ATOM      4  C   UNL     1      33.207 -10.864 -22.999  0.00  0.00    +0.120 C 
ATOM      5  C   UNL     1      31.227 -11.464 -22.146  0.00  0.00    +0.062 C 
ATOM      6  C   UNL     1      32.529  -9.697 -22.668  0.00  0.00    +0.131 C 
ATOM      7  C   UNL     1      31.277 -10.086 -22.128  0.00  0.00    +0.004 C 
ATOM      8  C   UNL     1      33.181  -8.479 -22.919  0.00  0.00    +0.113 C 
ATOM      9  C   UNL     1      34.966  -9.730 -23.741  0.00  0.00    +0.252 C 
ATOM     10  N   UNL     1      32.583  -7.264 -22.620  0.00  0.00    -0.319 N 
ATOM     11  H   UNL     1      31.682  -7.276 -22.223  0.00  0.00    +0.148 HD
ENDROOT
BRANCH  10  12
ATOM     12  C   UNL     1      33.205  -5.984 -22.857  0.00  0.00    +0.093 C 
ATOM     13  C   UNL     1      33.607  -5.832 -24.336  0.00  0.00    +0.029 C 
ATOM     14  C   UNL     1      32.207  -4.876 -22.711  0.00  0.00    -0.008 C 
ATOM     15  C   UNL     1      32.402  -5.215 -25.066  0.00  0.00    +0.028 C 
ATOM     16  C   UNL     1      31.759  -4.435 -23.963  0.00  0.00    -0.025 C 
ATOM     17  C   UNL     1      31.716  -4.318 -21.541  0.00  0.00    -0.003 C 
ATOM     18  C   UNL     1      30.807  -3.436 -24.069  0.00  0.00    -0.005 C 
ATOM     19  C   UNL     1      30.765  -3.301 -21.640  0.00  0.00    -0.000 C 
ATOM     20  C   UNL     1      30.312  -2.864 -22.896  0.00  0.00    -0.000 C 
ENDBRANCH  10  12
BRANCH   1  21
ATOM     21  C   UNL     1      32.738 -13.335 -22.866  0.00  0.00    +0.081 C 
ATOM     22  C   UNL     1      34.517 -14.572 -21.732  0.00  0.00    +0.061 C 
ATOM     23  C   UNL     1      33.069 -14.094 -21.563  0.00  0.00    +0.025 C 
ATOM     24  C   UNL     1      34.652 -14.777 -23.242  0.00  0.00    +0.115 C 
ATOM     25  C   UNL     1      33.933 -13.559 -23.814  0.00  0.00    +0.049 C 
BRANCH  24  26
ATOM     26  O   UNL     1      33.990 -15.966 -23.655  0.00  0.00    -0.384 OA
ATOM     27  H   UNL     1      34.223 -16.162 -24.576  0.00  0.00    +0.210 HD
ENDBRANCH  24  26
BRANCH  22  28
ATOM     28  C   UNL     1      34.828 -15.804 -20.895  0.00  0.00    +0.176 C 
BRANCH  28  29
ATOM     29  O   UNL     1      35.678 -16.659 -21.641  0.00  0.00    -0.230 OA
BRANCH  29  30
ATOM     30  S   UNL     1      35.604 -18.279 -21.417  0.00  0.00    +0.045 S 
ATOM     31  O   UNL     1      34.453 -18.578 -20.584  0.00  0.00    -0.056 OA
ATOM     32  O   UNL     1      35.740 -18.904 -22.720  0.00  0.00    -0.056 OA
BRANCH  30  33
ATOM     33  N   UNL     1      37.019 -18.640 -20.518  0.00  0.00    -0.204 NA
ATOM     34  H   UNL     1      36.851 -19.459 -19.935  0.00  0.00    +0.144 HD
ATOM     35  H   UNL     1      37.258 -17.845 -19.927  0.00  0.00    +0.144 HD
ENDBRANCH  30  33
ENDBRANCH  29  30
ENDBRANCH  28  29
ENDBRANCH  22  28
ENDBRANCH   1  21
TORSDOF 7
ENDMDL
