MODEL 1
REMARK VINA RESULT:     -12.9      0.000      0.000
REMARK  Name = 11560856
REMARK  5 active torsions:
REMARK  status: ('A' for Active; 'I' for Inactive)
REMARK    1  A    between atoms: C_2  and  O_24
REMARK    2  A    between atoms: C_3  and  N_10
REMARK    3  A    between atoms: C_12  and  C_16
REMARK    4  A    between atoms: C_16  and  C_18
REMARK    5  A    between atoms: O_24  and  C_28
REMARK                            x       y       z     vdW  Elec       q    Type
REMARK                         _______ _______ _______ _____ _____    ______ ____
ROOT
ATOM      1  F   UNL     1      36.909 -22.097 -18.387  0.00  0.00    -0.201 F 
ATOM      2  C   UNL     1      34.571 -22.182 -18.780  0.00  0.00    +0.173 C 
ATOM      3  C   UNL     1      34.745 -19.834 -20.237  0.00  0.00    +0.054 C 
ATOM      4  C   UNL     1      35.804 -21.570 -18.933  0.00  0.00    +0.176 C 
ATOM      5  C   UNL     1      33.423 -21.646 -19.338  0.00  0.00    +0.041 C 
ATOM      6  C   UNL     1      35.891 -20.388 -19.668  0.00  0.00    +0.047 C 
ATOM      7  C   UNL     1      33.511 -20.463 -20.072  0.00  0.00    +0.018 C 
ENDROOT
BRANCH   3  10
ATOM      8  O   UNL     1      34.660 -17.266 -25.032  0.00  0.00    -0.274 OA
ATOM      9  O   UNL     1      34.548 -19.368 -23.196  0.00  0.00    -0.252 OA
ATOM     10  N   UNL     1      34.833 -18.652 -20.973  0.00  0.00    -0.268 N 
ATOM     11  N   UNL     1      34.879 -17.121 -22.714  0.00  0.00    -0.239 N 
ATOM     12  C   UNL     1      34.833 -16.604 -24.012  0.00  0.00    +0.234 C 
ATOM     13  C   UNL     1      34.734 -18.479 -22.370  0.00  0.00    +0.310 C 
ATOM     14  H   UNL     1      34.984 -17.832 -20.450  0.00  0.00    +0.156 HD
ATOM     15  H   UNL     1      35.025 -16.482 -21.979  0.00  0.00    +0.159 HD
BRANCH  12  16
ATOM     16  C   UNL     1      35.027 -15.100 -24.012  0.00  0.00    +0.112 C 
BRANCH  16  18
ATOM     17  F   UNL     1      31.839 -12.445 -20.220  0.00  0.00    -0.204 F 
ATOM     18  C   UNL     1      34.173 -14.388 -22.996  0.00  0.00    -0.013 C 
ATOM     19  C   UNL     1      33.054 -13.684 -23.418  0.00  0.00    -0.001 C 
ATOM     20  C   UNL     1      34.518 -14.447 -21.654  0.00  0.00    -0.001 C 
ATOM     21  C   UNL     1      32.263 -13.025 -22.476  0.00  0.00    +0.029 C 
ATOM     22  C   UNL     1      33.727 -13.788 -20.712  0.00  0.00    +0.029 C 
ATOM     23  C   UNL     1      32.599 -13.078 -21.124  0.00  0.00    +0.140 C 
ENDBRANCH  16  18
ENDBRANCH  12  16
ENDBRANCH   3  10
BRANCH   2  24
ATOM     24  O   UNL     1      34.484 -23.354 -18.053  0.00  0.00    -0.451 OA
BRANCH  24  28
ATOM     25  N   UNL     1      35.021 -23.152 -13.433  0.00  0.00    -0.297 N 
ATOM     26  N   UNL     1      32.741 -23.133 -14.214  0.00  0.00    -0.229 NA
ATOM     27  C   UNL     1      34.729 -23.249 -15.645  0.00  0.00    +0.067 C 
ATOM     28  C   UNL     1      33.936 -23.282 -16.804  0.00  0.00    +0.150 C 
ATOM     29  C   UNL     1      34.070 -23.174 -14.420  0.00  0.00    +0.135 C 
ATOM     30  C   UNL     1      36.120 -23.270 -15.363  0.00  0.00    +0.022 C 
ATOM     31  C   UNL     1      36.269 -23.209 -13.994  0.00  0.00    +0.063 C 
ATOM     32  C   UNL     1      32.552 -23.241 -16.646  0.00  0.00    +0.058 C 
ATOM     33  C   UNL     1      32.027 -23.169 -15.362  0.00  0.00    +0.103 C 
ATOM     34  H   UNL     1      34.834 -23.101 -12.467  0.00  0.00    +0.154 HD
ENDBRANCH  24  28
ENDBRANCH   2  24
TORSDOF 5
ENDMDL
MODEL 2
REMARK VINA RESULT:     -12.9      3.945     11.029
REMARK  Name = 11560856
REMARK  5 active torsions:
REMARK  status: ('A' for Active; 'I' for Inactive)
REMARK    1  A    between atoms: C_2  and  O_24
REMARK    2  A    between atoms: C_3  and  N_10
REMARK    3  A    between atoms: C_12  and  C_16
REMARK    4  A    between atoms: C_16  and  C_18
REMARK    5  A    between atoms: O_24  and  C_28
REMARK                            x       y       z     vdW  Elec       q    Type
REMARK                         _______ _______ _______ _____ _____    ______ ____
ROOT
ATOM      1  F   UNL     1      34.224 -11.515 -24.062  0.00  0.00    -0.201 F 
ATOM      2  C   UNL     1      32.556 -11.878 -22.415  0.00  0.00    +0.173 C 
ATOM      3  C   UNL     1      33.880 -14.170 -21.602  0.00  0.00    +0.054 C 
ATOM      4  C   UNL     1      33.727 -12.248 -23.057  0.00  0.00    +0.176 C 
ATOM      5  C   UNL     1      32.033 -12.629 -21.377  0.00  0.00    +0.041 C 
ATOM      6  C   UNL     1      34.394 -13.402 -22.647  0.00  0.00    +0.047 C 
ATOM      7  C   UNL     1      32.700 -13.784 -20.967  0.00  0.00    +0.018 C 
ENDROOT
BRANCH   3  10
ATOM      8  O   UNL     1      36.175 -18.954 -22.806  0.00  0.00    -0.274 OA
ATOM      9  O   UNL     1      34.848 -16.526 -23.192  0.00  0.00    -0.252 OA
ATOM     10  N   UNL     1      34.548 -15.324 -21.191  0.00  0.00    -0.268 N 
ATOM     11  N   UNL     1      35.623 -17.379 -21.176  0.00  0.00    -0.239 N 
ATOM     12  C   UNL     1      36.172 -18.579 -21.636  0.00  0.00    +0.234 C 
ATOM     13  C   UNL     1      34.986 -16.411 -21.977  0.00  0.00    +0.310 C 
ATOM     14  H   UNL     1      34.739 -15.388 -20.228  0.00  0.00    +0.156 HD
ATOM     15  H   UNL     1      35.685 -17.196 -20.211  0.00  0.00    +0.159 HD
BRANCH  12  16
ATOM     16  C   UNL     1      36.775 -19.381 -20.499  0.00  0.00    +0.112 C 
BRANCH  16  18
ATOM     17  F   UNL     1      33.122 -22.892 -18.065  0.00  0.00    -0.204 F 
ATOM     18  C   UNL     1      35.796 -20.323 -19.848  0.00  0.00    -0.013 C 
ATOM     19  C   UNL     1      36.248 -21.228 -18.897  0.00  0.00    -0.001 C 
ATOM     20  C   UNL     1      34.457 -20.270 -20.206  0.00  0.00    -0.001 C 
ATOM     21  C   UNL     1      35.342 -22.099 -18.294  0.00  0.00    +0.029 C 
ATOM     22  C   UNL     1      33.550 -21.142 -19.602  0.00  0.00    +0.029 C 
ATOM     23  C   UNL     1      33.993 -22.055 -18.646  0.00  0.00    +0.140 C 
ENDBRANCH  16  18
ENDBRANCH  12  16
ENDBRANCH   3  10
BRANCH   2  24
ATOM     24  O   UNL     1      31.896 -10.735 -22.821  0.00  0.00    -0.451 OA
BRANCH  24  28
ATOM     25  N   UNL     1      32.305  -7.760 -19.263  0.00  0.00    -0.297 N 
ATOM     26  N   UNL     1      33.287  -7.033 -21.339  0.00  0.00    -0.229 NA
ATOM     27  C   UNL     1      32.125  -9.164 -20.990  0.00  0.00    +0.067 C 
ATOM     28  C   UNL     1      32.339  -9.541 -22.326  0.00  0.00    +0.150 C 
ATOM     29  C   UNL     1      32.619  -7.926 -20.586  0.00  0.00    +0.135 C 
ATOM     30  C   UNL     1      31.497  -9.746 -19.857  0.00  0.00    +0.022 C 
ATOM     31  C   UNL     1      31.624  -8.859 -18.809  0.00  0.00    +0.063 C 
ATOM     32  C   UNL     1      33.027  -8.652 -23.150  0.00  0.00    +0.058 C 
ATOM     33  C   UNL     1      33.464  -7.447 -22.616  0.00  0.00    +0.103 C 
ATOM     34  H   UNL     1      32.535  -6.970 -18.720  0.00  0.00    +0.154 HD
ENDBRANCH  24  28
ENDBRANCH   2  24
TORSDOF 5
ENDMDL
MODEL 3
REMARK VINA RESULT:     -12.7      4.105     11.266
REMARK  Name = 11560856
REMARK  5 active torsions:
REMARK  status: ('A' for Active; 'I' for Inactive)
REMARK    1  A    between atoms: C_2  and  O_24
REMARK    2  A    between atoms: C_3  and  N_10
REMARK    3  A    between atoms: C_12  and  C_16
REMARK    4  A    between atoms: C_16  and  C_18
REMARK    5  A    between atoms: O_24  and  C_28
REMARK                            x       y       z     vdW  Elec       q    Type
REMARK                         _______ _______ _______ _____ _____    ______ ____
ROOT
ATOM      1  F   UNL     1      33.934 -11.456 -23.738  0.00  0.00    -0.201 F 
ATOM      2  C   UNL     1      32.374 -11.869 -21.999  0.00  0.00    +0.173 C 
ATOM      3  C   UNL     1      33.766 -14.163 -21.316  0.00  0.00    +0.054 C 
ATOM      4  C   UNL     1      33.507 -12.214 -22.719  0.00  0.00    +0.176 C 
ATOM      5  C   UNL     1      31.923 -12.646 -20.946  0.00  0.00    +0.041 C 
ATOM      6  C   UNL     1      34.208 -13.369 -22.374  0.00  0.00    +0.047 C 
ATOM      7  C   UNL     1      32.624 -13.801 -20.602  0.00  0.00    +0.018 C 
ENDROOT
BRANCH   3  10
ATOM      8  O   UNL     1      36.251 -18.773 -22.793  0.00  0.00    -0.274 OA
ATOM      9  O   UNL     1      34.844 -16.372 -23.041  0.00  0.00    -0.252 OA
ATOM     10  N   UNL     1      34.469 -15.318 -20.970  0.00  0.00    -0.268 N 
ATOM     11  N   UNL     1      35.616 -17.331 -21.072  0.00  0.00    -0.239 N 
ATOM     12  C   UNL     1      36.215 -18.477 -21.601  0.00  0.00    +0.234 C 
ATOM     13  C   UNL     1      34.958 -16.334 -21.819  0.00  0.00    +0.310 C 
ATOM     14  H   UNL     1      34.646 -15.441 -20.010  0.00  0.00    +0.156 HD
ATOM     15  H   UNL     1      35.656 -17.211 -20.096  0.00  0.00    +0.159 HD
BRANCH  12  16
ATOM     16  C   UNL     1      36.828 -19.332 -20.508  0.00  0.00    +0.112 C 
BRANCH  16  18
ATOM     17  F   UNL     1      33.167 -22.877 -18.135  0.00  0.00    -0.204 F 
ATOM     18  C   UNL     1      35.847 -20.281 -19.872  0.00  0.00    -0.013 C 
ATOM     19  C   UNL     1      34.503 -20.201 -20.207  0.00  0.00    -0.001 C 
ATOM     20  C   UNL     1      36.302 -21.223 -18.960  0.00  0.00    -0.001 C 
ATOM     21  C   UNL     1      33.594 -21.080 -19.618  0.00  0.00    +0.029 C 
ATOM     22  C   UNL     1      35.393 -22.103 -18.371  0.00  0.00    +0.029 C 
ATOM     23  C   UNL     1      34.040 -22.032 -18.700  0.00  0.00    +0.140 C 
ENDBRANCH  16  18
ENDBRANCH  12  16
ENDBRANCH   3  10
BRANCH   2  24
ATOM     24  O   UNL     1      31.680 -10.725 -22.340  0.00  0.00    -0.451 OA
BRANCH  24  28
ATOM     25  N   UNL     1      33.624  -6.495 -22.408  0.00  0.00    -0.297 N 
ATOM     26  N   UNL     1      32.687  -7.171 -20.294  0.00  0.00    -0.229 NA
ATOM     27  C   UNL     1      32.685  -8.519 -22.341  0.00  0.00    +0.067 C 
ATOM     28  C   UNL     1      32.013  -9.568 -21.692  0.00  0.00    +0.150 C 
ATOM     29  C   UNL     1      32.976  -7.384 -21.590  0.00  0.00    +0.135 C 
ATOM     30  C   UNL     1      33.182  -8.286 -23.650  0.00  0.00    +0.022 C 
ATOM     31  C   UNL     1      33.754  -7.032 -23.661  0.00  0.00    +0.063 C 
ATOM     32  C   UNL     1      31.688  -9.399 -20.347  0.00  0.00    +0.058 C 
ATOM     33  C   UNL     1      32.042  -8.212 -19.719  0.00  0.00    +0.103 C 
ATOM     34  H   UNL     1      33.947  -5.605 -22.135  0.00  0.00    +0.154 HD
ENDBRANCH  24  28
ENDBRANCH   2  24
TORSDOF 5
ENDMDL
MODEL 4
REMARK VINA RESULT:     -12.5      4.415     11.888
REMARK  Name = 11560856
REMARK  5 active torsions:
REMARK  status: ('A' for Active; 'I' for Inactive)
REMARK    1  A    between atoms: C_2  and  O_24
REMARK    2  A    between atoms: C_3  and  N_10
REMARK    3  A    between atoms: C_12  and  C_16
REMARK    4  A    between atoms: C_16  and  C_18
REMARK    5  A    between atoms: O_24  and  C_28
REMARK                            x       y       z     vdW  Elec       q    Type
REMARK                         _______ _______ _______ _____ _____    ______ ____
ROOT
ATOM      1  F   UNL     1      30.657 -11.614 -20.805  0.00  0.00    -0.201 F 
ATOM      2  C   UNL     1      32.194 -11.166 -22.554  0.00  0.00    +0.173 C 
ATOM      3  C   UNL     1      33.588 -13.467 -21.898  0.00  0.00    +0.054 C 
ATOM      4  C   UNL     1      31.748 -11.952 -21.504  0.00  0.00    +0.176 C 
ATOM      5  C   UNL     1      33.322 -11.505 -23.283  0.00  0.00    +0.041 C 
ATOM      6  C   UNL     1      32.449 -13.111 -21.175  0.00  0.00    +0.047 C 
ATOM      7  C   UNL     1      34.023 -12.665 -22.952  0.00  0.00    +0.018 C 
ENDROOT
BRANCH   3  10
ATOM      8  O   UNL     1      35.519 -18.353 -23.312  0.00  0.00    -0.274 OA
ATOM      9  O   UNL     1      34.206 -15.899 -23.547  0.00  0.00    -0.252 OA
ATOM     10  N   UNL     1      34.288 -14.628 -21.568  0.00  0.00    -0.268 N 
ATOM     11  N   UNL     1      35.297 -16.714 -21.667  0.00  0.00    -0.239 N 
ATOM     12  C   UNL     1      35.728 -17.943 -22.173  0.00  0.00    +0.234 C 
ATOM     13  C   UNL     1      34.556 -15.751 -22.380  0.00  0.00    +0.310 C 
ATOM     14  H   UNL     1      34.642 -14.669 -20.651  0.00  0.00    +0.156 HD
ATOM     15  H   UNL     1      35.531 -16.504 -20.734  0.00  0.00    +0.159 HD
BRANCH  12  16
ATOM     16  C   UNL     1      36.499 -18.728 -21.129  0.00  0.00    +0.112 C 
BRANCH  16  18
ATOM     17  F   UNL     1      33.389 -22.613 -18.517  0.00  0.00    -0.204 F 
ATOM     18  C   UNL     1      35.666 -19.769 -20.428  0.00  0.00    -0.013 C 
ATOM     19  C   UNL     1      34.288 -19.765 -20.594  0.00  0.00    -0.001 C 
ATOM     20  C   UNL     1      36.288 -20.716 -19.629  0.00  0.00    -0.001 C 
ATOM     21  C   UNL     1      33.516 -20.729 -19.945  0.00  0.00    +0.029 C 
ATOM     22  C   UNL     1      35.516 -21.680 -18.980  0.00  0.00    +0.029 C 
ATOM     23  C   UNL     1      34.131 -21.687 -19.139  0.00  0.00    +0.140 C 
ENDBRANCH  16  18
ENDBRANCH  12  16
ENDBRANCH   3  10
BRANCH   2  24
ATOM     24  O   UNL     1      31.499 -10.019 -22.882  0.00  0.00    -0.451 OA
BRANCH  24  28
ATOM     25  N   UNL     1      32.992  -5.716 -23.849  0.00  0.00    -0.297 N 
ATOM     26  N   UNL     1      33.094  -6.351 -21.527  0.00  0.00    -0.229 NA
ATOM     27  C   UNL     1      32.284  -7.774 -23.352  0.00  0.00    +0.067 C 
ATOM     28  C   UNL     1      32.015  -8.826 -22.460  0.00  0.00    +0.150 C 
ATOM     29  C   UNL     1      32.808  -6.600 -22.818  0.00  0.00    +0.135 C 
ATOM     30  C   UNL     1      32.155  -7.570 -24.751  0.00  0.00    +0.022 C 
ATOM     31  C   UNL     1      32.598  -6.294 -25.027  0.00  0.00    +0.063 C 
ATOM     32  C   UNL     1      32.293  -8.620 -21.110  0.00  0.00    +0.058 C 
ATOM     33  C   UNL     1      32.817  -7.397 -20.714  0.00  0.00    +0.103 C 
ATOM     34  H   UNL     1      33.351  -4.803 -23.756  0.00  0.00    +0.154 HD
ENDBRANCH  24  28
ENDBRANCH   2  24
TORSDOF 5
ENDMDL
MODEL 5
REMARK VINA RESULT:     -12.4      3.026      9.679
REMARK  Name = 11560856
REMARK  5 active torsions:
REMARK  status: ('A' for Active; 'I' for Inactive)
REMARK    1  A    between atoms: C_2  and  O_24
REMARK    2  A    between atoms: C_3  and  N_10
REMARK    3  A    between atoms: C_12  and  C_16
REMARK    4  A    between atoms: C_16  and  C_18
REMARK    5  A    between atoms: O_24  and  C_28
REMARK                            x       y       z     vdW  Elec       q    Type
REMARK                         _______ _______ _______ _____ _____    ______ ____
ROOT
ATOM      1  F   UNL     1      37.074 -21.397 -19.881  0.00  0.00    -0.201 F 
ATOM      2  C   UNL     1      35.160 -20.166 -20.550  0.00  0.00    +0.173 C 
ATOM      3  C   UNL     1      33.612 -21.652 -18.801  0.00  0.00    +0.054 C 
ATOM      4  C   UNL     1      35.761 -21.152 -19.785  0.00  0.00    +0.176 C 
ATOM      5  C   UNL     1      33.803 -19.906 -20.460  0.00  0.00    +0.041 C 
ATOM      6  C   UNL     1      34.980 -21.900 -18.903  0.00  0.00    +0.047 C 
ATOM      7  C   UNL     1      33.023 -20.654 -19.579  0.00  0.00    +0.018 C 
ENDROOT
BRANCH   3  10
ATOM      8  O   UNL     1      33.105 -24.337 -14.096  0.00  0.00    -0.274 OA
ATOM      9  O   UNL     1      34.296 -22.832 -16.126  0.00  0.00    -0.252 OA
ATOM     10  N   UNL     1      32.832 -22.399 -17.917  0.00  0.00    -0.268 N 
ATOM     11  N   UNL     1      32.115 -23.628 -16.086  0.00  0.00    -0.239 N 
ATOM     12  C   UNL     1      32.136 -24.279 -14.850  0.00  0.00    +0.234 C 
ATOM     13  C   UNL     1      33.197 -22.936 -16.664  0.00  0.00    +0.310 C 
ATOM     14  H   UNL     1      31.908 -22.575 -18.205  0.00  0.00    +0.156 HD
ATOM     15  H   UNL     1      31.273 -23.656 -16.596  0.00  0.00    +0.159 HD
BRANCH  12  16
ATOM     16  C   UNL     1      30.796 -24.920 -14.542  0.00  0.00    +0.112 C 
BRANCH  16  18
ATOM     17  F   UNL     1      26.417 -21.901 -16.359  0.00  0.00    -0.204 F 
ATOM     18  C   UNL     1      29.622 -24.112 -15.028  0.00  0.00    -0.013 C 
ATOM     19  C   UNL     1      29.320 -22.906 -14.410  0.00  0.00    -0.001 C 
ATOM     20  C   UNL     1      28.861 -24.583 -16.088  0.00  0.00    -0.001 C 
ATOM     21  C   UNL     1      28.233 -22.157 -14.861  0.00  0.00    +0.029 C 
ATOM     22  C   UNL     1      27.774 -23.834 -16.539  0.00  0.00    +0.029 C 
ATOM     23  C   UNL     1      27.461 -22.622 -15.926  0.00  0.00    +0.140 C 
ENDBRANCH  16  18
ENDBRANCH  12  16
ENDBRANCH   3  10
BRANCH   2  24
ATOM     24  O   UNL     1      35.933 -19.424 -21.423  0.00  0.00    -0.451 OA
BRANCH  24  28
ATOM     25  N   UNL     1      34.383 -15.729 -23.794  0.00  0.00    -0.297 N 
ATOM     26  N   UNL     1      34.021 -17.865 -24.850  0.00  0.00    -0.229 NA
ATOM     27  C   UNL     1      35.114 -17.522 -22.682  0.00  0.00    +0.067 C 
ATOM     28  C   UNL     1      35.316 -18.903 -22.525  0.00  0.00    +0.150 C 
ATOM     29  C   UNL     1      34.476 -17.096 -23.844  0.00  0.00    +0.135 C 
ATOM     30  C   UNL     1      35.406 -16.359 -21.922  0.00  0.00    +0.022 C 
ATOM     31  C   UNL     1      34.945 -15.271 -22.632  0.00  0.00    +0.063 C 
ATOM     32  C   UNL     1      34.864 -19.746 -23.540  0.00  0.00    +0.058 C 
ATOM     33  C   UNL     1      34.240 -19.184 -24.646  0.00  0.00    +0.103 C 
ATOM     34  H   UNL     1      33.974 -15.164 -24.490  0.00  0.00    +0.154 HD
ENDBRANCH  24  28
ENDBRANCH   2  24
TORSDOF 5
ENDMDL
MODEL 6
REMARK VINA RESULT:     -12.4      4.094      5.910
REMARK  Name = 11560856
REMARK  5 active torsions:
REMARK  status: ('A' for Active; 'I' for Inactive)
REMARK    1  A    between atoms: C_2  and  O_24
REMARK    2  A    between atoms: C_3  and  N_10
REMARK    3  A    between atoms: C_12  and  C_16
REMARK    4  A    between atoms: C_16  and  C_18
REMARK    5  A    between atoms: O_24  and  C_28
REMARK                            x       y       z     vdW  Elec       q    Type
REMARK                         _______ _______ _______ _____ _____    ______ ____
ROOT
ATOM      1  F   UNL     1      34.953 -18.541 -24.282  0.00  0.00    -0.201 F 
ATOM      2  C   UNL     1      35.311 -17.888 -22.030  0.00  0.00    +0.173 C 
ATOM      3  C   UNL     1      34.577 -15.299 -22.680  0.00  0.00    +0.054 C 
ATOM      4  C   UNL     1      34.950 -17.594 -23.335  0.00  0.00    +0.176 C 
ATOM      5  C   UNL     1      35.313 -16.917 -21.043  0.00  0.00    +0.041 C 
ATOM      6  C   UNL     1      34.580 -16.289 -23.661  0.00  0.00    +0.047 C 
ATOM      7  C   UNL     1      34.943 -15.612 -21.371  0.00  0.00    +0.018 C 
ENDROOT
BRANCH   3  10
ATOM      8  O   UNL     1      31.261 -11.042 -21.984  0.00  0.00    -0.274 OA
ATOM      9  O   UNL     1      32.336 -13.596 -21.634  0.00  0.00    -0.252 OA
ATOM     10  N   UNL     1      34.206 -13.994 -23.007  0.00  0.00    -0.268 N 
ATOM     11  N   UNL     1      33.106 -11.954 -23.084  0.00  0.00    -0.239 N 
ATOM     12  C   UNL     1      32.177 -10.949 -22.798  0.00  0.00    +0.234 C 
ATOM     13  C   UNL     1      33.139 -13.230 -22.487  0.00  0.00    +0.310 C 
ATOM     14  H   UNL     1      34.758 -13.549 -23.689  0.00  0.00    +0.156 HD
ATOM     15  H   UNL     1      33.793 -11.753 -23.759  0.00  0.00    +0.159 HD
BRANCH  12  16
ATOM     16  C   UNL     1      32.438  -9.706 -23.626  0.00  0.00    +0.112 C 
BRANCH  16  18
ATOM     17  F   UNL     1      31.823  -4.931 -20.726  0.00  0.00    -0.204 F 
ATOM     18  C   UNL     1      32.274  -8.426 -22.850  0.00  0.00    -0.013 C 
ATOM     19  C   UNL     1      31.137  -7.652 -23.041  0.00  0.00    -0.001 C 
ATOM     20  C   UNL     1      33.260  -8.040 -21.954  0.00  0.00    -0.001 C 
ATOM     21  C   UNL     1      30.985  -6.467 -22.321  0.00  0.00    +0.029 C 
ATOM     22  C   UNL     1      33.108  -6.854 -21.234  0.00  0.00    +0.029 C 
ATOM     23  C   UNL     1      31.970  -6.069 -21.417  0.00  0.00    +0.140 C 
ENDBRANCH  16  18
ENDBRANCH  12  16
ENDBRANCH   3  10
BRANCH   2  24
ATOM     24  O   UNL     1      35.676 -19.180 -21.706  0.00  0.00    -0.451 OA
BRANCH  24  28
ATOM     25  N   UNL     1      35.115 -22.036 -18.072  0.00  0.00    -0.297 N 
ATOM     26  N   UNL     1      33.083 -21.320 -19.151  0.00  0.00    -0.229 NA
ATOM     27  C   UNL     1      35.349 -20.666 -19.819  0.00  0.00    +0.067 C 
ATOM     28  C   UNL     1      34.851 -19.879 -20.870  0.00  0.00    +0.150 C 
ATOM     29  C   UNL     1      34.423 -21.336 -19.026  0.00  0.00    +0.135 C 
ATOM     30  C   UNL     1      36.636 -20.985 -19.310  0.00  0.00    +0.022 C 
ATOM     31  C   UNL     1      36.460 -21.830 -18.234  0.00  0.00    +0.063 C 
ATOM     32  C   UNL     1      33.469 -19.826 -21.044  0.00  0.00    +0.058 C 
ATOM     33  C   UNL     1      32.659 -20.549 -20.178  0.00  0.00    +0.103 C 
ATOM     34  H   UNL     1      34.707 -22.600 -17.375  0.00  0.00    +0.154 HD
ENDBRANCH  24  28
ENDBRANCH   2  24
TORSDOF 5
ENDMDL
MODEL 7
REMARK VINA RESULT:     -12.1      2.562      4.055
REMARK  Name = 11560856
REMARK  5 active torsions:
REMARK  status: ('A' for Active; 'I' for Inactive)
REMARK    1  A    between atoms: C_2  and  O_24
REMARK    2  A    between atoms: C_3  and  N_10
REMARK    3  A    between atoms: C_12  and  C_16
REMARK    4  A    between atoms: C_16  and  C_18
REMARK    5  A    between atoms: O_24  and  C_28
REMARK                            x       y       z     vdW  Elec       q    Type
REMARK                         _______ _______ _______ _____ _____    ______ ____
ROOT
ATOM      1  F   UNL     1      32.382 -24.147 -16.075  0.00  0.00    -0.201 F 
ATOM      2  C   UNL     1      34.626 -23.505 -15.650  0.00  0.00    +0.173 C 
ATOM      3  C   UNL     1      34.664 -22.108 -18.040  0.00  0.00    +0.054 C 
ATOM      4  C   UNL     1      33.492 -23.493 -16.445  0.00  0.00    +0.176 C 
ATOM      5  C   UNL     1      35.778 -22.834 -16.023  0.00  0.00    +0.041 C 
ATOM      6  C   UNL     1      33.511 -22.789 -17.649  0.00  0.00    +0.047 C 
ATOM      7  C   UNL     1      35.797 -22.131 -17.227  0.00  0.00    +0.018 C 
ENDROOT
BRANCH   3  10
ATOM      8  O   UNL     1      37.100 -18.568 -21.376  0.00  0.00    -0.274 OA
ATOM      9  O   UNL     1      36.673 -20.154 -19.117  0.00  0.00    -0.252 OA
ATOM     10  N   UNL     1      34.682 -21.403 -19.244  0.00  0.00    -0.268 N 
ATOM     11  N   UNL     1      35.297 -19.994 -20.981  0.00  0.00    -0.239 N 
ATOM     12  C   UNL     1      36.037 -19.073 -21.727  0.00  0.00    +0.234 C 
ATOM     13  C   UNL     1      35.652 -20.490 -19.710  0.00  0.00    +0.310 C 
ATOM     14  H   UNL     1      33.920 -21.562 -19.845  0.00  0.00    +0.156 HD
ATOM     15  H   UNL     1      34.458 -20.324 -21.375  0.00  0.00    +0.159 HD
BRANCH  12  16
ATOM     16  C   UNL     1      35.358 -18.762 -23.047  0.00  0.00    +0.112 C 
BRANCH  16  18
ATOM     17  F   UNL     1      33.911 -13.358 -23.591  0.00  0.00    -0.204 F 
ATOM     18  C   UNL     1      34.969 -17.314 -23.192  0.00  0.00    -0.013 C 
ATOM     19  C   UNL     1      35.057 -16.470 -22.094  0.00  0.00    -0.001 C 
ATOM     20  C   UNL     1      34.531 -16.846 -24.422  0.00  0.00    -0.001 C 
ATOM     21  C   UNL     1      34.697 -15.129 -22.230  0.00  0.00    +0.029 C 
ATOM     22  C   UNL     1      34.171 -15.505 -24.557  0.00  0.00    +0.029 C 
ATOM     23  C   UNL     1      34.256 -14.646 -23.462  0.00  0.00    +0.140 C 
ENDBRANCH  16  18
ENDBRANCH  12  16
ENDBRANCH   3  10
BRANCH   2  24
ATOM     24  O   UNL     1      34.606 -24.201 -14.457  0.00  0.00    -0.451 OA
BRANCH  24  28
ATOM     25  N   UNL     1      38.408 -24.506 -11.786  0.00  0.00    -0.297 N 
ATOM     26  N   UNL     1      38.113 -26.292 -13.377  0.00  0.00    -0.229 NA
ATOM     27  C   UNL     1      36.594 -24.389 -13.084  0.00  0.00    +0.067 C 
ATOM     28  C   UNL     1      35.745 -24.866 -14.095  0.00  0.00    +0.150 C 
ATOM     29  C   UNL     1      37.728 -25.143 -12.792  0.00  0.00    +0.135 C 
ATOM     30  C   UNL     1      36.611 -23.267 -12.214  0.00  0.00    +0.022 C 
ATOM     31  C   UNL     1      37.739 -23.366 -11.427  0.00  0.00    +0.063 C 
ATOM     32  C   UNL     1      36.096 -26.054 -14.734  0.00  0.00    +0.058 C 
ATOM     33  C   UNL     1      37.260 -26.703 -14.343  0.00  0.00    +0.103 C 
ATOM     34  H   UNL     1      39.250 -24.822 -11.383  0.00  0.00    +0.154 HD
ENDBRANCH  24  28
ENDBRANCH   2  24
TORSDOF 5
ENDMDL
MODEL 8
REMARK VINA RESULT:     -12.0      5.121     12.396
REMARK  Name = 11560856
REMARK  5 active torsions:
REMARK  status: ('A' for Active; 'I' for Inactive)
REMARK    1  A    between atoms: C_2  and  O_24
REMARK    2  A    between atoms: C_3  and  N_10
REMARK    3  A    between atoms: C_12  and  C_16
REMARK    4  A    between atoms: C_16  and  C_18
REMARK    5  A    between atoms: O_24  and  C_28
REMARK                            x       y       z     vdW  Elec       q    Type
REMARK                         _______ _______ _______ _____ _____    ______ ____
ROOT
ATOM      1  F   UNL     1      30.229 -10.714 -21.415  0.00  0.00    -0.201 F 
ATOM      2  C   UNL     1      31.947 -10.097 -22.930  0.00  0.00    +0.173 C 
ATOM      3  C   UNL     1      32.954 -12.673 -22.814  0.00  0.00    +0.054 C 
ATOM      4  C   UNL     1      31.315 -11.036 -22.131  0.00  0.00    +0.176 C 
ATOM      5  C   UNL     1      33.071 -10.418 -23.672  0.00  0.00    +0.041 C 
ATOM      6  C   UNL     1      31.823 -12.333 -22.074  0.00  0.00    +0.047 C 
ATOM      7  C   UNL     1      33.578 -11.716 -23.614  0.00  0.00    +0.018 C 
ENDROOT
BRANCH   3  10
ATOM      8  O   UNL     1      35.654 -16.552 -20.119  0.00  0.00    -0.274 OA
ATOM      9  O   UNL     1      34.489 -14.068 -20.643  0.00  0.00    -0.252 OA
ATOM     10  N   UNL     1      33.460 -13.972 -22.758  0.00  0.00    -0.268 N 
ATOM     11  N   UNL     1      34.510 -15.916 -22.050  0.00  0.00    -0.239 N 
ATOM     12  C   UNL     1      35.220 -16.806 -21.240  0.00  0.00    +0.234 C 
ATOM     13  C   UNL     1      34.179 -14.588 -21.711  0.00  0.00    +0.310 C 
ATOM     14  H   UNL     1      33.295 -14.532 -23.550  0.00  0.00    +0.156 HD
ATOM     15  H   UNL     1      34.217 -16.243 -22.931  0.00  0.00    +0.159 HD
BRANCH  12  16
ATOM     16  C   UNL     1      35.396 -18.149 -21.921  0.00  0.00    +0.112 C 
BRANCH  16  18
ATOM     17  F   UNL     1      34.990 -22.504 -18.391  0.00  0.00    -0.204 F 
ATOM     18  C   UNL     1      35.287 -19.317 -20.976  0.00  0.00    -0.013 C 
ATOM     19  C   UNL     1      36.440 -19.857 -20.422  0.00  0.00    -0.001 C 
ATOM     20  C   UNL     1      34.037 -19.835 -20.673  0.00  0.00    -0.001 C 
ATOM     21  C   UNL     1      36.338 -20.938 -19.546  0.00  0.00    +0.029 C 
ATOM     22  C   UNL     1      33.936 -20.916 -19.797  0.00  0.00    +0.029 C 
ATOM     23  C   UNL     1      35.086 -21.467 -19.233  0.00  0.00    +0.140 C 
ENDBRANCH  16  18
ENDBRANCH  12  16
ENDBRANCH   3  10
BRANCH   2  24
ATOM     24  O   UNL     1      31.444  -8.812 -22.988  0.00  0.00    -0.451 OA
BRANCH  24  28
ATOM     25  N   UNL     1      31.682  -4.442 -21.397  0.00  0.00    -0.297 N 
ATOM     26  N   UNL     1      32.827  -6.093 -20.068  0.00  0.00    -0.229 NA
ATOM     27  C   UNL     1      31.588  -6.548 -22.134  0.00  0.00    +0.067 C 
ATOM     28  C   UNL     1      31.884  -7.919 -22.052  0.00  0.00    +0.150 C 
ATOM     29  C   UNL     1      32.083  -5.725 -21.127  0.00  0.00    +0.135 C 
ATOM     30  C   UNL     1      30.867  -5.716 -23.030  0.00  0.00    +0.022 C 
ATOM     31  C   UNL     1      30.942  -4.425 -22.550  0.00  0.00    +0.063 C 
ATOM     32  C   UNL     1      32.651  -8.355 -20.973  0.00  0.00    +0.058 C 
ATOM     33  C   UNL     1      33.083  -7.422 -20.040  0.00  0.00    +0.103 C 
ATOM     34  H   UNL     1      31.893  -3.654 -20.846  0.00  0.00    +0.154 HD
ENDBRANCH  24  28
ENDBRANCH   2  24
TORSDOF 5
ENDMDL
MODEL 9
REMARK VINA RESULT:     -11.9      3.067     10.757
REMARK  Name = 11560856
REMARK  5 active torsions:
REMARK  status: ('A' for Active; 'I' for Inactive)
REMARK    1  A    between atoms: C_2  and  O_24
REMARK    2  A    between atoms: C_3  and  N_10
REMARK    3  A    between atoms: C_12  and  C_16
REMARK    4  A    between atoms: C_16  and  C_18
REMARK    5  A    between atoms: O_24  and  C_28
REMARK                            x       y       z     vdW  Elec       q    Type
REMARK                         _______ _______ _______ _____ _____    ______ ____
ROOT
ATOM      1  F   UNL     1      33.561 -19.416 -22.120  0.00  0.00    -0.201 F 
ATOM      2  C   UNL     1      35.780 -18.667 -21.742  0.00  0.00    +0.173 C 
ATOM      3  C   UNL     1      36.058 -20.554 -19.735  0.00  0.00    +0.054 C 
ATOM      4  C   UNL     1      34.717 -19.506 -21.449  0.00  0.00    +0.176 C 
ATOM      5  C   UNL     1      36.978 -18.751 -21.054  0.00  0.00    +0.041 C 
ATOM      6  C   UNL     1      34.858 -20.457 -20.439  0.00  0.00    +0.047 C 
ATOM      7  C   UNL     1      37.118 -19.701 -20.043  0.00  0.00    +0.018 C 
ENDROOT
BRANCH   3  10
ATOM      8  O   UNL     1      37.773 -21.901 -14.750  0.00  0.00    -0.274 OA
ATOM      9  O   UNL     1      37.290 -20.326 -17.006  0.00  0.00    -0.252 OA
ATOM     10  N   UNL     1      36.199 -21.507 -18.725  0.00  0.00    -0.268 N 
ATOM     11  N   UNL     1      36.729 -22.562 -16.729  0.00  0.00    -0.239 N 
ATOM     12  C   UNL     1      37.221 -22.758 -15.436  0.00  0.00    +0.234 C 
ATOM     13  C   UNL     1      36.788 -21.354 -17.452  0.00  0.00    +0.310 C 
ATOM     14  H   UNL     1      35.842 -22.401 -18.927  0.00  0.00    +0.156 HD
ATOM     15  H   UNL     1      36.306 -23.333 -17.172  0.00  0.00    +0.159 HD
BRANCH  12  16
ATOM     16  C   UNL     1      36.988 -24.182 -14.968  0.00  0.00    +0.112 C 
BRANCH  16  18
ATOM     17  F   UNL     1      35.721 -24.549  -9.504  0.00  0.00    -0.204 F 
ATOM     18  C   UNL     1      36.648 -24.281 -13.504  0.00  0.00    -0.013 C 
ATOM     19  C   UNL     1      37.648 -24.584 -12.590  0.00  0.00    -0.001 C 
ATOM     20  C   UNL     1      35.342 -24.067 -13.091  0.00  0.00    -0.001 C 
ATOM     21  C   UNL     1      37.333 -24.676 -11.234  0.00  0.00    +0.029 C 
ATOM     22  C   UNL     1      35.027 -24.159 -11.735  0.00  0.00    +0.029 C 
ATOM     23  C   UNL     1      36.022 -24.462 -10.807  0.00  0.00    +0.140 C 
ENDBRANCH  16  18
ENDBRANCH  12  16
ENDBRANCH   3  10
BRANCH   2  24
ATOM     24  O   UNL     1      35.641 -17.726 -22.743  0.00  0.00    -0.451 OA
BRANCH  24  28
ATOM     25  N   UNL     1      33.254 -13.935 -24.013  0.00  0.00    -0.297 N 
ATOM     26  N   UNL     1      33.836 -14.060 -21.678  0.00  0.00    -0.229 NA
ATOM     27  C   UNL     1      34.400 -15.741 -23.371  0.00  0.00    +0.067 C 
ATOM     28  C   UNL     1      35.052 -16.537 -22.415  0.00  0.00    +0.150 C 
ATOM     29  C   UNL     1      33.832 -14.549 -22.932  0.00  0.00    +0.135 C 
ATOM     30  C   UNL     1      34.144 -15.831 -24.765  0.00  0.00    +0.022 C 
ATOM     31  C   UNL     1      33.437 -14.705 -25.131  0.00  0.00    +0.063 C 
ATOM     32  C   UNL     1      35.085 -16.078 -21.100  0.00  0.00    +0.058 C 
ATOM     33  C   UNL     1      34.478 -14.865 -20.800  0.00  0.00    +0.103 C 
ATOM     34  H   UNL     1      32.779 -13.073 -23.988  0.00  0.00    +0.154 HD
ENDBRANCH  24  28
ENDBRANCH   2  24
TORSDOF 5
ENDMDL
