MODEL 1
REMARK VINA RESULT:     -11.1      0.000      0.000
REMARK  Name = 25052630
REMARK  6 active torsions:
REMARK  status: ('A' for Active; 'I' for Inactive)
REMARK    1  A    between atoms: N_2  and  C_11
REMARK    2  A    between atoms: C_4  and  C_20
REMARK    3  A    between atoms: C_20  and  C_21
REMARK    4  A    between atoms: C_21  and  N_22
REMARK    5  A    between atoms: N_22  and  C_25
REMARK    6  A    between atoms: C_25  and  C_26
REMARK                            x       y       z     vdW  Elec       q    Type
REMARK                         _______ _______ _______ _____ _____    ______ ____
ROOT
ATOM      1  S   UNL     1      37.229 -27.003 -13.758  0.00  0.00    -0.018 S 
ATOM      2  N   UNL     1      36.420 -24.451 -14.577  0.00  0.00    -0.270 N 
ATOM      3  N   UNL     1      38.634 -24.847 -14.662  0.00  0.00    -0.294 N 
ATOM      4  C   UNL     1      37.082 -23.317 -15.045  0.00  0.00    +0.043 C 
ATOM      5  C   UNL     1      37.402 -25.453 -14.323  0.00  0.00    +0.142 C 
ATOM      6  C   UNL     1      38.400 -23.568 -15.090  0.00  0.00    +0.074 C 
ATOM      7  H   UNL     1      39.518 -25.276 -14.599  0.00  0.00    +0.154 HD
ENDROOT
BRANCH   2  11
ATOM      8  F   UNL     1      30.562 -24.085 -12.227  0.00  0.00    -0.201 F 
ATOM      9  F   UNL     1      29.651 -22.577 -16.616  0.00  0.00    -0.204 F 
ATOM     10  O   UNL     1      33.178 -24.307 -12.767  0.00  0.00    -0.472 OA
ATOM     11  C   UNL     1      34.994 -24.539 -14.399  0.00  0.00    +0.127 C 
ATOM     12  C   UNL     1      34.255 -23.685 -15.426  0.00  0.00    +0.054 C 
ATOM     13  C   UNL     1      34.575 -24.098 -13.001  0.00  0.00    +0.226 C 
ATOM     14  C   UNL     1      32.802 -23.565 -15.064  0.00  0.00    +0.018 C 
ATOM     15  C   UNL     1      32.354 -23.868 -13.771  0.00  0.00    +0.162 C 
ATOM     16  C   UNL     1      31.879 -23.120 -16.020  0.00  0.00    +0.029 C 
ATOM     17  C   UNL     1      30.997 -23.763 -13.453  0.00  0.00    +0.176 C 
ATOM     18  C   UNL     1      30.526 -23.004 -15.695  0.00  0.00    +0.142 C 
ATOM     19  C   UNL     1      30.086 -23.330 -14.415  0.00  0.00    +0.062 C 
ENDBRANCH   2  11
BRANCH   4  20
ATOM     20  C   UNL     1      36.376 -22.067 -15.415  0.00  0.00    +0.019 C 
BRANCH  20  21
ATOM     21  C   UNL     1      37.058 -21.364 -16.589  0.00  0.00    -0.075 C 
BRANCH  21  22
ATOM     22  N   UNL     1      36.843 -22.107 -17.825  0.00  0.00    +0.387 N 
ATOM     23  H   UNL     1      35.969 -22.627 -17.754  0.00  0.00    -0.084 HD
ATOM     24  H   UNL     1      37.627 -22.746 -17.962  0.00  0.00    -0.084 HD
BRANCH  22  25
ATOM     25  C   UNL     1      36.772 -21.207 -18.967  0.00  0.00    -0.054 C 
BRANCH  25  26
ATOM     26  C   UNL     1      35.351 -20.958 -19.397  0.00  0.00    -0.044 C 
ATOM     27  C   UNL     1      34.306 -21.656 -18.790  0.00  0.00    -0.006 C 
ATOM     28  C   UNL     1      35.079 -20.029 -20.401  0.00  0.00    -0.006 C 
ATOM     29  C   UNL     1      32.990 -21.424 -19.188  0.00  0.00    -0.000 C 
ATOM     30  C   UNL     1      33.761 -19.798 -20.798  0.00  0.00    -0.000 C 
ATOM     31  C   UNL     1      32.717 -20.496 -20.192  0.00  0.00    -0.000 C 
ENDBRANCH  25  26
ENDBRANCH  22  25
ENDBRANCH  21  22
ENDBRANCH  20  21
ENDBRANCH   4  20
TORSDOF 6
ENDMDL
MODEL 2
REMARK VINA RESULT:     -10.0     11.316     15.089
REMARK  Name = 25052630
REMARK  6 active torsions:
REMARK  status: ('A' for Active; 'I' for Inactive)
REMARK    1  A    between atoms: N_2  and  C_11
REMARK    2  A    between atoms: C_4  and  C_20
REMARK    3  A    between atoms: C_20  and  C_21
REMARK    4  A    between atoms: C_21  and  N_22
REMARK    5  A    between atoms: N_22  and  C_25
REMARK    6  A    between atoms: C_25  and  C_26
REMARK                            x       y       z     vdW  Elec       q    Type
REMARK                         _______ _______ _______ _____ _____    ______ ____
ROOT
ATOM      1  S   UNL     1      31.194 -10.406 -19.980  0.00  0.00    -0.018 S 
ATOM      2  N   UNL     1      32.315 -11.451 -22.323  0.00  0.00    -0.270 N 
ATOM      3  N   UNL     1      31.973 -12.929 -20.660  0.00  0.00    -0.294 N 
ATOM      4  C   UNL     1      32.731 -12.718 -22.728  0.00  0.00    +0.043 C 
ATOM      5  C   UNL     1      31.821 -11.563 -20.990  0.00  0.00    +0.142 C 
ATOM      6  C   UNL     1      32.521 -13.589 -21.728  0.00  0.00    +0.074 C 
ATOM      7  H   UNL     1      31.724 -13.341 -19.801  0.00  0.00    +0.154 HD
ENDROOT
BRANCH   2  11
ATOM      8  F   UNL     1      31.278  -5.778 -24.914  0.00  0.00    -0.201 F 
ATOM      9  F   UNL     1      35.992  -5.560 -24.616  0.00  0.00    -0.204 F 
ATOM     10  O   UNL     1      31.243  -8.193 -23.751  0.00  0.00    -0.472 OA
ATOM     11  C   UNL     1      32.395 -10.272 -23.145  0.00  0.00    +0.127 C 
ATOM     12  C   UNL     1      33.720  -9.542 -22.939  0.00  0.00    +0.054 C 
ATOM     13  C   UNL     1      31.252  -9.306 -22.851  0.00  0.00    +0.226 C 
ATOM     14  C   UNL     1      33.679  -8.185 -23.581  0.00  0.00    +0.018 C 
ATOM     15  C   UNL     1      32.460  -7.591 -23.935  0.00  0.00    +0.162 C 
ATOM     16  C   UNL     1      34.871  -7.484 -23.808  0.00  0.00    +0.029 C 
ATOM     17  C   UNL     1      32.440  -6.333 -24.543  0.00  0.00    +0.176 C 
ATOM     18  C   UNL     1      34.847  -6.222 -24.404  0.00  0.00    +0.142 C 
ATOM     19  C   UNL     1      33.633  -5.650 -24.775  0.00  0.00    +0.062 C 
ENDBRANCH   2  11
BRANCH   4  20
ATOM     20  C   UNL     1      33.305 -12.987 -24.069  0.00  0.00    +0.019 C 
BRANCH  20  21
ATOM     21  C   UNL     1      33.259 -14.476 -24.411  0.00  0.00    -0.075 C 
BRANCH  21  22
ATOM     22  N   UNL     1      34.492 -15.135 -23.995  0.00  0.00    +0.387 N 
ATOM     23  H   UNL     1      34.550 -15.122 -22.976  0.00  0.00    -0.084 HD
ATOM     24  H   UNL     1      35.282 -14.635 -24.402  0.00  0.00    -0.084 HD
BRANCH  22  25
ATOM     25  C   UNL     1      34.525 -16.515 -24.458  0.00  0.00    -0.054 C 
BRANCH  25  26
ATOM     26  C   UNL     1      34.840 -17.474 -23.341  0.00  0.00    -0.044 C 
ATOM     27  C   UNL     1      34.524 -18.827 -23.474  0.00  0.00    -0.006 C 
ATOM     28  C   UNL     1      35.450 -17.011 -22.176  0.00  0.00    -0.006 C 
ATOM     29  C   UNL     1      34.817 -19.716 -22.440  0.00  0.00    -0.000 C 
ATOM     30  C   UNL     1      35.742 -17.902 -21.141  0.00  0.00    -0.000 C 
ATOM     31  C   UNL     1      35.426 -19.253 -21.274  0.00  0.00    -0.000 C 
ENDBRANCH  25  26
ENDBRANCH  22  25
ENDBRANCH  21  22
ENDBRANCH  20  21
ENDBRANCH   4  20
TORSDOF 6
ENDMDL
MODEL 3
REMARK VINA RESULT:     -10.0      8.447     11.962
REMARK  Name = 25052630
REMARK  6 active torsions:
REMARK  status: ('A' for Active; 'I' for Inactive)
REMARK    1  A    between atoms: N_2  and  C_11
REMARK    2  A    between atoms: C_4  and  C_20
REMARK    3  A    between atoms: C_20  and  C_21
REMARK    4  A    between atoms: C_21  and  N_22
REMARK    5  A    between atoms: N_22  and  C_25
REMARK    6  A    between atoms: C_25  and  C_26
REMARK                            x       y       z     vdW  Elec       q    Type
REMARK                         _______ _______ _______ _____ _____    ______ ____
ROOT
ATOM      1  S   UNL     1      32.992 -14.398 -26.041  0.00  0.00    -0.018 S 
ATOM      2  N   UNL     1      34.130 -14.801 -23.514  0.00  0.00    -0.270 N 
ATOM      3  N   UNL     1      34.196 -16.566 -24.908  0.00  0.00    -0.294 N 
ATOM      4  C   UNL     1      34.754 -15.874 -22.882  0.00  0.00    +0.043 C 
ATOM      5  C   UNL     1      33.761 -15.224 -24.825  0.00  0.00    +0.142 C 
ATOM      6  C   UNL     1      34.787 -16.919 -23.723  0.00  0.00    +0.074 C 
ATOM      7  H   UNL     1      34.092 -17.154 -25.691  0.00  0.00    +0.154 HD
ENDROOT
BRANCH   2  11
ATOM      8  F   UNL     1      33.083  -8.640 -22.551  0.00  0.00    -0.201 F 
ATOM      9  F   UNL     1      30.141 -10.370 -19.278  0.00  0.00    -0.204 F 
ATOM     10  O   UNL     1      33.759 -11.106 -23.353  0.00  0.00    -0.472 OA
ATOM     11  C   UNL     1      33.919 -13.513 -22.905  0.00  0.00    +0.127 C 
ATOM     12  C   UNL     1      32.641 -13.498 -22.071  0.00  0.00    +0.054 C 
ATOM     13  C   UNL     1      33.835 -12.405 -23.951  0.00  0.00    +0.226 C 
ATOM     14  C   UNL     1      32.287 -12.094 -21.672  0.00  0.00    +0.018 C 
ATOM     15  C   UNL     1      32.850 -10.994 -22.334  0.00  0.00    +0.162 C 
ATOM     16  C   UNL     1      31.363 -11.872 -20.643  0.00  0.00    +0.029 C 
ATOM     17  C   UNL     1      32.521  -9.693 -21.943  0.00  0.00    +0.176 C 
ATOM     18  C   UNL     1      31.026 -10.571 -20.263  0.00  0.00    +0.142 C 
ATOM     19  C   UNL     1      31.608  -9.484 -20.910  0.00  0.00    +0.062 C 
ENDBRANCH   2  11
BRANCH   4  20
ATOM     20  C   UNL     1      35.276 -15.799 -21.495  0.00  0.00    +0.019 C 
BRANCH  20  21
ATOM     21  C   UNL     1      34.891 -17.036 -20.684  0.00  0.00    -0.075 C 
BRANCH  21  22
ATOM     22  N   UNL     1      35.993 -17.992 -20.656  0.00  0.00    +0.387 N 
ATOM     23  H   UNL     1      36.238 -18.190 -19.686  0.00  0.00    -0.084 HD
ATOM     24  H   UNL     1      36.788 -17.587 -21.149  0.00  0.00    -0.084 HD
BRANCH  22  25
ATOM     25  C   UNL     1      35.618 -19.234 -21.316  0.00  0.00    -0.054 C 
BRANCH  25  26
ATOM     26  C   UNL     1      35.025 -20.226 -20.351  0.00  0.00    -0.044 C 
ATOM     27  C   UNL     1      33.639 -20.326 -20.218  0.00  0.00    -0.006 C 
ATOM     28  C   UNL     1      35.859 -21.045 -19.592  0.00  0.00    -0.006 C 
ATOM     29  C   UNL     1      33.089 -21.245 -19.325  0.00  0.00    -0.000 C 
ATOM     30  C   UNL     1      35.308 -21.965 -18.698  0.00  0.00    -0.000 C 
ATOM     31  C   UNL     1      33.924 -22.065 -18.565  0.00  0.00    -0.000 C 
ENDBRANCH  25  26
ENDBRANCH  22  25
ENDBRANCH  21  22
ENDBRANCH  20  21
ENDBRANCH   4  20
TORSDOF 6
ENDMDL
MODEL 4
REMARK VINA RESULT:      -9.8      3.311      5.256
REMARK  Name = 25052630
REMARK  6 active torsions:
REMARK  status: ('A' for Active; 'I' for Inactive)
REMARK    1  A    between atoms: N_2  and  C_11
REMARK    2  A    between atoms: C_4  and  C_20
REMARK    3  A    between atoms: C_20  and  C_21
REMARK    4  A    between atoms: C_21  and  N_22
REMARK    5  A    between atoms: N_22  and  C_25
REMARK    6  A    between atoms: C_25  and  C_26
REMARK                            x       y       z     vdW  Elec       q    Type
REMARK                         _______ _______ _______ _____ _____    ______ ____
ROOT
ATOM      1  S   UNL     1      31.167 -25.044 -12.806  0.00  0.00    -0.018 S 
ATOM      2  N   UNL     1      32.604 -23.751 -14.831  0.00  0.00    -0.270 N 
ATOM      3  N   UNL     1      30.403 -24.022 -15.217  0.00  0.00    -0.294 N 
ATOM      4  C   UNL     1      32.275 -23.211 -16.073  0.00  0.00    +0.043 C 
ATOM      5  C   UNL     1      31.411 -24.281 -14.259  0.00  0.00    +0.142 C 
ATOM      6  C   UNL     1      30.961 -23.379 -16.290  0.00  0.00    +0.074 C 
ATOM      7  H   UNL     1      29.454 -24.266 -15.128  0.00  0.00    +0.154 HD
ENDROOT
BRANCH   2  11
ATOM      8  F   UNL     1      37.519 -23.978 -10.861  0.00  0.00    -0.201 F 
ATOM      9  F   UNL     1      39.255 -26.741 -14.284  0.00  0.00    -0.204 F 
ATOM     10  O   UNL     1      35.204 -23.677 -12.177  0.00  0.00    -0.472 OA
ATOM     11  C   UNL     1      33.931 -23.747 -14.273  0.00  0.00    +0.127 C 
ATOM     12  C   UNL     1      34.754 -24.921 -14.798  0.00  0.00    +0.054 C 
ATOM     13  C   UNL     1      33.899 -23.813 -12.750  0.00  0.00    +0.226 C 
ATOM     14  C   UNL     1      36.025 -25.068 -14.010  0.00  0.00    +0.018 C 
ATOM     15  C   UNL     1      36.171 -24.455 -12.758  0.00  0.00    +0.162 C 
ATOM     16  C   UNL     1      37.073 -25.848 -14.515  0.00  0.00    +0.029 C 
ATOM     17  C   UNL     1      37.364 -24.591 -12.042  0.00  0.00    +0.176 C 
ATOM     18  C   UNL     1      38.259 -25.992 -13.792  0.00  0.00    +0.142 C 
ATOM     19  C   UNL     1      38.405 -25.360 -12.560  0.00  0.00    +0.062 C 
ENDBRANCH   2  11
BRANCH   4  20
ATOM     20  C   UNL     1      33.273 -22.566 -16.961  0.00  0.00    +0.019 C 
BRANCH  20  21
ATOM     21  C   UNL     1      33.822 -23.548 -17.996  0.00  0.00    -0.075 C 
BRANCH  21  22
ATOM     22  N   UNL     1      33.829 -22.942 -19.323  0.00  0.00    +0.387 N 
ATOM     23  H   UNL     1      33.149 -23.423 -19.912  0.00  0.00    -0.084 HD
ATOM     24  H   UNL     1      34.766 -23.030 -19.715  0.00  0.00    -0.084 HD
BRANCH  22  25
ATOM     25  C   UNL     1      33.485 -21.530 -19.250  0.00  0.00    -0.054 C 
BRANCH  25  26
ATOM     26  C   UNL     1      34.566 -20.658 -19.831  0.00  0.00    -0.044 C 
ATOM     27  C   UNL     1      35.887 -20.807 -19.404  0.00  0.00    -0.006 C 
ATOM     28  C   UNL     1      34.249 -19.704 -20.796  0.00  0.00    -0.006 C 
ATOM     29  C   UNL     1      36.888 -20.001 -19.942  0.00  0.00    -0.000 C 
ATOM     30  C   UNL     1      35.253 -18.896 -21.335  0.00  0.00    -0.000 C 
ATOM     31  C   UNL     1      36.572 -19.046 -20.907  0.00  0.00    -0.000 C 
ENDBRANCH  25  26
ENDBRANCH  22  25
ENDBRANCH  21  22
ENDBRANCH  20  21
ENDBRANCH   4  20
TORSDOF 6
ENDMDL
MODEL 5
REMARK VINA RESULT:      -9.6      3.380      6.782
REMARK  Name = 25052630
REMARK  6 active torsions:
REMARK  status: ('A' for Active; 'I' for Inactive)
REMARK    1  A    between atoms: N_2  and  C_11
REMARK    2  A    between atoms: C_4  and  C_20
REMARK    3  A    between atoms: C_20  and  C_21
REMARK    4  A    between atoms: C_21  and  N_22
REMARK    5  A    between atoms: N_22  and  C_25
REMARK    6  A    between atoms: C_25  and  C_26
REMARK                            x       y       z     vdW  Elec       q    Type
REMARK                         _______ _______ _______ _____ _____    ______ ____
ROOT
ATOM      1  S   UNL     1      29.592 -23.068 -16.117  0.00  0.00    -0.018 S 
ATOM      2  N   UNL     1      32.028 -23.756 -14.920  0.00  0.00    -0.270 N 
ATOM      3  N   UNL     1      30.196 -24.704 -14.021  0.00  0.00    -0.294 N 
ATOM      4  C   UNL     1      32.399 -24.578 -13.857  0.00  0.00    +0.043 C 
ATOM      5  C   UNL     1      30.609 -23.822 -15.045  0.00  0.00    +0.142 C 
ATOM      6  C   UNL     1      31.297 -25.136 -13.331  0.00  0.00    +0.074 C 
ATOM      7  H   UNL     1      29.266 -24.966 -13.833  0.00  0.00    +0.154 HD
ENDROOT
BRANCH   2  11
ATOM      8  F   UNL     1      37.028 -21.944 -18.339  0.00  0.00    -0.201 F 
ATOM      9  F   UNL     1      33.618 -20.156 -21.084  0.00  0.00    -0.204 F 
ATOM     10  O   UNL     1      35.226 -22.978 -16.646  0.00  0.00    -0.472 OA
ATOM     11  C   UNL     1      32.955 -22.996 -15.717  0.00  0.00    +0.127 C 
ATOM     12  C   UNL     1      32.343 -22.611 -17.061  0.00  0.00    +0.054 C 
ATOM     13  C   UNL     1      34.244 -23.771 -15.969  0.00  0.00    +0.226 C 
ATOM     14  C   UNL     1      33.396 -22.067 -17.984  0.00  0.00    +0.018 C 
ATOM     15  C   UNL     1      34.757 -22.287 -17.734  0.00  0.00    +0.162 C 
ATOM     16  C   UNL     1      33.019 -21.350 -19.128  0.00  0.00    +0.029 C 
ATOM     17  C   UNL     1      35.725 -21.764 -18.595  0.00  0.00    +0.176 C 
ATOM     18  C   UNL     1      33.988 -20.840 -19.993  0.00  0.00    +0.142 C 
ATOM     19  C   UNL     1      35.340 -21.043 -19.724  0.00  0.00    +0.062 C 
ENDBRANCH   2  11
BRANCH   4  20
ATOM     20  C   UNL     1      33.808 -24.759 -13.432  0.00  0.00    +0.019 C 
BRANCH  20  21
ATOM     21  C   UNL     1      34.149 -23.877 -12.231  0.00  0.00    -0.075 C 
BRANCH  21  22
ATOM     22  N   UNL     1      35.562 -23.516 -12.247  0.00  0.00    +0.387 N 
ATOM     23  H   UNL     1      35.728 -22.787 -11.552  0.00  0.00    -0.084 HD
ATOM     24  H   UNL     1      35.802 -23.179 -13.179  0.00  0.00    -0.084 HD
BRANCH  22  25
ATOM     25  C   UNL     1      36.396 -24.669 -11.939  0.00  0.00    -0.054 C 
BRANCH  25  26
ATOM     26  C   UNL     1      37.550 -24.799 -12.898  0.00  0.00    -0.044 C 
ATOM     27  C   UNL     1      38.592 -25.684 -12.618  0.00  0.00    -0.006 C 
ATOM     28  C   UNL     1      37.575 -24.038 -14.065  0.00  0.00    -0.006 C 
ATOM     29  C   UNL     1      39.660 -25.805 -13.507  0.00  0.00    -0.000 C 
ATOM     30  C   UNL     1      38.644 -24.160 -14.954  0.00  0.00    -0.000 C 
ATOM     31  C   UNL     1      39.686 -25.044 -14.675  0.00  0.00    -0.000 C 
ENDBRANCH  25  26
ENDBRANCH  22  25
ENDBRANCH  21  22
ENDBRANCH  20  21
ENDBRANCH   4  20
TORSDOF 6
ENDMDL
MODEL 6
REMARK VINA RESULT:      -9.4     11.338     14.800
REMARK  Name = 25052630
REMARK  6 active torsions:
REMARK  status: ('A' for Active; 'I' for Inactive)
REMARK    1  A    between atoms: N_2  and  C_11
REMARK    2  A    between atoms: C_4  and  C_20
REMARK    3  A    between atoms: C_20  and  C_21
REMARK    4  A    between atoms: C_21  and  N_22
REMARK    5  A    between atoms: N_22  and  C_25
REMARK    6  A    between atoms: C_25  and  C_26
REMARK                            x       y       z     vdW  Elec       q    Type
REMARK                         _______ _______ _______ _____ _____    ______ ____
ROOT
ATOM      1  S   UNL     1      31.440 -10.491 -18.625  0.00  0.00    -0.018 S 
ATOM      2  N   UNL     1      32.245 -11.259 -21.194  0.00  0.00    -0.270 N 
ATOM      3  N   UNL     1      32.161 -12.907 -19.664  0.00  0.00    -0.294 N 
ATOM      4  C   UNL     1      32.622 -12.465 -21.782  0.00  0.00    +0.043 C 
ATOM      5  C   UNL     1      31.942 -11.520 -19.826  0.00  0.00    +0.142 C 
ATOM      6  C   UNL     1      32.567 -13.438 -20.859  0.00  0.00    +0.074 C 
ATOM      7  H   UNL     1      32.041 -13.411 -18.827  0.00  0.00    +0.154 HD
ENDROOT
BRANCH   2  11
ATOM      8  F   UNL     1      30.342  -6.298 -24.621  0.00  0.00    -0.201 F 
ATOM      9  F   UNL     1      32.461  -3.950 -21.106  0.00  0.00    -0.204 F 
ATOM     10  O   UNL     1      30.866  -8.656 -23.460  0.00  0.00    -0.472 OA
ATOM     11  C   UNL     1      32.189 -10.001 -21.892  0.00  0.00    +0.127 C 
ATOM     12  C   UNL     1      32.341  -8.827 -20.927  0.00  0.00    +0.054 C 
ATOM     13  C   UNL     1      30.879  -9.841 -22.656  0.00  0.00    +0.226 C 
ATOM     14  C   UNL     1      32.007  -7.533 -21.615  0.00  0.00    +0.018 C 
ATOM     15  C   UNL     1      31.290  -7.522 -22.819  0.00  0.00    +0.162 C 
ATOM     16  C   UNL     1      32.393  -6.316 -21.037  0.00  0.00    +0.029 C 
ATOM     17  C   UNL     1      30.998  -6.311 -23.453  0.00  0.00    +0.176 C 
ATOM     18  C   UNL     1      32.089  -5.108 -21.666  0.00  0.00    +0.142 C 
ATOM     19  C   UNL     1      31.396  -5.106 -22.875  0.00  0.00    +0.062 C 
ENDBRANCH   2  11
BRANCH   4  20
ATOM     20  C   UNL     1      33.009 -12.579 -23.209  0.00  0.00    +0.019 C 
BRANCH  20  21
ATOM     21  C   UNL     1      34.107 -13.623 -23.411  0.00  0.00    -0.075 C 
BRANCH  21  22
ATOM     22  N   UNL     1      33.542 -14.868 -23.919  0.00  0.00    +0.387 N 
ATOM     23  H   UNL     1      32.863 -14.653 -24.649  0.00  0.00    -0.084 HD
ATOM     24  H   UNL     1      33.091 -15.360 -23.148  0.00  0.00    -0.084 HD
BRANCH  22  25
ATOM     25  C   UNL     1      34.583 -15.723 -24.472  0.00  0.00    -0.054 C 
BRANCH  25  26
ATOM     26  C   UNL     1      34.806 -16.951 -23.631  0.00  0.00    -0.044 C 
ATOM     27  C   UNL     1      34.358 -18.194 -24.078  0.00  0.00    -0.006 C 
ATOM     28  C   UNL     1      35.464 -16.846 -22.406  0.00  0.00    -0.006 C 
ATOM     29  C   UNL     1      34.566 -19.332 -23.299  0.00  0.00    -0.000 C 
ATOM     30  C   UNL     1      35.672 -17.985 -21.626  0.00  0.00    -0.000 C 
ATOM     31  C   UNL     1      35.223 -19.227 -22.073  0.00  0.00    -0.000 C 
ENDBRANCH  25  26
ENDBRANCH  22  25
ENDBRANCH  21  22
ENDBRANCH  20  21
ENDBRANCH   4  20
TORSDOF 6
ENDMDL
MODEL 7
REMARK VINA RESULT:      -9.3      2.682      5.560
REMARK  Name = 25052630
REMARK  6 active torsions:
REMARK  status: ('A' for Active; 'I' for Inactive)
REMARK    1  A    between atoms: N_2  and  C_11
REMARK    2  A    between atoms: C_4  and  C_20
REMARK    3  A    between atoms: C_20  and  C_21
REMARK    4  A    between atoms: C_21  and  N_22
REMARK    5  A    between atoms: N_22  and  C_25
REMARK    6  A    between atoms: C_25  and  C_26
REMARK                            x       y       z     vdW  Elec       q    Type
REMARK                         _______ _______ _______ _____ _____    ______ ____
ROOT
ATOM      1  S   UNL     1      39.291 -25.274 -14.531  0.00  0.00    -0.018 S 
ATOM      2  N   UNL     1      36.918 -24.152 -13.558  0.00  0.00    -0.270 N 
ATOM      3  N   UNL     1      37.835 -25.759 -12.277  0.00  0.00    -0.294 N 
ATOM      4  C   UNL     1      36.132 -24.354 -12.425  0.00  0.00    +0.043 C 
ATOM      5  C   UNL     1      38.024 -25.048 -13.484  0.00  0.00    +0.142 C 
ATOM      6  C   UNL     1      36.690 -25.314 -11.671  0.00  0.00    +0.074 C 
ATOM      7  H   UNL     1      38.430 -26.461 -11.928  0.00  0.00    +0.154 HD
ENDROOT
BRANCH   2  11
ATOM      8  F   UNL     1      37.309 -20.259 -18.525  0.00  0.00    -0.201 F 
ATOM      9  F   UNL     1      33.117 -22.218 -19.499  0.00  0.00    -0.204 F 
ATOM     10  O   UNL     1      37.604 -21.795 -16.348  0.00  0.00    -0.472 OA
ATOM     11  C   UNL     1      36.618 -23.194 -14.591  0.00  0.00    +0.127 C 
ATOM     12  C   UNL     1      35.540 -23.719 -15.535  0.00  0.00    +0.054 C 
ATOM     13  C   UNL     1      37.858 -22.843 -15.407  0.00  0.00    +0.226 C 
ATOM     14  C   UNL     1      35.435 -22.843 -16.752  0.00  0.00    +0.018 C 
ATOM     15  C   UNL     1      36.462 -21.953 -17.090  0.00  0.00    +0.162 C 
ATOM     16  C   UNL     1      34.308 -22.933 -17.580  0.00  0.00    +0.029 C 
ATOM     17  C   UNL     1      36.344 -21.136 -18.218  0.00  0.00    +0.176 C 
ATOM     18  C   UNL     1      34.198 -22.125 -18.713  0.00  0.00    +0.142 C 
ATOM     19  C   UNL     1      35.213 -21.225 -19.029  0.00  0.00    +0.062 C 
ENDBRANCH   2  11
BRANCH   4  20
ATOM     20  C   UNL     1      34.888 -23.591 -12.160  0.00  0.00    +0.019 C 
BRANCH  20  21
ATOM     21  C   UNL     1      33.659 -24.311 -12.715  0.00  0.00    -0.075 C 
BRANCH  21  22
ATOM     22  N   UNL     1      32.589 -23.359 -12.990  0.00  0.00    +0.387 N 
ATOM     23  H   UNL     1      32.826 -22.460 -12.570  0.00  0.00    -0.084 HD
ATOM     24  H   UNL     1      31.722 -23.719 -12.592  0.00  0.00    -0.084 HD
BRANCH  22  25
ATOM     25  C   UNL     1      32.407 -23.183 -14.423  0.00  0.00    -0.054 C 
BRANCH  25  26
ATOM     26  C   UNL     1      31.004 -23.516 -14.856  0.00  0.00    -0.044 C 
ATOM     27  C   UNL     1      30.375 -22.748 -15.837  0.00  0.00    -0.006 C 
ATOM     28  C   UNL     1      30.334 -24.594 -14.278  0.00  0.00    -0.006 C 
ATOM     29  C   UNL     1      29.076 -23.057 -16.237  0.00  0.00    -0.000 C 
ATOM     30  C   UNL     1      29.033 -24.902 -14.680  0.00  0.00    -0.000 C 
ATOM     31  C   UNL     1      28.405 -24.134 -15.659  0.00  0.00    -0.000 C 
ENDBRANCH  25  26
ENDBRANCH  22  25
ENDBRANCH  21  22
ENDBRANCH  20  21
ENDBRANCH   4  20
TORSDOF 6
ENDMDL
MODEL 8
REMARK VINA RESULT:      -9.3      2.690      5.903
REMARK  Name = 25052630
REMARK  6 active torsions:
REMARK  status: ('A' for Active; 'I' for Inactive)
REMARK    1  A    between atoms: N_2  and  C_11
REMARK    2  A    between atoms: C_4  and  C_20
REMARK    3  A    between atoms: C_20  and  C_21
REMARK    4  A    between atoms: C_21  and  N_22
REMARK    5  A    between atoms: N_22  and  C_25
REMARK    6  A    between atoms: C_25  and  C_26
REMARK                            x       y       z     vdW  Elec       q    Type
REMARK                         _______ _______ _______ _____ _____    ______ ____
ROOT
ATOM      1  S   UNL     1      38.441 -24.637 -14.068  0.00  0.00    -0.018 S 
ATOM      2  N   UNL     1      35.676 -24.196 -14.068  0.00  0.00    -0.270 N 
ATOM      3  N   UNL     1      36.569 -24.798 -12.092  0.00  0.00    -0.294 N 
ATOM      4  C   UNL     1      34.675 -24.261 -13.101  0.00  0.00    +0.043 C 
ATOM      5  C   UNL     1      36.909 -24.539 -13.439  0.00  0.00    +0.142 C 
ATOM      6  C   UNL     1      35.221 -24.620 -11.929  0.00  0.00    +0.074 C 
ATOM      7  H   UNL     1      37.200 -25.064 -11.384  0.00  0.00    +0.154 HD
ENDROOT
BRANCH   2  11
ATOM      8  F   UNL     1      33.048 -22.276 -19.489  0.00  0.00    -0.201 F 
ATOM      9  F   UNL     1      37.160 -19.969 -19.849  0.00  0.00    -0.204 F 
ATOM     10  O   UNL     1      33.725 -23.258 -17.088  0.00  0.00    -0.472 OA
ATOM     11  C   UNL     1      35.450 -23.841 -15.445  0.00  0.00    +0.127 C 
ATOM     12  C   UNL     1      36.325 -22.662 -15.863  0.00  0.00    +0.054 C 
ATOM     13  C   UNL     1      33.990 -23.484 -15.699  0.00  0.00    +0.226 C 
ATOM     14  C   UNL     1      35.888 -22.128 -17.197  0.00  0.00    +0.018 C 
ATOM     15  C   UNL     1      34.627 -22.443 -17.721  0.00  0.00    +0.162 C 
ATOM     16  C   UNL     1      36.737 -21.281 -17.922  0.00  0.00    +0.029 C 
ATOM     17  C   UNL     1      34.239 -21.949 -18.970  0.00  0.00    +0.176 C 
ATOM     18  C   UNL     1      36.342 -20.779 -19.163  0.00  0.00    +0.142 C 
ATOM     19  C   UNL     1      35.097 -21.116 -19.688  0.00  0.00    +0.062 C 
ENDBRANCH   2  11
BRANCH   4  20
ATOM     20  C   UNL     1      33.251 -23.965 -13.394  0.00  0.00    +0.019 C 
BRANCH  20  21
ATOM     21  C   UNL     1      32.366 -25.191 -13.171  0.00  0.00    -0.075 C 
BRANCH  21  22
ATOM     22  N   UNL     1      30.990 -24.786 -12.903  0.00  0.00    +0.387 N 
ATOM     23  H   UNL     1      30.833 -24.783 -11.896  0.00  0.00    -0.084 HD
ATOM     24  H   UNL     1      30.362 -25.447 -13.359  0.00  0.00    -0.084 HD
BRANCH  22  25
ATOM     25  C   UNL     1      30.729 -23.454 -13.431  0.00  0.00    -0.054 C 
BRANCH  25  26
ATOM     26  C   UNL     1      29.724 -23.482 -14.552  0.00  0.00    -0.044 C 
ATOM     27  C   UNL     1      29.539 -24.650 -15.294  0.00  0.00    -0.006 C 
ATOM     28  C   UNL     1      28.977 -22.343 -14.846  0.00  0.00    -0.006 C 
ATOM     29  C   UNL     1      28.608 -24.676 -16.331  0.00  0.00    -0.000 C 
ATOM     30  C   UNL     1      28.044 -22.370 -15.885  0.00  0.00    -0.000 C 
ATOM     31  C   UNL     1      27.860 -23.536 -16.627  0.00  0.00    -0.000 C 
ENDBRANCH  25  26
ENDBRANCH  22  25
ENDBRANCH  21  22
ENDBRANCH  20  21
ENDBRANCH   4  20
TORSDOF 6
ENDMDL
MODEL 9
REMARK VINA RESULT:      -9.3      3.351      6.872
REMARK  Name = 25052630
REMARK  6 active torsions:
REMARK  status: ('A' for Active; 'I' for Inactive)
REMARK    1  A    between atoms: N_2  and  C_11
REMARK    2  A    between atoms: C_4  and  C_20
REMARK    3  A    between atoms: C_20  and  C_21
REMARK    4  A    between atoms: C_21  and  N_22
REMARK    5  A    between atoms: N_22  and  C_25
REMARK    6  A    between atoms: C_25  and  C_26
REMARK                            x       y       z     vdW  Elec       q    Type
REMARK                         _______ _______ _______ _____ _____    ______ ____
ROOT
ATOM      1  S   UNL     1      28.935 -24.680 -15.509  0.00  0.00    -0.018 S 
ATOM      2  N   UNL     1      31.641 -24.285 -14.906  0.00  0.00    -0.270 N 
ATOM      3  N   UNL     1      30.379 -25.110 -13.236  0.00  0.00    -0.294 N 
ATOM      4  C   UNL     1      32.431 -24.483 -13.775  0.00  0.00    +0.043 C 
ATOM      5  C   UNL     1      30.311 -24.683 -14.582  0.00  0.00    +0.142 C 
ATOM      6  C   UNL     1      31.666 -24.975 -12.788  0.00  0.00    +0.074 C 
ATOM      7  H   UNL     1      29.622 -25.450 -12.705  0.00  0.00    +0.154 HD
ENDROOT
BRANCH   2  11
ATOM      8  F   UNL     1      32.619 -20.709 -20.028  0.00  0.00    -0.201 F 
ATOM      9  F   UNL     1      37.129 -21.632 -18.946  0.00  0.00    -0.204 F 
ATOM     10  O   UNL     1      31.750 -22.074 -17.891  0.00  0.00    -0.472 OA
ATOM     11  C   UNL     1      32.132 -23.765 -16.156  0.00  0.00    +0.127 C 
ATOM     12  C   UNL     1      33.615 -23.416 -16.064  0.00  0.00    +0.054 C 
ATOM     13  C   UNL     1      31.361 -22.522 -16.588  0.00  0.00    +0.226 C 
ATOM     14  C   UNL     1      34.047 -22.627 -17.268  0.00  0.00    +0.018 C 
ATOM     15  C   UNL     1      33.104 -22.001 -18.094  0.00  0.00    +0.162 C 
ATOM     16  C   UNL     1      35.410 -22.489 -17.560  0.00  0.00    +0.029 C 
ATOM     17  C   UNL     1      33.520 -21.281 -19.217  0.00  0.00    +0.176 C 
ATOM     18  C   UNL     1      35.823 -21.758 -18.676  0.00  0.00    +0.142 C 
ATOM     19  C   UNL     1      34.878 -21.159 -19.505  0.00  0.00    +0.062 C 
ENDBRANCH   2  11
BRANCH   4  20
ATOM     20  C   UNL     1      33.881 -24.176 -13.742  0.00  0.00    +0.019 C 
BRANCH  20  21
ATOM     21  C   UNL     1      34.468 -24.387 -12.346  0.00  0.00    -0.075 C 
BRANCH  21  22
ATOM     22  N   UNL     1      35.487 -23.383 -12.062  0.00  0.00    +0.387 N 
ATOM     23  H   UNL     1      35.121 -22.722 -11.377  0.00  0.00    -0.084 HD
ATOM     24  H   UNL     1      35.722 -22.904 -12.930  0.00  0.00    -0.084 HD
BRANCH  22  25
ATOM     25  C   UNL     1      36.692 -24.004 -11.531  0.00  0.00    -0.054 C 
BRANCH  25  26
ATOM     26  C   UNL     1      37.659 -24.377 -12.623  0.00  0.00    -0.044 C 
ATOM     27  C   UNL     1      37.579 -23.753 -13.868  0.00  0.00    -0.006 C 
ATOM     28  C   UNL     1      38.634 -25.346 -12.389  0.00  0.00    -0.006 C 
ATOM     29  C   UNL     1      38.475 -24.098 -14.879  0.00  0.00    -0.000 C 
ATOM     30  C   UNL     1      39.531 -25.691 -13.402  0.00  0.00    -0.000 C 
ATOM     31  C   UNL     1      39.451 -25.067 -14.646  0.00  0.00    -0.000 C 
ENDBRANCH  25  26
ENDBRANCH  22  25
ENDBRANCH  21  22
ENDBRANCH  20  21
ENDBRANCH   4  20
TORSDOF 6
ENDMDL
