MODEL 1
REMARK VINA RESULT:     -12.1      0.000      0.000
REMARK  Name = 5288607
REMARK  4 active torsions:
REMARK  status: ('A' for Active; 'I' for Inactive)
REMARK    1  A    between atoms: N_2  and  C_19
REMARK    2  A    between atoms: C_3  and  C_6
REMARK    3  A    between atoms: C_5  and  C_16
REMARK    4  A    between atoms: C_19  and  C_21
REMARK                            x       y       z     vdW  Elec       q    Type
REMARK                         _______ _______ _______ _____ _____    ______ ____
ROOT
ATOM      1  O   UNL     1      33.910 -18.113 -25.057  0.00  0.00    -0.270 OA
ATOM      2  N   UNL     1      34.479 -16.069 -24.109  0.00  0.00    -0.270 N 
ATOM      3  C   UNL     1      34.419 -17.465 -24.142  0.00  0.00    +0.249 C 
ATOM      4  C   UNL     1      33.912 -15.303 -25.212  0.00  0.00    +0.116 C 
ENDROOT
BRANCH   3   6
ATOM      5  C   UNL     1      34.247 -19.073 -22.275  0.00  0.00    +0.006 C 
ATOM      6  C   UNL     1      34.994 -18.175 -22.961  0.00  0.00    +0.058 C 
BRANCH   5  16
ATOM      7  O   UNL     1      35.724 -23.260 -15.981  0.00  0.00    -0.275 OA
ATOM      8  N   UNL     1      36.050 -21.815 -17.735  0.00  0.00    -0.270 N 
ATOM      9  N   UNL     1      36.464 -20.384 -19.573  0.00  0.00    -0.229 NA
ATOM     10  C   UNL     1      33.292 -22.026 -18.356  0.00  0.00    +0.039 C 
ATOM     11  C   UNL     1      34.238 -21.263 -19.233  0.00  0.00    +0.010 C 
ATOM     12  C   UNL     1      34.009 -23.169 -17.654  0.00  0.00    +0.090 C 
ATOM     13  C   UNL     1      35.582 -21.144 -18.881  0.00  0.00    +0.130 C 
ATOM     14  C   UNL     1      33.791 -20.569 -20.359  0.00  0.00    +0.000 C 
ATOM     15  C   UNL     1      35.315 -22.739 -17.019  0.00  0.00    +0.227 C 
ATOM     16  C   UNL     1      34.683 -19.801 -21.097  0.00  0.00    +0.019 C 
ATOM     17  C   UNL     1      35.996 -19.739 -20.664  0.00  0.00    +0.100 C 
ATOM     18  H   UNL     1      36.962 -21.612 -17.424  0.00  0.00    +0.156 HD
ENDBRANCH   5  16
ENDBRANCH   3   6
BRANCH   2  19
ATOM     19  C   UNL     1      35.047 -15.278 -23.020  0.00  0.00    +0.122 C 
BRANCH  19  21
ATOM     20  N   UNL     1      33.364 -12.044 -23.211  0.00  0.00    -0.284 N 
ATOM     21  C   UNL     1      34.255 -14.029 -22.842  0.00  0.00    +0.014 C 
ATOM     22  C   UNL     1      33.452 -13.703 -21.723  0.00  0.00    +0.013 C 
ATOM     23  C   UNL     1      32.900 -12.447 -21.979  0.00  0.00    +0.051 C 
ATOM     24  C   UNL     1      34.188 -13.000 -23.741  0.00  0.00    +0.063 C 
ATOM     25  C   UNL     1      33.133 -14.349 -20.512  0.00  0.00    +0.001 C 
ATOM     26  C   UNL     1      32.041 -11.801 -21.082  0.00  0.00    +0.015 C 
ATOM     27  C   UNL     1      33.036 -10.794 -23.865  0.00  0.00    +0.117 C 
ATOM     28  C   UNL     1      32.277 -13.716 -19.604  0.00  0.00    +0.000 C 
ATOM     29  C   UNL     1      31.741 -12.462 -19.887  0.00  0.00    +0.001 C 
ENDBRANCH  19  21
ENDBRANCH   2  19
TORSDOF 4
ENDMDL
MODEL 2
REMARK VINA RESULT:     -12.0      1.368      1.780
REMARK  Name = 5288607
REMARK  4 active torsions:
REMARK  status: ('A' for Active; 'I' for Inactive)
REMARK    1  A    between atoms: N_2  and  C_19
REMARK    2  A    between atoms: C_3  and  C_6
REMARK    3  A    between atoms: C_5  and  C_16
REMARK    4  A    between atoms: C_19  and  C_21
REMARK                            x       y       z     vdW  Elec       q    Type
REMARK                         _______ _______ _______ _____ _____    ______ ____
ROOT
ATOM      1  O   UNL     1      34.900 -16.414 -25.249  0.00  0.00    -0.270 OA
ATOM      2  N   UNL     1      33.735 -14.838 -24.000  0.00  0.00    -0.270 N 
ATOM      3  C   UNL     1      34.546 -15.965 -24.158  0.00  0.00    +0.249 C 
ATOM      4  C   UNL     1      33.260 -14.128 -25.180  0.00  0.00    +0.116 C 
ENDROOT
BRANCH   3   6
ATOM      5  C   UNL     1      35.095 -18.001 -22.873  0.00  0.00    +0.006 C 
ATOM      6  C   UNL     1      34.965 -16.654 -22.901  0.00  0.00    +0.058 C 
BRANCH   5  16
ATOM      7  O   UNL     1      36.259 -22.562 -16.776  0.00  0.00    -0.275 OA
ATOM      8  N   UNL     1      36.634 -20.946 -18.363  0.00  0.00    -0.270 N 
ATOM      9  N   UNL     1      37.108 -19.328 -20.023  0.00  0.00    -0.229 NA
ATOM     10  C   UNL     1      34.004 -21.360 -19.334  0.00  0.00    +0.039 C 
ATOM     11  C   UNL     1      34.961 -20.439 -20.028  0.00  0.00    +0.010 C 
ATOM     12  C   UNL     1      34.750 -22.487 -18.636  0.00  0.00    +0.090 C 
ATOM     13  C   UNL     1      36.235 -20.224 -19.504  0.00  0.00    +0.130 C 
ATOM     14  C   UNL     1      34.578 -19.695 -21.146  0.00  0.00    +0.000 C 
ATOM     15  C   UNL     1      35.922 -21.993 -17.814  0.00  0.00    +0.227 C 
ATOM     16  C   UNL     1      35.465 -18.785 -21.708  0.00  0.00    +0.019 C 
ATOM     17  C   UNL     1      36.705 -18.637 -21.112  0.00  0.00    +0.100 C 
ATOM     18  H   UNL     1      37.478 -20.685 -17.927  0.00  0.00    +0.156 HD
ENDBRANCH   5  16
ENDBRANCH   3   6
BRANCH   2  19
ATOM     19  C   UNL     1      33.275 -14.307 -22.719  0.00  0.00    +0.122 C 
BRANCH  19  21
ATOM     20  N   UNL     1      33.914 -10.750 -23.237  0.00  0.00    -0.284 N 
ATOM     21  C   UNL     1      33.319 -12.818 -22.748  0.00  0.00    +0.014 C 
ATOM     22  C   UNL     1      32.471 -11.945 -22.027  0.00  0.00    +0.013 C 
ATOM     23  C   UNL     1      32.865 -10.645 -22.352  0.00  0.00    +0.051 C 
ATOM     24  C   UNL     1      34.196 -12.067 -23.482  0.00  0.00    +0.063 C 
ATOM     25  C   UNL     1      31.401 -12.123 -21.127  0.00  0.00    +0.001 C 
ATOM     26  C   UNL     1      32.241  -9.511 -21.820  0.00  0.00    +0.015 C 
ATOM     27  C   UNL     1      34.627  -9.638 -23.831  0.00  0.00    +0.117 C 
ATOM     28  C   UNL     1      30.768 -10.999 -20.587  0.00  0.00    +0.000 C 
ATOM     29  C   UNL     1      31.183  -9.714 -20.929  0.00  0.00    +0.001 C 
ENDBRANCH  19  21
ENDBRANCH   2  19
TORSDOF 4
ENDMDL
MODEL 3
REMARK VINA RESULT:     -11.8      0.814      1.951
REMARK  Name = 5288607
REMARK  4 active torsions:
REMARK  status: ('A' for Active; 'I' for Inactive)
REMARK    1  A    between atoms: N_2  and  C_19
REMARK    2  A    between atoms: C_3  and  C_6
REMARK    3  A    between atoms: C_5  and  C_16
REMARK    4  A    between atoms: C_19  and  C_21
REMARK                            x       y       z     vdW  Elec       q    Type
REMARK                         _______ _______ _______ _____ _____    ______ ____
ROOT
ATOM      1  O   UNL     1      33.591 -17.910 -25.070  0.00  0.00    -0.270 OA
ATOM      2  N   UNL     1      34.418 -15.834 -24.431  0.00  0.00    -0.270 N 
ATOM      3  C   UNL     1      34.240 -17.213 -24.289  0.00  0.00    +0.249 C 
ATOM      4  C   UNL     1      33.810 -15.148 -25.563  0.00  0.00    +0.116 C 
ENDROOT
BRANCH   3   6
ATOM      5  C   UNL     1      34.331 -18.950 -22.535  0.00  0.00    +0.006 C 
ATOM      6  C   UNL     1      34.869 -17.836 -23.086  0.00  0.00    +0.058 C 
BRANCH   5  16
ATOM      7  O   UNL     1      36.175 -22.914 -16.193  0.00  0.00    -0.275 OA
ATOM      8  N   UNL     1      36.380 -21.486 -17.980  0.00  0.00    -0.270 N 
ATOM      9  N   UNL     1      36.672 -20.069 -19.851  0.00  0.00    -0.229 NA
ATOM     10  C   UNL     1      33.630 -21.878 -18.544  0.00  0.00    +0.039 C 
ATOM     11  C   UNL     1      34.511 -21.076 -19.453  0.00  0.00    +0.010 C 
ATOM     12  C   UNL     1      34.428 -22.961 -17.834  0.00  0.00    +0.090 C 
ATOM     13  C   UNL     1      35.851 -20.867 -19.129  0.00  0.00    +0.130 C 
ATOM     14  C   UNL     1      34.002 -20.433 -20.583  0.00  0.00    +0.000 C 
ATOM     15  C   UNL     1      35.717 -22.439 -17.233  0.00  0.00    +0.227 C 
ATOM     16  C   UNL     1      34.831 -19.626 -21.352  0.00  0.00    +0.019 C 
ATOM     17  C   UNL     1      36.146 -19.475 -20.945  0.00  0.00    +0.100 C 
ATOM     18  H   UNL     1      37.283 -21.221 -17.690  0.00  0.00    +0.156 HD
ENDBRANCH   5  16
ENDBRANCH   3   6
BRANCH   2  19
ATOM     19  C   UNL     1      35.155 -14.982 -23.500  0.00  0.00    +0.122 C 
BRANCH  19  21
ATOM     20  N   UNL     1      32.855 -13.778 -20.933  0.00  0.00    -0.284 N 
ATOM     21  C   UNL     1      34.197 -14.258 -22.618  0.00  0.00    +0.014 C 
ATOM     22  C   UNL     1      33.652 -12.974 -22.855  0.00  0.00    +0.013 C 
ATOM     23  C   UNL     1      32.808 -12.693 -21.779  0.00  0.00    +0.051 C 
ATOM     24  C   UNL     1      33.696 -14.734 -21.437  0.00  0.00    +0.063 C 
ATOM     25  C   UNL     1      33.789 -12.015 -23.878  0.00  0.00    +0.001 C 
ATOM     26  C   UNL     1      32.092 -11.495 -21.674  0.00  0.00    +0.015 C 
ATOM     27  C   UNL     1      32.125 -13.906 -19.689  0.00  0.00    +0.117 C 
ATOM     28  C   UNL     1      33.078 -10.813 -23.787  0.00  0.00    +0.000 C 
ATOM     29  C   UNL     1      32.244 -10.559 -22.701  0.00  0.00    +0.001 C 
ENDBRANCH  19  21
ENDBRANCH   2  19
TORSDOF 4
ENDMDL
MODEL 4
REMARK VINA RESULT:     -11.7      4.709     11.264
REMARK  Name = 5288607
REMARK  4 active torsions:
REMARK  status: ('A' for Active; 'I' for Inactive)
REMARK    1  A    between atoms: N_2  and  C_19
REMARK    2  A    between atoms: C_3  and  C_6
REMARK    3  A    between atoms: C_5  and  C_16
REMARK    4  A    between atoms: C_19  and  C_21
REMARK                            x       y       z     vdW  Elec       q    Type
REMARK                         _______ _______ _______ _____ _____    ______ ____
ROOT
ATOM      1  O   UNL     1      30.900 -24.541 -15.823  0.00  0.00    -0.270 OA
ATOM      2  N   UNL     1      32.235 -24.131 -13.965  0.00  0.00    -0.270 N 
ATOM      3  C   UNL     1      31.821 -23.927 -15.284  0.00  0.00    +0.249 C 
ATOM      4  C   UNL     1      31.554 -25.129 -13.149  0.00  0.00    +0.116 C 
ENDROOT
BRANCH   3   6
ATOM      5  C   UNL     1      33.452 -23.303 -17.030  0.00  0.00    +0.006 C 
ATOM      6  C   UNL     1      32.590 -22.910 -16.063  0.00  0.00    +0.058 C 
BRANCH   5  16
ATOM      7  O   UNL     1      37.067 -18.375 -21.719  0.00  0.00    -0.275 OA
ATOM      8  N   UNL     1      36.741 -19.925 -20.057  0.00  0.00    -0.270 N 
ATOM      9  N   UNL     1      36.448 -21.457 -18.278  0.00  0.00    -0.229 NA
ATOM     10  C   UNL     1      34.031 -20.143 -20.861  0.00  0.00    +0.039 C 
ATOM     11  C   UNL     1      34.549 -20.853 -19.647  0.00  0.00    +0.010 C 
ATOM     12  C   UNL     1      34.800 -18.853 -21.101  0.00  0.00    +0.090 C 
ATOM     13  C   UNL     1      35.896 -20.759 -19.299  0.00  0.00    +0.130 C 
ATOM     14  C   UNL     1      33.736 -21.704 -18.897  0.00  0.00    +0.000 C 
ATOM     15  C   UNL     1      36.301 -19.042 -21.023  0.00  0.00    +0.227 C 
ATOM     16  C   UNL     1      34.275 -22.414 -17.831  0.00  0.00    +0.019 C 
ATOM     17  C   UNL     1      35.625 -22.259 -17.567  0.00  0.00    +0.100 C 
ATOM     18  H   UNL     1      37.709 -19.975 -19.886  0.00  0.00    +0.156 HD
ENDBRANCH   5  16
ENDBRANCH   3   6
BRANCH   2  19
ATOM     19  C   UNL     1      33.346 -23.439 -13.316  0.00  0.00    +0.122 C 
BRANCH  19  21
ATOM     20  N   UNL     1      36.058 -25.713 -14.214  0.00  0.00    -0.284 N 
ATOM     21  C   UNL     1      34.593 -24.240 -13.469  0.00  0.00    +0.014 C 
ATOM     22  C   UNL     1      35.763 -24.120 -12.680  0.00  0.00    +0.013 C 
ATOM     23  C   UNL     1      36.672 -25.059 -13.170  0.00  0.00    +0.051 C 
ATOM     24  C   UNL     1      34.794 -25.221 -14.401  0.00  0.00    +0.063 C 
ATOM     25  C   UNL     1      36.146 -23.305 -11.597  0.00  0.00    +0.001 C 
ATOM     26  C   UNL     1      37.952 -25.225 -12.627  0.00  0.00    +0.015 C 
ATOM     27  C   UNL     1      36.649 -26.769 -15.008  0.00  0.00    +0.117 C 
ATOM     28  C   UNL     1      37.421 -23.461 -11.043  0.00  0.00    +0.000 C 
ATOM     29  C   UNL     1      38.309 -24.406 -11.552  0.00  0.00    +0.001 C 
ENDBRANCH  19  21
ENDBRANCH   2  19
TORSDOF 4
ENDMDL
MODEL 5
REMARK VINA RESULT:     -11.3      1.306      1.822
REMARK  Name = 5288607
REMARK  4 active torsions:
REMARK  status: ('A' for Active; 'I' for Inactive)
REMARK    1  A    between atoms: N_2  and  C_19
REMARK    2  A    between atoms: C_3  and  C_6
REMARK    3  A    between atoms: C_5  and  C_16
REMARK    4  A    between atoms: C_19  and  C_21
REMARK                            x       y       z     vdW  Elec       q    Type
REMARK                         _______ _______ _______ _____ _____    ______ ____
ROOT
ATOM      1  O   UNL     1      34.507 -19.094 -24.083  0.00  0.00    -0.270 OA
ATOM      2  N   UNL     1      34.954 -16.998 -23.184  0.00  0.00    -0.270 N 
ATOM      3  C   UNL     1      34.783 -18.383 -23.116  0.00  0.00    +0.249 C 
ATOM      4  C   UNL     1      34.801 -16.321 -24.466  0.00  0.00    +0.116 C 
ENDROOT
BRANCH   3   6
ATOM      5  C   UNL     1      34.336 -20.183 -21.485  0.00  0.00    +0.006 C 
ATOM      6  C   UNL     1      34.926 -18.996 -21.762  0.00  0.00    +0.058 C 
BRANCH   5  16
ATOM      7  O   UNL     1      35.421 -23.560 -14.648  0.00  0.00    -0.275 OA
ATOM      8  N   UNL     1      34.363 -22.845 -16.556  0.00  0.00    -0.270 N 
ATOM      9  N   UNL     1      33.204 -22.061 -18.464  0.00  0.00    -0.229 NA
ATOM     10  C   UNL     1      36.854 -21.897 -17.521  0.00  0.00    +0.039 C 
ATOM     11  C   UNL     1      35.577 -21.648 -18.266  0.00  0.00    +0.010 C 
ATOM     12  C   UNL     1      36.597 -21.990 -16.025  0.00  0.00    +0.090 C 
ATOM     13  C   UNL     1      34.373 -22.161 -17.787  0.00  0.00    +0.130 C 
ATOM     14  C   UNL     1      35.568 -20.996 -19.500  0.00  0.00    +0.000 C 
ATOM     15  C   UNL     1      35.433 -22.897 -15.685  0.00  0.00    +0.227 C 
ATOM     16  C   UNL     1      34.377 -20.862 -20.202  0.00  0.00    +0.019 C 
ATOM     17  C   UNL     1      33.233 -21.410 -19.648  0.00  0.00    +0.100 C 
ATOM     18  H   UNL     1      33.538 -23.317 -16.300  0.00  0.00    +0.156 HD
ENDBRANCH   5  16
ENDBRANCH   3   6
BRANCH   2  19
ATOM     19  C   UNL     1      35.249 -16.131 -22.046  0.00  0.00    +0.122 C 
BRANCH  19  21
ATOM     20  N   UNL     1      33.867 -12.908 -23.064  0.00  0.00    -0.284 N 
ATOM     21  C   UNL     1      34.545 -14.828 -22.213  0.00  0.00    +0.014 C 
ATOM     22  C   UNL     1      33.646 -14.243 -21.291  0.00  0.00    +0.013 C 
ATOM     23  C   UNL     1      33.231 -13.033 -21.850  0.00  0.00    +0.051 C 
ATOM     24  C   UNL     1      34.668 -13.995 -23.291  0.00  0.00    +0.063 C 
ATOM     25  C   UNL     1      33.136 -14.618 -20.032  0.00  0.00    +0.001 C 
ATOM     26  C   UNL     1      32.328 -12.175 -21.211  0.00  0.00    +0.015 C 
ATOM     27  C   UNL     1      33.721 -11.796 -23.980  0.00  0.00    +0.117 C 
ATOM     28  C   UNL     1      32.233 -13.770 -19.380  0.00  0.00    +0.000 C 
ATOM     29  C   UNL     1      31.836 -12.569 -19.962  0.00  0.00    +0.001 C 
ENDBRANCH  19  21
ENDBRANCH   2  19
TORSDOF 4
ENDMDL
MODEL 6
REMARK VINA RESULT:     -10.7      4.765     11.207
REMARK  Name = 5288607
REMARK  4 active torsions:
REMARK  status: ('A' for Active; 'I' for Inactive)
REMARK    1  A    between atoms: N_2  and  C_19
REMARK    2  A    between atoms: C_3  and  C_6
REMARK    3  A    between atoms: C_5  and  C_16
REMARK    4  A    between atoms: C_19  and  C_21
REMARK                            x       y       z     vdW  Elec       q    Type
REMARK                         _______ _______ _______ _____ _____    ______ ____
ROOT
ATOM      1  O   UNL     1      30.700 -11.897 -20.347  0.00  0.00    -0.270 OA
ATOM      2  N   UNL     1      32.721 -13.024 -20.570  0.00  0.00    -0.270 N 
ATOM      3  C   UNL     1      31.847 -11.957 -20.794  0.00  0.00    +0.249 C 
ATOM      4  C   UNL     1      32.279 -14.153 -19.762  0.00  0.00    +0.116 C 
ENDROOT
BRANCH   3   6
ATOM      5  C   UNL     1      31.590  -9.776 -21.923  0.00  0.00    +0.006 C 
ATOM      6  C   UNL     1      32.364 -10.854 -21.658  0.00  0.00    +0.058 C 
BRANCH   5  16
ATOM      7  O   UNL     1      34.443  -4.003 -26.151  0.00  0.00    -0.275 OA
ATOM      8  N   UNL     1      32.917  -5.440 -25.214  0.00  0.00    -0.270 N 
ATOM      9  N   UNL     1      31.313  -6.945 -24.342  0.00  0.00    -0.229 NA
ATOM     10  C   UNL     1      35.005  -6.564 -23.660  0.00  0.00    +0.039 C 
ATOM     11  C   UNL     1      33.620  -7.138 -23.647  0.00  0.00    +0.010 C 
ATOM     12  C   UNL     1      35.311  -5.922 -25.005  0.00  0.00    +0.090 C 
ATOM     13  C   UNL     1      32.605  -6.540 -24.391  0.00  0.00    +0.130 C 
ATOM     14  C   UNL     1      33.283  -8.211 -22.821  0.00  0.00    +0.000 C 
ATOM     15  C   UNL     1      34.201  -5.010 -25.484  0.00  0.00    +0.227 C 
ATOM     16  C   UNL     1      31.969  -8.659 -22.770  0.00  0.00    +0.019 C 
ATOM     17  C   UNL     1      31.029  -7.996 -23.540  0.00  0.00    +0.100 C 
ATOM     18  H   UNL     1      32.171  -4.946 -25.623  0.00  0.00    +0.156 HD
ENDBRANCH   5  16
ENDBRANCH   3   6
BRANCH   2  19
ATOM     19  C   UNL     1      34.072 -13.132 -21.117  0.00  0.00    +0.122 C 
BRANCH  19  21
ATOM     20  N   UNL     1      33.755 -14.864 -24.315  0.00  0.00    -0.284 N 
ATOM     21  C   UNL     1      34.067 -14.057 -22.285  0.00  0.00    +0.014 C 
ATOM     22  C   UNL     1      34.560 -15.383 -22.300  0.00  0.00    +0.013 C 
ATOM     23  C   UNL     1      34.352 -15.872 -23.592  0.00  0.00    +0.051 C 
ATOM     24  C   UNL     1      33.578 -13.758 -23.528  0.00  0.00    +0.063 C 
ATOM     25  C   UNL     1      35.165 -16.225 -21.347  0.00  0.00    +0.001 C 
ATOM     26  C   UNL     1      34.722 -17.165 -23.979  0.00  0.00    +0.015 C 
ATOM     27  C   UNL     1      33.366 -14.946 -25.707  0.00  0.00    +0.117 C 
ATOM     28  C   UNL     1      35.539 -17.521 -21.718  0.00  0.00    +0.000 C 
ATOM     29  C   UNL     1      35.321 -17.981 -23.014  0.00  0.00    +0.001 C 
ENDBRANCH  19  21
ENDBRANCH   2  19
TORSDOF 4
ENDMDL
MODEL 7
REMARK VINA RESULT:     -10.5      2.610      9.135
REMARK  Name = 5288607
REMARK  4 active torsions:
REMARK  status: ('A' for Active; 'I' for Inactive)
REMARK    1  A    between atoms: N_2  and  C_19
REMARK    2  A    between atoms: C_3  and  C_6
REMARK    3  A    between atoms: C_5  and  C_16
REMARK    4  A    between atoms: C_19  and  C_21
REMARK                            x       y       z     vdW  Elec       q    Type
REMARK                         _______ _______ _______ _____ _____    ______ ____
ROOT
ATOM      1  O   UNL     1      34.355 -16.997 -25.102  0.00  0.00    -0.270 OA
ATOM      2  N   UNL     1      35.107 -17.707 -23.021  0.00  0.00    -0.270 N 
ATOM      3  C   UNL     1      34.627 -16.756 -23.925  0.00  0.00    +0.249 C 
ATOM      4  C   UNL     1      35.310 -19.079 -23.467  0.00  0.00    +0.116 C 
ENDROOT
BRANCH   3   6
ATOM      5  C   UNL     1      33.457 -14.584 -23.824  0.00  0.00    +0.006 C 
ATOM      6  C   UNL     1      34.476 -15.367 -23.398  0.00  0.00    +0.058 C 
BRANCH   5  16
ATOM      7  O   UNL     1      31.642  -7.639 -21.029  0.00  0.00    -0.275 OA
ATOM      8  N   UNL     1      32.637  -9.247 -22.332  0.00  0.00    -0.270 N 
ATOM      9  N   UNL     1      33.753 -10.866 -23.646  0.00  0.00    -0.229 NA
ATOM     10  C   UNL     1      30.999 -11.197 -21.087  0.00  0.00    +0.039 C 
ATOM     11  C   UNL     1      32.076 -11.579 -22.058  0.00  0.00    +0.010 C 
ATOM     12  C   UNL     1      31.368  -9.921 -20.347  0.00  0.00    +0.090 C 
ATOM     13  C   UNL     1      32.839 -10.595 -22.684  0.00  0.00    +0.130 C 
ATOM     14  C   UNL     1      32.276 -12.906 -22.441  0.00  0.00    +0.000 C 
ATOM     15  C   UNL     1      31.857  -8.827 -21.273  0.00  0.00    +0.227 C 
ATOM     16  C   UNL     1      33.223 -13.212 -23.410  0.00  0.00    +0.019 C 
ATOM     17  C   UNL     1      33.927 -12.164 -23.979  0.00  0.00    +0.100 C 
ATOM     18  H   UNL     1      33.082  -8.558 -22.877  0.00  0.00    +0.156 HD
ENDBRANCH   5  16
ENDBRANCH   3   6
BRANCH   2  19
ATOM     19  C   UNL     1      35.468 -17.438 -21.631  0.00  0.00    +0.122 C 
BRANCH  19  21
ATOM     20  N   UNL     1      36.531 -20.457 -19.876  0.00  0.00    -0.284 N 
ATOM     21  C   UNL     1      35.621 -18.723 -20.894  0.00  0.00    +0.014 C 
ATOM     22  C   UNL     1      34.571 -19.565 -20.458  0.00  0.00    +0.013 C 
ATOM     23  C   UNL     1      35.169 -20.653 -19.818  0.00  0.00    +0.051 C 
ATOM     24  C   UNL     1      36.813 -19.288 -20.528  0.00  0.00    +0.063 C 
ATOM     25  C   UNL     1      33.165 -19.516 -20.540  0.00  0.00    +0.001 C 
ATOM     26  C   UNL     1      34.429 -21.698 -19.253  0.00  0.00    +0.015 C 
ATOM     27  C   UNL     1      37.531 -21.351 -19.330  0.00  0.00    +0.117 C 
ATOM     28  C   UNL     1      32.412 -20.554 -19.981  0.00  0.00    +0.000 C 
ATOM     29  C   UNL     1      33.035 -21.627 -19.348  0.00  0.00    +0.001 C 
ENDBRANCH  19  21
ENDBRANCH   2  19
TORSDOF 4
ENDMDL
MODEL 8
REMARK VINA RESULT:     -10.5      6.041     12.169
REMARK  Name = 5288607
REMARK  4 active torsions:
REMARK  status: ('A' for Active; 'I' for Inactive)
REMARK    1  A    between atoms: N_2  and  C_19
REMARK    2  A    between atoms: C_3  and  C_6
REMARK    3  A    between atoms: C_5  and  C_16
REMARK    4  A    between atoms: C_19  and  C_21
REMARK                            x       y       z     vdW  Elec       q    Type
REMARK                         _______ _______ _______ _____ _____    ______ ____
ROOT
ATOM      1  O   UNL     1      32.633  -7.922 -18.746  0.00  0.00    -0.270 OA
ATOM      2  N   UNL     1      31.555  -9.910 -19.281  0.00  0.00    -0.270 N 
ATOM      3  C   UNL     1      32.124  -8.670 -19.581  0.00  0.00    +0.249 C 
ATOM      4  C   UNL     1      31.546 -10.377 -17.900  0.00  0.00    +0.116 C 
ENDROOT
BRANCH   3   6
ATOM      5  C   UNL     1      33.127  -7.640 -21.590  0.00  0.00    +0.006 C 
ATOM      6  C   UNL     1      32.064  -8.250 -21.013  0.00  0.00    +0.058 C 
BRANCH   5  16
ATOM      7  O   UNL     1      34.267  -4.935 -28.711  0.00  0.00    -0.275 OA
ATOM      8  N   UNL     1      33.185  -5.805 -26.882  0.00  0.00    -0.270 N 
ATOM      9  N   UNL     1      32.040  -6.779 -25.056  0.00  0.00    -0.229 NA
ATOM     10  C   UNL     1      35.572  -5.493 -25.385  0.00  0.00    +0.039 C 
ATOM     11  C   UNL     1      34.366  -6.170 -24.808  0.00  0.00    +0.010 C 
ATOM     12  C   UNL     1      35.633  -5.691 -26.892  0.00  0.00    +0.090 C 
ATOM     13  C   UNL     1      33.193  -6.273 -25.554  0.00  0.00    +0.130 C 
ATOM     14  C   UNL     1      34.343  -6.618 -23.486  0.00  0.00    +0.000 C 
ATOM     15  C   UNL     1      34.311  -5.406 -27.575  0.00  0.00    +0.227 C 
ATOM     16  C   UNL     1      33.178  -7.161 -22.959  0.00  0.00    +0.019 C 
ATOM     17  C   UNL     1      32.062  -7.215 -23.777  0.00  0.00    +0.100 C 
ATOM     18  H   UNL     1      32.319  -5.759 -27.348  0.00  0.00    +0.156 HD
ENDBRANCH   5  16
ENDBRANCH   3   6
BRANCH   2  19
ATOM     19  C   UNL     1      30.915 -10.798 -20.249  0.00  0.00    +0.122 C 
BRANCH  19  21
ATOM     20  N   UNL     1      33.149 -13.655 -20.668  0.00  0.00    -0.284 N 
ATOM     21  C   UNL     1      31.879 -11.850 -20.677  0.00  0.00    +0.014 C 
ATOM     22  C   UNL     1      32.561 -11.902 -21.916  0.00  0.00    +0.013 C 
ATOM     23  C   UNL     1      33.356 -13.049 -21.887  0.00  0.00    +0.051 C 
ATOM     24  C   UNL     1      32.253 -12.932 -19.927  0.00  0.00    +0.063 C 
ATOM     25  C   UNL     1      32.586 -11.089 -23.067  0.00  0.00    +0.001 C 
ATOM     26  C   UNL     1      34.177 -13.427 -22.956  0.00  0.00    +0.015 C 
ATOM     27  C   UNL     1      33.779 -14.880 -20.221  0.00  0.00    +0.117 C 
ATOM     28  C   UNL     1      33.402 -11.453 -24.142  0.00  0.00    +0.000 C 
ATOM     29  C   UNL     1      34.185 -12.604 -24.086  0.00  0.00    +0.001 C 
ENDBRANCH  19  21
ENDBRANCH   2  19
TORSDOF 4
ENDMDL
MODEL 9
REMARK VINA RESULT:     -10.4      6.236     12.219
REMARK  Name = 5288607
REMARK  4 active torsions:
REMARK  status: ('A' for Active; 'I' for Inactive)
REMARK    1  A    between atoms: N_2  and  C_19
REMARK    2  A    between atoms: C_3  and  C_6
REMARK    3  A    between atoms: C_5  and  C_16
REMARK    4  A    between atoms: C_19  and  C_21
REMARK                            x       y       z     vdW  Elec       q    Type
REMARK                         _______ _______ _______ _____ _____    ______ ____
ROOT
ATOM      1  O   UNL     1      32.686  -7.944 -18.906  0.00  0.00    -0.270 OA
ATOM      2  N   UNL     1      31.563  -9.864 -19.580  0.00  0.00    -0.270 N 
ATOM      3  C   UNL     1      32.145  -8.611 -19.789  0.00  0.00    +0.249 C 
ATOM      4  C   UNL     1      31.578 -10.446 -18.244  0.00  0.00    +0.116 C 
ENDROOT
BRANCH   3   6
ATOM      5  C   UNL     1      33.136  -7.478 -21.747  0.00  0.00    +0.006 C 
ATOM      6  C   UNL     1      32.059  -8.072 -21.179  0.00  0.00    +0.058 C 
BRANCH   5  16
ATOM      7  O   UNL     1      34.191  -4.367 -28.714  0.00  0.00    -0.275 OA
ATOM      8  N   UNL     1      33.115  -5.200 -26.866  0.00  0.00    -0.270 N 
ATOM      9  N   UNL     1      31.957  -6.125 -25.021  0.00  0.00    -0.229 NA
ATOM     10  C   UNL     1      35.628  -5.446 -25.576  0.00  0.00    +0.039 C 
ATOM     11  C   UNL     1      34.367  -5.954 -24.943  0.00  0.00    +0.010 C 
ATOM     12  C   UNL     1      35.535  -5.512 -27.093  0.00  0.00    +0.090 C 
ATOM     13  C   UNL     1      33.141  -5.784 -25.584  0.00  0.00    +0.130 C 
ATOM     14  C   UNL     1      34.366  -6.512 -23.664  0.00  0.00    +0.000 C 
ATOM     15  C   UNL     1      34.238  -4.940 -27.626  0.00  0.00    +0.227 C 
ATOM     16  C   UNL     1      33.166  -6.891 -23.075  0.00  0.00    +0.019 C 
ATOM     17  C   UNL     1      32.000  -6.675 -23.788  0.00  0.00    +0.100 C 
ATOM     18  H   UNL     1      32.238  -4.962 -27.244  0.00  0.00    +0.156 HD
ENDBRANCH   5  16
ENDBRANCH   3   6
BRANCH   2  19
ATOM     19  C   UNL     1      30.887 -10.658 -20.604  0.00  0.00    +0.122 C 
BRANCH  19  21
ATOM     20  N   UNL     1      33.280 -12.018 -23.003  0.00  0.00    -0.284 N 
ATOM     21  C   UNL     1      31.894 -11.423 -21.391  0.00  0.00    +0.014 C 
ATOM     22  C   UNL     1      32.502 -12.642 -21.008  0.00  0.00    +0.013 C 
ATOM     23  C   UNL     1      33.372 -12.997 -22.040  0.00  0.00    +0.051 C 
ATOM     24  C   UNL     1      32.383 -11.059 -22.616  0.00  0.00    +0.063 C 
ATOM     25  C   UNL     1      32.404 -13.486 -19.883  0.00  0.00    +0.001 C 
ATOM     26  C   UNL     1      34.153 -14.158 -22.004  0.00  0.00    +0.015 C 
ATOM     27  C   UNL     1      34.018 -11.992 -24.248  0.00  0.00    +0.117 C 
ATOM     28  C   UNL     1      33.177 -14.650 -19.833  0.00  0.00    +0.000 C 
ATOM     29  C   UNL     1      34.038 -14.980 -20.878  0.00  0.00    +0.001 C 
ENDBRANCH  19  21
ENDBRANCH   2  19
TORSDOF 4
ENDMDL
