MODEL 1
REMARK VINA RESULT:     -11.8      0.000      0.000
REMARK  Name = 25243828
REMARK  6 active torsions:
REMARK  status: ('A' for Active; 'I' for Inactive)
REMARK    1  A    between atoms: C_1  and  C_18
REMARK    2  A    between atoms: C_4  and  O_7
REMARK    3  A    between atoms: O_7  and  C_9
REMARK    4  A    between atoms: C_11  and  C_17
REMARK    5  A    between atoms: C_18  and  C_21
REMARK    6  A    between atoms: C_26  and  O_27
REMARK                            x       y       z     vdW  Elec       q    Type
REMARK                         _______ _______ _______ _____ _____    ______ ____
ROOT
ATOM      1  C   UNL     1      33.930 -23.301 -14.766  0.00  0.00    -0.019 C 
ATOM      2  C   UNL     1      34.094 -23.409 -16.147  0.00  0.00    +0.033 C 
ATOM      3  C   UNL     1      32.681 -22.978 -14.234  0.00  0.00    -0.004 C 
ATOM      4  C   UNL     1      33.010 -23.191 -16.997  0.00  0.00    +0.147 C 
ATOM      5  C   UNL     1      31.597 -22.761 -15.084  0.00  0.00    +0.003 C 
ATOM      6  C   UNL     1      31.760 -22.868 -16.466  0.00  0.00    +0.038 C 
ENDROOT
BRANCH   4   7
ATOM      7  O   UNL     1      33.169 -23.293 -18.344  0.00  0.00    -0.436 OA
BRANCH   7   9
ATOM      8  N   UNL     1      35.145 -22.315 -19.106  0.00  0.00    -0.210 NA
ATOM      9  C   UNL     1      33.799 -22.248 -18.999  0.00  0.00    +0.230 C 
ATOM     10  C   UNL     1      33.032 -21.210 -19.502  0.00  0.00    +0.058 C 
ATOM     11  C   UNL     1      35.072 -20.208 -20.288  0.00  0.00    +0.091 C 
ATOM     12  C   UNL     1      33.688 -20.174 -20.159  0.00  0.00    +0.010 C 
ATOM     13  C   UNL     1      35.749 -21.290 -19.750  0.00  0.00    +0.106 C 
BRANCH  11  17
ATOM     14  F   UNL     1      35.819 -19.239 -22.345  0.00  0.00    -0.166 F 
ATOM     15  F   UNL     1      35.283 -17.870 -20.750  0.00  0.00    -0.166 F 
ATOM     16  F   UNL     1      37.115 -19.034 -20.611  0.00  0.00    -0.166 F 
ATOM     17  C   UNL     1      35.803 -19.114 -20.983  0.00  0.00    +0.420 C 
ENDBRANCH  11  17
ENDBRANCH   7   9
ENDBRANCH   4   7
BRANCH   1  18
ATOM     18  C   UNL     1      35.098 -23.534 -13.848  0.00  0.00    +0.027 C 
BRANCH  18  21
ATOM     19  O   UNL     1      41.156 -24.644 -14.057  0.00  0.00    -0.226 OA
ATOM     20  N   UNL     1      38.971 -25.239 -14.589  0.00  0.00    -0.246 N 
ATOM     21  C   UNL     1      36.265 -24.196 -14.578  0.00  0.00    +0.008 C 
ATOM     22  C   UNL     1      37.493 -23.271 -14.600  0.00  0.00    +0.022 C 
ATOM     23  C   UNL     1      36.620 -25.544 -13.930  0.00  0.00    +0.022 C 
ATOM     24  C   UNL     1      38.693 -23.960 -15.248  0.00  0.00    +0.097 C 
ATOM     25  C   UNL     1      37.838 -26.174 -14.603  0.00  0.00    +0.097 C 
ATOM     26  C   UNL     1      40.235 -25.460 -14.034  0.00  0.00    +0.402 C 
BRANCH  26  27
ATOM     27  O   UNL     1      40.428 -26.666 -13.427  0.00  0.00    -0.466 OA
ATOM     28  H   UNL     1      41.276 -27.064 -13.437  0.00  0.00    +0.297 HD
ENDBRANCH  26  27
ENDBRANCH  18  21
ENDBRANCH   1  18
TORSDOF 6
ENDMDL
MODEL 2
REMARK VINA RESULT:     -11.3      5.069      8.564
REMARK  Name = 25243828
REMARK  6 active torsions:
REMARK  status: ('A' for Active; 'I' for Inactive)
REMARK    1  A    between atoms: C_1  and  C_18
REMARK    2  A    between atoms: C_4  and  O_7
REMARK    3  A    between atoms: O_7  and  C_9
REMARK    4  A    between atoms: C_11  and  C_17
REMARK    5  A    between atoms: C_18  and  C_21
REMARK    6  A    between atoms: C_26  and  O_27
REMARK                            x       y       z     vdW  Elec       q    Type
REMARK                         _______ _______ _______ _____ _____    ______ ____
ROOT
ATOM      1  C   UNL     1      35.360 -18.526 -21.883  0.00  0.00    -0.019 C 
ATOM      2  C   UNL     1      35.553 -17.149 -21.995  0.00  0.00    +0.033 C 
ATOM      3  C   UNL     1      34.749 -19.231 -22.920  0.00  0.00    -0.004 C 
ATOM      4  C   UNL     1      35.133 -16.477 -23.143  0.00  0.00    +0.147 C 
ATOM      5  C   UNL     1      34.330 -18.559 -24.068  0.00  0.00    +0.003 C 
ATOM      6  C   UNL     1      34.522 -17.182 -24.181  0.00  0.00    +0.038 C 
ENDROOT
BRANCH   4   7
ATOM      7  O   UNL     1      35.318 -15.133 -23.252  0.00  0.00    -0.436 OA
BRANCH   7   9
ATOM      8  N   UNL     1      33.887 -13.291 -23.225  0.00  0.00    -0.210 NA
ATOM      9  C   UNL     1      34.465 -14.305 -22.542  0.00  0.00    +0.230 C 
ATOM     10  C   UNL     1      34.250 -14.556 -21.197  0.00  0.00    +0.058 C 
ATOM     11  C   UNL     1      32.773 -12.658 -21.175  0.00  0.00    +0.091 C 
ATOM     12  C   UNL     1      33.386 -13.712 -20.507  0.00  0.00    +0.010 C 
ATOM     13  C   UNL     1      33.054 -12.491 -22.521  0.00  0.00    +0.106 C 
BRANCH  11  17
ATOM     14  F   UNL     1      32.058 -10.415 -20.746  0.00  0.00    -0.166 F 
ATOM     15  F   UNL     1      30.527 -11.952 -20.755  0.00  0.00    -0.166 F 
ATOM     16  F   UNL     1      31.938 -11.836 -19.106  0.00  0.00    -0.166 F 
ATOM     17  C   UNL     1      31.846 -11.736 -20.465  0.00  0.00    +0.420 C 
ENDBRANCH  11  17
ENDBRANCH   7   9
ENDBRANCH   4   7
BRANCH   1  18
ATOM     18  C   UNL     1      35.810 -19.251 -20.645  0.00  0.00    +0.027 C 
BRANCH  18  21
ATOM     19  O   UNL     1      33.643 -23.397 -16.634  0.00  0.00    -0.226 OA
ATOM     20  N   UNL     1      33.494 -22.283 -18.672  0.00  0.00    -0.246 N 
ATOM     21  C   UNL     1      35.005 -20.529 -20.417  0.00  0.00    +0.008 C 
ATOM     22  C   UNL     1      35.691 -21.430 -19.379  0.00  0.00    +0.022 C 
ATOM     23  C   UNL     1      33.570 -20.199 -19.977  0.00  0.00    +0.022 C 
ATOM     24  C   UNL     1      34.849 -22.669 -19.077  0.00  0.00    +0.097 C 
ATOM     25  C   UNL     1      32.782 -21.471 -19.668  0.00  0.00    +0.097 C 
ATOM     26  C   UNL     1      33.007 -22.707 -17.431  0.00  0.00    +0.402 C 
BRANCH  26  27
ATOM     27  O   UNL     1      31.743 -22.308 -17.108  0.00  0.00    -0.466 OA
ATOM     28  H   UNL     1      31.543 -22.056 -16.229  0.00  0.00    +0.297 HD
ENDBRANCH  26  27
ENDBRANCH  18  21
ENDBRANCH   1  18
TORSDOF 6
ENDMDL
MODEL 3
REMARK VINA RESULT:     -11.1      3.292      5.905
REMARK  Name = 25243828
REMARK  6 active torsions:
REMARK  status: ('A' for Active; 'I' for Inactive)
REMARK    1  A    between atoms: C_1  and  C_18
REMARK    2  A    between atoms: C_4  and  O_7
REMARK    3  A    between atoms: O_7  and  C_9
REMARK    4  A    between atoms: C_11  and  C_17
REMARK    5  A    between atoms: C_18  and  C_21
REMARK    6  A    between atoms: C_26  and  O_27
REMARK                            x       y       z     vdW  Elec       q    Type
REMARK                         _______ _______ _______ _____ _____    ______ ____
ROOT
ATOM      1  C   UNL     1      33.495 -23.961 -14.503  0.00  0.00    -0.019 C 
ATOM      2  C   UNL     1      33.109 -23.938 -15.843  0.00  0.00    +0.033 C 
ATOM      3  C   UNL     1      34.658 -23.304 -14.100  0.00  0.00    -0.004 C 
ATOM      4  C   UNL     1      33.886 -23.259 -16.781  0.00  0.00    +0.147 C 
ATOM      5  C   UNL     1      35.435 -22.624 -15.038  0.00  0.00    +0.003 C 
ATOM      6  C   UNL     1      35.049 -22.600 -16.379  0.00  0.00    +0.038 C 
ENDROOT
BRANCH   4   7
ATOM      7  O   UNL     1      33.512 -23.238 -18.089  0.00  0.00    -0.436 OA
BRANCH   7   9
ATOM      8  N   UNL     1      35.280 -22.165 -19.169  0.00  0.00    -0.210 NA
ATOM      9  C   UNL     1      33.961 -22.187 -18.871  0.00  0.00    +0.230 C 
ATOM     10  C   UNL     1      33.053 -21.233 -19.301  0.00  0.00    +0.058 C 
ATOM     11  C   UNL     1      34.880 -20.133 -20.414  0.00  0.00    +0.091 C 
ATOM     12  C   UNL     1      33.529 -20.189 -20.088  0.00  0.00    +0.010 C 
ATOM     13  C   UNL     1      35.706 -21.136 -19.935  0.00  0.00    +0.106 C 
BRANCH  11  17
ATOM     14  F   UNL     1      35.115 -19.144 -22.581  0.00  0.00    -0.166 F 
ATOM     15  F   UNL     1      34.962 -17.790 -20.893  0.00  0.00    -0.166 F 
ATOM     16  F   UNL     1      36.782 -18.940 -21.200  0.00  0.00    -0.166 F 
ATOM     17  C   UNL     1      35.420 -19.028 -21.253  0.00  0.00    +0.420 C 
ENDBRANCH  11  17
ENDBRANCH   7   9
ENDBRANCH   4   7
BRANCH   1  18
ATOM     18  C   UNL     1      32.659 -24.695 -13.491  0.00  0.00    +0.027 C 
BRANCH  18  21
ATOM     19  O   UNL     1      28.180 -22.097 -16.830  0.00  0.00    -0.226 OA
ATOM     20  N   UNL     1      28.872 -23.605 -15.200  0.00  0.00    -0.246 N 
ATOM     21  C   UNL     1      31.183 -24.321 -13.601  0.00  0.00    +0.008 C 
ATOM     22  C   UNL     1      31.018 -22.919 -14.210  0.00  0.00    +0.022 C 
ATOM     23  C   UNL     1      30.416 -25.361 -14.433  0.00  0.00    +0.022 C 
ATOM     24  C   UNL     1      29.543 -22.571 -14.408  0.00  0.00    +0.097 C 
ATOM     25  C   UNL     1      28.955 -24.951 -14.617  0.00  0.00    +0.097 C 
ATOM     26  C   UNL     1      28.228 -23.244 -16.388  0.00  0.00    +0.402 C 
BRANCH  26  27
ATOM     27  O   UNL     1      27.631 -24.253 -17.085  0.00  0.00    -0.466 OA
ATOM     28  H   UNL     1      28.062 -24.628 -17.827  0.00  0.00    +0.297 HD
ENDBRANCH  26  27
ENDBRANCH  18  21
ENDBRANCH   1  18
TORSDOF 6
ENDMDL
MODEL 4
REMARK VINA RESULT:     -11.1      5.917     10.799
REMARK  Name = 25243828
REMARK  6 active torsions:
REMARK  status: ('A' for Active; 'I' for Inactive)
REMARK    1  A    between atoms: C_1  and  C_18
REMARK    2  A    between atoms: C_4  and  O_7
REMARK    3  A    between atoms: O_7  and  C_9
REMARK    4  A    between atoms: C_11  and  C_17
REMARK    5  A    between atoms: C_18  and  C_21
REMARK    6  A    between atoms: C_26  and  O_27
REMARK                            x       y       z     vdW  Elec       q    Type
REMARK                         _______ _______ _______ _____ _____    ______ ____
ROOT
ATOM      1  C   UNL     1      34.977 -16.498 -22.949  0.00  0.00    -0.019 C 
ATOM      2  C   UNL     1      35.673 -17.211 -21.974  0.00  0.00    +0.033 C 
ATOM      3  C   UNL     1      34.330 -17.177 -23.982  0.00  0.00    -0.004 C 
ATOM      4  C   UNL     1      35.724 -18.604 -22.031  0.00  0.00    +0.147 C 
ATOM      5  C   UNL     1      34.382 -18.570 -24.040  0.00  0.00    +0.003 C 
ATOM      6  C   UNL     1      35.078 -19.284 -23.064  0.00  0.00    +0.038 C 
ENDROOT
BRANCH   4   7
ATOM      7  O   UNL     1      36.406 -19.301 -21.081  0.00  0.00    -0.436 OA
BRANCH   7   9
ATOM      8  N   UNL     1      36.387 -20.943 -19.425  0.00  0.00    -0.210 NA
ATOM      9  C   UNL     1      35.681 -20.150 -20.262  0.00  0.00    +0.230 C 
ATOM     10  C   UNL     1      34.298 -20.142 -20.341  0.00  0.00    +0.058 C 
ATOM     11  C   UNL     1      34.285 -21.833 -18.630  0.00  0.00    +0.091 C 
ATOM     12  C   UNL     1      33.594 -21.003 -19.505  0.00  0.00    +0.010 C 
ATOM     13  C   UNL     1      35.669 -21.766 -18.628  0.00  0.00    +0.106 C 
BRANCH  11  17
ATOM     14  F   UNL     1      32.255 -22.421 -17.509  0.00  0.00    -0.166 F 
ATOM     15  F   UNL     1      33.513 -24.053 -18.186  0.00  0.00    -0.166 F 
ATOM     16  F   UNL     1      34.125 -22.845 -16.484  0.00  0.00    -0.166 F 
ATOM     17  C   UNL     1      33.560 -22.766 -17.725  0.00  0.00    +0.420 C 
ENDBRANCH  11  17
ENDBRANCH   7   9
ENDBRANCH   4   7
BRANCH   1  18
ATOM     18  C   UNL     1      34.922 -14.996 -22.890  0.00  0.00    +0.027 C 
BRANCH  18  21
ATOM     19  O   UNL     1      32.027 -11.345 -18.858  0.00  0.00    -0.226 OA
ATOM     20  N   UNL     1      32.054 -12.523 -20.864  0.00  0.00    -0.246 N 
ATOM     21  C   UNL     1      33.596 -14.503 -22.316  0.00  0.00    +0.008 C 
ATOM     22  C   UNL     1      33.676 -14.371 -20.786  0.00  0.00    +0.022 C 
ATOM     23  C   UNL     1      33.191 -13.163 -22.950  0.00  0.00    +0.022 C 
ATOM     24  C   UNL     1      32.384 -13.792 -20.211  0.00  0.00    +0.097 C 
ATOM     25  C   UNL     1      31.907 -12.622 -22.322  0.00  0.00    +0.097 C 
ATOM     26  C   UNL     1      31.902 -11.373 -20.082  0.00  0.00    +0.402 C 
BRANCH  26  27
ATOM     27  O   UNL     1      31.604 -10.221 -20.749  0.00  0.00    -0.466 OA
ATOM     28  H   UNL     1      31.965  -9.407 -20.459  0.00  0.00    +0.297 HD
ENDBRANCH  26  27
ENDBRANCH  18  21
ENDBRANCH   1  18
TORSDOF 6
ENDMDL
MODEL 5
REMARK VINA RESULT:     -10.8      3.712      5.552
REMARK  Name = 25243828
REMARK  6 active torsions:
REMARK  status: ('A' for Active; 'I' for Inactive)
REMARK    1  A    between atoms: C_1  and  C_18
REMARK    2  A    between atoms: C_4  and  O_7
REMARK    3  A    between atoms: O_7  and  C_9
REMARK    4  A    between atoms: C_11  and  C_17
REMARK    5  A    between atoms: C_18  and  C_21
REMARK    6  A    between atoms: C_26  and  O_27
REMARK                            x       y       z     vdW  Elec       q    Type
REMARK                         _______ _______ _______ _____ _____    ______ ____
ROOT
ATOM      1  C   UNL     1      34.453 -21.764 -19.011  0.00  0.00    -0.019 C 
ATOM      2  C   UNL     1      35.402 -20.913 -19.575  0.00  0.00    +0.033 C 
ATOM      3  C   UNL     1      33.100 -21.600 -19.312  0.00  0.00    -0.004 C 
ATOM      4  C   UNL     1      34.999 -19.895 -20.440  0.00  0.00    +0.147 C 
ATOM      5  C   UNL     1      32.698 -20.582 -20.178  0.00  0.00    +0.003 C 
ATOM      6  C   UNL     1      33.647 -19.730 -20.742  0.00  0.00    +0.038 C 
ENDROOT
BRANCH   4   7
ATOM      7  O   UNL     1      35.925 -19.062 -20.989  0.00  0.00    -0.436 OA
BRANCH   7   9
ATOM      8  N   UNL     1      35.234 -16.862 -20.633  0.00  0.00    -0.210 NA
ATOM      9  C   UNL     1      35.479 -17.859 -21.512  0.00  0.00    +0.230 C 
ATOM     10  C   UNL     1      35.312 -17.744 -22.883  0.00  0.00    +0.058 C 
ATOM     11  C   UNL     1      34.604 -15.476 -22.510  0.00  0.00    +0.091 C 
ATOM     12  C   UNL     1      34.867 -16.525 -23.384  0.00  0.00    +0.010 C 
ATOM     13  C   UNL     1      34.802 -15.692 -21.157  0.00  0.00    +0.106 C 
BRANCH  11  17
ATOM     14  F   UNL     1      34.831 -13.094 -22.533  0.00  0.00    -0.166 F 
ATOM     15  F   UNL     1      34.186 -14.038 -24.376  0.00  0.00    -0.166 F 
ATOM     16  F   UNL     1      32.822 -13.911 -22.687  0.00  0.00    -0.166 F 
ATOM     17  C   UNL     1      34.124 -14.161 -23.015  0.00  0.00    +0.420 C 
ENDBRANCH  11  17
ENDBRANCH   7   9
ENDBRANCH   4   7
BRANCH   1  18
ATOM     18  C   UNL     1      34.885 -22.861 -18.076  0.00  0.00    +0.027 C 
BRANCH  18  21
ATOM     19  O   UNL     1      32.311 -25.062 -12.928  0.00  0.00    -0.226 OA
ATOM     20  N   UNL     1      33.713 -23.546 -14.001  0.00  0.00    -0.246 N 
ATOM     21  C   UNL     1      34.430 -22.592 -16.644  0.00  0.00    +0.008 C 
ATOM     22  C   UNL     1      33.079 -23.268 -16.362  0.00  0.00    +0.022 C 
ATOM     23  C   UNL     1      35.489 -23.067 -15.635  0.00  0.00    +0.022 C 
ATOM     24  C   UNL     1      32.658 -23.081 -14.905  0.00  0.00    +0.097 C 
ATOM     25  C   UNL     1      35.006 -22.876 -14.199  0.00  0.00    +0.097 C 
ATOM     26  C   UNL     1      33.417 -24.537 -13.060  0.00  0.00    +0.402 C 
BRANCH  26  27
ATOM     27  O   UNL     1      34.443 -24.934 -12.254  0.00  0.00    -0.466 OA
ATOM     28  H   UNL     1      34.870 -24.311 -11.699  0.00  0.00    +0.297 HD
ENDBRANCH  26  27
ENDBRANCH  18  21
ENDBRANCH   1  18
TORSDOF 6
ENDMDL
MODEL 6
REMARK VINA RESULT:     -10.6      7.731     12.637
REMARK  Name = 25243828
REMARK  6 active torsions:
REMARK  status: ('A' for Active; 'I' for Inactive)
REMARK    1  A    between atoms: C_1  and  C_18
REMARK    2  A    between atoms: C_4  and  O_7
REMARK    3  A    between atoms: O_7  and  C_9
REMARK    4  A    between atoms: C_11  and  C_17
REMARK    5  A    between atoms: C_18  and  C_21
REMARK    6  A    between atoms: C_26  and  O_27
REMARK                            x       y       z     vdW  Elec       q    Type
REMARK                         _______ _______ _______ _____ _____    ______ ____
ROOT
ATOM      1  C   UNL     1      34.241 -14.274 -22.498  0.00  0.00    -0.019 C 
ATOM      2  C   UNL     1      34.829 -15.485 -22.860  0.00  0.00    +0.033 C 
ATOM      3  C   UNL     1      34.032 -13.973 -21.151  0.00  0.00    -0.004 C 
ATOM      4  C   UNL     1      35.208 -16.398 -21.875  0.00  0.00    +0.147 C 
ATOM      5  C   UNL     1      34.411 -14.886 -20.167  0.00  0.00    +0.003 C 
ATOM      6  C   UNL     1      35.000 -16.099 -20.528  0.00  0.00    +0.038 C 
ENDROOT
BRANCH   4   7
ATOM      7  O   UNL     1      35.780 -17.582 -22.227  0.00  0.00    -0.436 OA
BRANCH   7   9
ATOM      8  N   UNL     1      36.609 -19.064 -20.628  0.00  0.00    -0.210 NA
ATOM      9  C   UNL     1      35.569 -18.671 -21.398  0.00  0.00    +0.230 C 
ATOM     10  C   UNL     1      34.329 -19.287 -21.400  0.00  0.00    +0.058 C 
ATOM     11  C   UNL     1      35.188 -20.811 -19.749  0.00  0.00    +0.091 C 
ATOM     12  C   UNL     1      34.142 -20.377 -20.556  0.00  0.00    +0.010 C 
ATOM     13  C   UNL     1      36.391 -20.127 -19.821  0.00  0.00    +0.106 C 
BRANCH  11  17
ATOM     14  F   UNL     1      33.951 -21.863 -17.992  0.00  0.00    -0.166 F 
ATOM     15  F   UNL     1      34.832 -23.162 -19.490  0.00  0.00    -0.166 F 
ATOM     16  F   UNL     1      36.102 -22.173 -18.028  0.00  0.00    -0.166 F 
ATOM     17  C   UNL     1      35.020 -21.975 -18.837  0.00  0.00    +0.420 C 
ENDBRANCH  11  17
ENDBRANCH   7   9
ENDBRANCH   4   7
BRANCH   1  18
ATOM     18  C   UNL     1      33.830 -13.289 -23.558  0.00  0.00    +0.027 C 
BRANCH  18  21
ATOM     19  O   UNL     1      32.456  -7.372 -24.593  0.00  0.00    -0.226 OA
ATOM     20  N   UNL     1      32.516  -9.217 -23.177  0.00  0.00    -0.246 N 
ATOM     21  C   UNL     1      33.616 -11.893 -22.978  0.00  0.00    +0.008 C 
ATOM     22  C   UNL     1      34.244 -10.821 -23.883  0.00  0.00    +0.022 C 
ATOM     23  C   UNL     1      32.119 -11.611 -22.770  0.00  0.00    +0.022 C 
ATOM     24  C   UNL     1      33.957  -9.415 -23.359  0.00  0.00    +0.097 C 
ATOM     25  C   UNL     1      31.892 -10.187 -22.267  0.00  0.00    +0.097 C 
ATOM     26  C   UNL     1      31.883  -8.165 -23.846  0.00  0.00    +0.402 C 
BRANCH  26  27
ATOM     27  O   UNL     1      30.540  -8.039 -23.643  0.00  0.00    -0.466 OA
ATOM     28  H   UNL     1      30.154  -7.188 -23.583  0.00  0.00    +0.297 HD
ENDBRANCH  26  27
ENDBRANCH  18  21
ENDBRANCH   1  18
TORSDOF 6
ENDMDL
MODEL 7
REMARK VINA RESULT:     -10.6      6.955     11.885
REMARK  Name = 25243828
REMARK  6 active torsions:
REMARK  status: ('A' for Active; 'I' for Inactive)
REMARK    1  A    between atoms: C_1  and  C_18
REMARK    2  A    between atoms: C_4  and  O_7
REMARK    3  A    between atoms: O_7  and  C_9
REMARK    4  A    between atoms: C_11  and  C_17
REMARK    5  A    between atoms: C_18  and  C_21
REMARK    6  A    between atoms: C_26  and  O_27
REMARK                            x       y       z     vdW  Elec       q    Type
REMARK                         _______ _______ _______ _____ _____    ______ ____
ROOT
ATOM      1  C   UNL     1      34.561 -15.408 -22.079  0.00  0.00    -0.019 C 
ATOM      2  C   UNL     1      35.333 -16.382 -21.448  0.00  0.00    +0.033 C 
ATOM      3  C   UNL     1      34.150 -15.590 -23.400  0.00  0.00    -0.004 C 
ATOM      4  C   UNL     1      35.698 -17.539 -22.138  0.00  0.00    +0.147 C 
ATOM      5  C   UNL     1      34.514 -16.746 -24.090  0.00  0.00    +0.003 C 
ATOM      6  C   UNL     1      35.287 -17.721 -23.459  0.00  0.00    +0.038 C 
ENDROOT
BRANCH   4   7
ATOM      7  O   UNL     1      36.454 -18.489 -21.525  0.00  0.00    -0.436 OA
BRANCH   7   9
ATOM      8  N   UNL     1      36.552 -20.134 -19.873  0.00  0.00    -0.210 NA
ATOM      9  C   UNL     1      35.800 -19.433 -20.751  0.00  0.00    +0.230 C 
ATOM     10  C   UNL     1      34.435 -19.605 -20.914  0.00  0.00    +0.058 C 
ATOM     11  C   UNL     1      34.541 -21.298 -19.208  0.00  0.00    +0.091 C 
ATOM     12  C   UNL     1      33.800 -20.558 -20.122  0.00  0.00    +0.010 C 
ATOM     13  C   UNL     1      35.901 -21.051 -19.122  0.00  0.00    +0.106 C 
BRANCH  11  17
ATOM     14  F   UNL     1      33.820 -23.562 -18.928  0.00  0.00    -0.166 F 
ATOM     15  F   UNL     1      34.531 -22.530 -17.157  0.00  0.00    -0.166 F 
ATOM     16  F   UNL     1      32.605 -22.004 -18.020  0.00  0.00    -0.166 F 
ATOM     17  C   UNL     1      33.892 -22.325 -18.349  0.00  0.00    +0.420 C 
ENDBRANCH  11  17
ENDBRANCH   7   9
ENDBRANCH   4   7
BRANCH   1  18
ATOM     18  C   UNL     1      34.169 -14.160 -21.336  0.00  0.00    +0.027 C 
BRANCH  18  21
ATOM     19  O   UNL     1      31.370  -8.710 -21.992  0.00  0.00    -0.226 OA
ATOM     20  N   UNL     1      32.253 -10.654 -22.914  0.00  0.00    -0.246 N 
ATOM     21  C   UNL     1      33.244 -13.276 -22.169  0.00  0.00    +0.008 C 
ATOM     22  C   UNL     1      32.285 -12.483 -21.268  0.00  0.00    +0.022 C 
ATOM     23  C   UNL     1      34.057 -12.322 -23.060  0.00  0.00    +0.022 C 
ATOM     24  C   UNL     1      31.417 -11.527 -22.085  0.00  0.00    +0.097 C 
ATOM     25  C   UNL     1      33.140 -11.377 -23.836  0.00  0.00    +0.097 C 
ATOM     26  C   UNL     1      32.138  -9.268 -22.775  0.00  0.00    +0.402 C 
BRANCH  26  27
ATOM     27  O   UNL     1      32.949  -8.510 -23.568  0.00  0.00    -0.466 OA
ATOM     28  H   UNL     1      32.925  -7.576 -23.504  0.00  0.00    +0.297 HD
ENDBRANCH  26  27
ENDBRANCH  18  21
ENDBRANCH   1  18
TORSDOF 6
ENDMDL
MODEL 8
REMARK VINA RESULT:     -10.1     11.214     14.169
REMARK  Name = 25243828
REMARK  6 active torsions:
REMARK  status: ('A' for Active; 'I' for Inactive)
REMARK    1  A    between atoms: C_1  and  C_18
REMARK    2  A    between atoms: C_4  and  O_7
REMARK    3  A    between atoms: O_7  and  C_9
REMARK    4  A    between atoms: C_11  and  C_17
REMARK    5  A    between atoms: C_18  and  C_21
REMARK    6  A    between atoms: C_26  and  O_27
REMARK                            x       y       z     vdW  Elec       q    Type
REMARK                         _______ _______ _______ _____ _____    ______ ____
ROOT
ATOM      1  C   UNL     1      32.070 -11.772 -19.970  0.00  0.00    -0.019 C 
ATOM      2  C   UNL     1      31.674 -10.907 -20.990  0.00  0.00    +0.033 C 
ATOM      3  C   UNL     1      32.210 -11.296 -18.666  0.00  0.00    -0.004 C 
ATOM      4  C   UNL     1      31.420  -9.565 -20.706  0.00  0.00    +0.147 C 
ATOM      5  C   UNL     1      31.956  -9.954 -18.382  0.00  0.00    +0.003 C 
ATOM      6  C   UNL     1      31.560  -9.088 -19.402  0.00  0.00    +0.038 C 
ENDROOT
BRANCH   4   7
ATOM      7  O   UNL     1      31.037  -8.719 -21.701  0.00  0.00    -0.436 OA
BRANCH   7   9
ATOM      8  N   UNL     1      31.808  -7.854 -23.725  0.00  0.00    -0.210 NA
ATOM      9  C   UNL     1      32.031  -8.063 -22.408  0.00  0.00    +0.230 C 
ATOM     10  C   UNL     1      33.177  -7.663 -21.742  0.00  0.00    +0.058 C 
ATOM     11  C   UNL     1      33.966  -6.770 -23.831  0.00  0.00    +0.091 C 
ATOM     12  C   UNL     1      34.159  -7.003 -22.474  0.00  0.00    +0.010 C 
ATOM     13  C   UNL     1      32.785  -7.210 -24.404  0.00  0.00    +0.106 C 
BRANCH  11  17
ATOM     14  F   UNL     1      35.323  -6.717 -25.801  0.00  0.00    -0.166 F 
ATOM     15  F   UNL     1      34.631  -4.811 -25.032  0.00  0.00    -0.166 F 
ATOM     16  F   UNL     1      36.179  -5.910 -23.972  0.00  0.00    -0.166 F 
ATOM     17  C   UNL     1      34.999  -6.069 -24.641  0.00  0.00    +0.420 C 
ENDBRANCH  11  17
ENDBRANCH   7   9
ENDBRANCH   4   7
BRANCH   1  18
ATOM     18  C   UNL     1      32.346 -13.219 -20.274  0.00  0.00    +0.027 C 
BRANCH  18  21
ATOM     19  O   UNL     1      34.572 -16.974 -24.623  0.00  0.00    -0.226 OA
ATOM     20  N   UNL     1      33.938 -14.850 -23.915  0.00  0.00    -0.246 N 
ATOM     21  C   UNL     1      33.204 -13.377 -21.528  0.00  0.00    +0.008 C 
ATOM     22  C   UNL     1      34.036 -14.667 -21.463  0.00  0.00    +0.022 C 
ATOM     23  C   UNL     1      32.330 -13.365 -22.793  0.00  0.00    +0.022 C 
ATOM     24  C   UNL     1      34.829 -14.881 -22.752  0.00  0.00    +0.097 C 
ATOM     25  C   UNL     1      33.171 -13.604 -24.045  0.00  0.00    +0.097 C 
ATOM     26  C   UNL     1      33.899 -15.954 -24.773  0.00  0.00    +0.402 C 
BRANCH  26  27
ATOM     27  O   UNL     1      33.044 -15.868 -25.832  0.00  0.00    -0.466 OA
ATOM     28  H   UNL     1      33.301 -15.406 -26.605  0.00  0.00    +0.297 HD
ENDBRANCH  26  27
ENDBRANCH  18  21
ENDBRANCH   1  18
TORSDOF 6
ENDMDL
MODEL 9
REMARK VINA RESULT:      -9.9      3.048      4.436
REMARK  Name = 25243828
REMARK  6 active torsions:
REMARK  status: ('A' for Active; 'I' for Inactive)
REMARK    1  A    between atoms: C_1  and  C_18
REMARK    2  A    between atoms: C_4  and  O_7
REMARK    3  A    between atoms: O_7  and  C_9
REMARK    4  A    between atoms: C_11  and  C_17
REMARK    5  A    between atoms: C_18  and  C_21
REMARK    6  A    between atoms: C_26  and  O_27
REMARK                            x       y       z     vdW  Elec       q    Type
REMARK                         _______ _______ _______ _____ _____    ______ ____
ROOT
ATOM      1  C   UNL     1      36.164 -21.444 -17.682  0.00  0.00    -0.019 C 
ATOM      2  C   UNL     1      36.821 -20.691 -18.655  0.00  0.00    +0.033 C 
ATOM      3  C   UNL     1      34.902 -21.976 -17.945  0.00  0.00    -0.004 C 
ATOM      4  C   UNL     1      36.215 -20.469 -19.892  0.00  0.00    +0.147 C 
ATOM      5  C   UNL     1      34.296 -21.754 -19.182  0.00  0.00    +0.003 C 
ATOM      6  C   UNL     1      34.953 -21.001 -20.156  0.00  0.00    +0.038 C 
ENDROOT
BRANCH   4   7
ATOM      7  O   UNL     1      36.854 -19.733 -20.841  0.00  0.00    -0.436 OA
BRANCH   7   9
ATOM      8  N   UNL     1      35.942 -17.617 -20.476  0.00  0.00    -0.210 NA
ATOM      9  C   UNL     1      36.199 -18.622 -21.344  0.00  0.00    +0.230 C 
ATOM     10  C   UNL     1      35.849 -18.597 -22.684  0.00  0.00    +0.058 C 
ATOM     11  C   UNL     1      34.913 -16.415 -22.303  0.00  0.00    +0.091 C 
ATOM     12  C   UNL     1      35.194 -17.468 -23.165  0.00  0.00    +0.010 C 
ATOM     13  C   UNL     1      35.304 -16.537 -20.980  0.00  0.00    +0.106 C 
BRANCH  11  17
ATOM     14  F   UNL     1      33.622 -15.347 -24.011  0.00  0.00    -0.166 F 
ATOM     15  F   UNL     1      33.206 -14.774 -21.961  0.00  0.00    -0.166 F 
ATOM     16  F   UNL     1      35.046 -14.122 -22.918  0.00  0.00    -0.166 F 
ATOM     17  C   UNL     1      34.211 -15.195 -22.787  0.00  0.00    +0.420 C 
ENDBRANCH  11  17
ENDBRANCH   7   9
ENDBRANCH   4   7
BRANCH   1  18
ATOM     18  C   UNL     1      36.815 -21.683 -16.347  0.00  0.00    +0.027 C 
BRANCH  18  21
ATOM     19  O   UNL     1      37.075 -25.576 -11.578  0.00  0.00    -0.226 OA
ATOM     20  N   UNL     1      36.015 -24.793 -13.495  0.00  0.00    -0.246 N 
ATOM     21  C   UNL     1      36.433 -23.043 -15.770  0.00  0.00    +0.008 C 
ATOM     22  C   UNL     1      37.606 -23.656 -14.988  0.00  0.00    +0.022 C 
ATOM     23  C   UNL     1      35.192 -22.926 -14.870  0.00  0.00    +0.022 C 
ATOM     24  C   UNL     1      37.205 -24.975 -14.330  0.00  0.00    +0.097 C 
ATOM     25  C   UNL     1      34.852 -24.267 -14.223  0.00  0.00    +0.097 C 
ATOM     26  C   UNL     1      36.075 -25.128 -12.139  0.00  0.00    +0.402 C 
BRANCH  26  27
ATOM     27  O   UNL     1      34.937 -24.928 -11.414  0.00  0.00    -0.466 OA
ATOM     28  H   UNL     1      34.142 -25.355 -11.663  0.00  0.00    +0.297 HD
ENDBRANCH  26  27
ENDBRANCH  18  21
ENDBRANCH   1  18
TORSDOF 6
ENDMDL
