MODEL 1
REMARK VINA RESULT:     -10.0      0.000      0.000
REMARK  Name = 25021183
REMARK  7 active torsions:
REMARK  status: ('A' for Active; 'I' for Inactive)
REMARK    1  A    between atoms: C_3  and  C_10
REMARK    2  A    between atoms: C_7  and  C_20
REMARK    3  A    between atoms: N_9  and  C_12
REMARK    4  A    between atoms: C_12  and  C_13
REMARK    5  A    between atoms: C_20  and  N_21
REMARK    6  A    between atoms: C_20  and  C_25
REMARK    7  A    between atoms: C_25  and  C_26
REMARK                            x       y       z     vdW  Elec       q    Type
REMARK                         _______ _______ _______ _____ _____    ______ ____
ROOT
ATOM      1  O   UNL     1      32.351 -10.184 -23.659  0.00  0.00    -0.277 OA
ATOM      2  N   UNL     1      32.250 -10.979 -21.487  0.00  0.00    -0.275 N 
ATOM      3  C   UNL     1      31.183 -10.097 -21.036  0.00  0.00    +0.152 C 
ATOM      4  C   UNL     1      30.703 -10.709 -19.725  0.00  0.00    +0.031 C 
ATOM      5  C   UNL     1      31.948 -11.406 -19.182  0.00  0.00    +0.024 C 
ATOM      6  C   UNL     1      32.636 -11.920 -20.438  0.00  0.00    +0.094 C 
ATOM      7  C   UNL     1      32.698 -10.995 -22.800  0.00  0.00    +0.206 C 
ENDROOT
BRANCH   3  10
ATOM      8  O   UNL     1      32.405  -8.456 -19.806  0.00  0.00    -0.273 OA
ATOM      9  N   UNL     1      31.544  -7.890 -21.894  0.00  0.00    -0.299 N 
ATOM     10  C   UNL     1      31.788  -8.741 -20.829  0.00  0.00    +0.241 C 
ATOM     11  H   UNL     1      31.035  -8.235 -22.663  0.00  0.00    +0.150 HD
BRANCH   9  12
ATOM     12  C   UNL     1      32.001  -6.520 -21.930  0.00  0.00    +0.116 C 
BRANCH  12  13
ATOM     13  C   UNL     1      33.173  -6.342 -22.850  0.00  0.00    -0.003 C 
ATOM     14  C   UNL     1      33.060  -5.523 -23.974  0.00  0.00    -0.007 C 
ATOM     15  C   UNL     1      34.376  -6.994 -22.582  0.00  0.00    -0.003 C 
ATOM     16  C   UNL     1      34.149  -5.357 -24.829  0.00  0.00    -0.022 C 
ATOM     17  C   UNL     1      35.465  -6.829 -23.437  0.00  0.00    -0.001 C 
ATOM     18  C   UNL     1      35.353  -6.010 -24.561  0.00  0.00    -0.004 C 
ATOM     19  C   UNL     1      34.029  -4.482 -26.031  0.00  0.00    +0.031 C 
ENDBRANCH  12  13
ENDBRANCH   9  12
ENDBRANCH   3  10
BRANCH   7  20
ATOM     20  C   UNL     1      33.681 -12.088 -23.137  0.00  0.00    +0.018 C 
BRANCH  20  21
ATOM     21  N   UNL     1      34.664 -11.464 -24.014  0.00  0.00    +0.388 N 
ATOM     22  H   UNL     1      34.269 -11.361 -24.948  0.00  0.00    -0.089 HD
ATOM     23  H   UNL     1      35.498 -12.048 -24.059  0.00  0.00    -0.089 HD
ATOM     24  H   UNL     1      34.911 -10.545 -23.646  0.00  0.00    -0.089 HD
ENDBRANCH  20  21
BRANCH  20  25
ATOM     25  C   UNL     1      32.986 -13.261 -23.828  0.00  0.00    +0.013 C 
BRANCH  25  26
ATOM     26  C   UNL     1      33.736 -14.563 -23.662  0.00  0.00    -0.024 C 
ATOM     27  C   UNL     1      33.770 -15.486 -24.707  0.00  0.00    -0.004 C 
ATOM     28  C   UNL     1      34.393 -14.842 -22.464  0.00  0.00    -0.004 C 
ATOM     29  C   UNL     1      34.462 -16.687 -24.555  0.00  0.00    -0.000 C 
ATOM     30  C   UNL     1      35.085 -16.043 -22.311  0.00  0.00    -0.000 C 
ATOM     31  C   UNL     1      35.119 -16.966 -23.356  0.00  0.00    -0.000 C 
ENDBRANCH  25  26
ENDBRANCH  20  25
ENDBRANCH   7  20
TORSDOF 7
ENDMDL
MODEL 2
REMARK VINA RESULT:      -9.9     10.736     15.257
REMARK  Name = 25021183
REMARK  7 active torsions:
REMARK  status: ('A' for Active; 'I' for Inactive)
REMARK    1  A    between atoms: C_3  and  C_10
REMARK    2  A    between atoms: C_7  and  C_20
REMARK    3  A    between atoms: N_9  and  C_12
REMARK    4  A    between atoms: C_12  and  C_13
REMARK    5  A    between atoms: C_20  and  N_21
REMARK    6  A    between atoms: C_20  and  C_25
REMARK    7  A    between atoms: C_25  and  C_26
REMARK                            x       y       z     vdW  Elec       q    Type
REMARK                         _______ _______ _______ _____ _____    ______ ____
ROOT
ATOM      1  O   UNL     1      33.461 -24.111 -17.044  0.00  0.00    -0.277 OA
ATOM      2  N   UNL     1      35.301 -23.002 -16.181  0.00  0.00    -0.275 N 
ATOM      3  C   UNL     1      35.715 -24.055 -15.264  0.00  0.00    +0.152 C 
ATOM      4  C   UNL     1      37.134 -23.677 -14.856  0.00  0.00    +0.031 C 
ATOM      5  C   UNL     1      37.140 -22.154 -14.963  0.00  0.00    +0.024 C 
ATOM      6  C   UNL     1      36.241 -21.884 -16.159  0.00  0.00    +0.094 C 
ATOM      7  C   UNL     1      34.235 -23.152 -17.056  0.00  0.00    +0.206 C 
ENDROOT
BRANCH   3  10
ATOM      8  O   UNL     1      35.014 -24.621 -13.054  0.00  0.00    -0.273 OA
ATOM      9  N   UNL     1      33.637 -23.275 -14.363  0.00  0.00    -0.299 N 
ATOM     10  C   UNL     1      34.773 -24.022 -14.098  0.00  0.00    +0.241 C 
ATOM     11  H   UNL     1      33.557 -22.839 -15.241  0.00  0.00    +0.150 HD
BRANCH   9  12
ATOM     12  C   UNL     1      32.564 -23.106 -13.410  0.00  0.00    +0.116 C 
BRANCH  12  13
ATOM     13  C   UNL     1      31.278 -23.706 -13.900  0.00  0.00    -0.003 C 
ATOM     14  C   UNL     1      30.310 -22.894 -14.491  0.00  0.00    -0.007 C 
ATOM     15  C   UNL     1      31.050 -25.076 -13.764  0.00  0.00    -0.003 C 
ATOM     16  C   UNL     1      29.115 -23.451 -14.946  0.00  0.00    -0.022 C 
ATOM     17  C   UNL     1      29.855 -25.632 -14.218  0.00  0.00    -0.001 C 
ATOM     18  C   UNL     1      28.887 -24.820 -14.810  0.00  0.00    -0.004 C 
ATOM     19  C   UNL     1      28.080 -22.583 -15.579  0.00  0.00    +0.031 C 
ENDBRANCH  12  13
ENDBRANCH   9  12
ENDBRANCH   3  10
BRANCH   7  20
ATOM     20  C   UNL     1      34.053 -22.038 -18.056  0.00  0.00    +0.018 C 
BRANCH  20  21
ATOM     21  N   UNL     1      32.638 -22.060 -18.401  0.00  0.00    +0.388 N 
ATOM     22  H   UNL     1      32.532 -21.974 -19.412  0.00  0.00    -0.089 HD
ATOM     23  H   UNL     1      32.164 -21.283 -17.942  0.00  0.00    -0.089 HD
ATOM     24  H   UNL     1      32.226 -22.940 -18.091  0.00  0.00    -0.089 HD
ENDBRANCH  20  21
BRANCH  20  25
ATOM     25  C   UNL     1      34.929 -22.254 -19.289  0.00  0.00    +0.013 C 
BRANCH  25  26
ATOM     26  C   UNL     1      35.388 -20.957 -19.913  0.00  0.00    -0.024 C 
ATOM     27  C   UNL     1      36.699 -20.519 -19.727  0.00  0.00    -0.004 C 
ATOM     28  C   UNL     1      34.500 -20.197 -20.674  0.00  0.00    -0.004 C 
ATOM     29  C   UNL     1      37.123 -19.321 -20.303  0.00  0.00    -0.000 C 
ATOM     30  C   UNL     1      34.923 -18.999 -21.250  0.00  0.00    -0.000 C 
ATOM     31  C   UNL     1      36.234 -18.561 -21.064  0.00  0.00    -0.000 C 
ENDBRANCH  25  26
ENDBRANCH  20  25
ENDBRANCH   7  20
TORSDOF 7
ENDMDL
MODEL 3
REMARK VINA RESULT:      -9.7      9.927     13.681
REMARK  Name = 25021183
REMARK  7 active torsions:
REMARK  status: ('A' for Active; 'I' for Inactive)
REMARK    1  A    between atoms: C_3  and  C_10
REMARK    2  A    between atoms: C_7  and  C_20
REMARK    3  A    between atoms: N_9  and  C_12
REMARK    4  A    between atoms: C_12  and  C_13
REMARK    5  A    between atoms: C_20  and  N_21
REMARK    6  A    between atoms: C_20  and  C_25
REMARK    7  A    between atoms: C_25  and  C_26
REMARK                            x       y       z     vdW  Elec       q    Type
REMARK                         _______ _______ _______ _____ _____    ______ ____
ROOT
ATOM      1  O   UNL     1      36.235 -22.457 -17.929  0.00  0.00    -0.277 OA
ATOM      2  N   UNL     1      34.668 -22.796 -16.259  0.00  0.00    -0.275 N 
ATOM      3  C   UNL     1      33.660 -23.424 -17.101  0.00  0.00    +0.152 C 
ATOM      4  C   UNL     1      32.683 -24.067 -16.123  0.00  0.00    +0.031 C 
ATOM      5  C   UNL     1      32.780 -23.175 -14.888  0.00  0.00    +0.024 C 
ATOM      6  C   UNL     1      34.247 -22.776 -14.860  0.00  0.00    +0.094 C 
ATOM      7  C   UNL     1      35.915 -22.426 -16.739  0.00  0.00    +0.206 C 
ENDROOT
BRANCH   3  10
ATOM      8  O   UNL     1      31.911 -21.879 -17.603  0.00  0.00    -0.273 OA
ATOM      9  N   UNL     1      33.782 -21.951 -18.986  0.00  0.00    -0.299 N 
ATOM     10  C   UNL     1      33.011 -22.335 -17.902  0.00  0.00    +0.241 C 
ATOM     11  H   UNL     1      34.652 -22.391 -19.122  0.00  0.00    +0.150 HD
BRANCH   9  12
ATOM     12  C   UNL     1      33.370 -20.935 -19.927  0.00  0.00    +0.116 C 
BRANCH  12  13
ATOM     13  C   UNL     1      34.534 -20.138 -20.440  0.00  0.00    -0.003 C 
ATOM     14  C   UNL     1      34.354 -19.238 -21.490  0.00  0.00    -0.007 C 
ATOM     15  C   UNL     1      35.796 -20.297 -19.866  0.00  0.00    -0.003 C 
ATOM     16  C   UNL     1      35.436 -18.496 -21.966  0.00  0.00    -0.022 C 
ATOM     17  C   UNL     1      36.877 -19.557 -20.343  0.00  0.00    -0.001 C 
ATOM     18  C   UNL     1      36.698 -18.656 -21.393  0.00  0.00    -0.004 C 
ATOM     19  C   UNL     1      35.244 -17.533 -23.089  0.00  0.00    +0.031 C 
ENDBRANCH  12  13
ENDBRANCH   9  12
ENDBRANCH   3  10
BRANCH   7  20
ATOM     20  C   UNL     1      36.899 -21.955 -15.698  0.00  0.00    +0.018 C 
BRANCH  20  21
ATOM     21  N   UNL     1      37.514 -20.761 -16.263  0.00  0.00    +0.388 N 
ATOM     22  H   UNL     1      38.156 -20.354 -15.584  0.00  0.00    -0.089 HD
ATOM     23  H   UNL     1      36.789 -20.083 -16.496  0.00  0.00    -0.089 HD
ATOM     24  H   UNL     1      38.028 -21.012 -17.108  0.00  0.00    -0.089 HD
ENDBRANCH  20  21
BRANCH  20  25
ATOM     25  C   UNL     1      37.944 -23.029 -15.399  0.00  0.00    +0.013 C 
BRANCH  25  26
ATOM     26  C   UNL     1      37.573 -23.888 -14.212  0.00  0.00    -0.024 C 
ATOM     27  C   UNL     1      37.266 -23.292 -12.989  0.00  0.00    -0.004 C 
ATOM     28  C   UNL     1      37.541 -25.277 -14.339  0.00  0.00    -0.004 C 
ATOM     29  C   UNL     1      36.924 -24.085 -11.894  0.00  0.00    -0.000 C 
ATOM     30  C   UNL     1      37.199 -26.070 -13.243  0.00  0.00    -0.000 C 
ATOM     31  C   UNL     1      36.891 -25.473 -12.021  0.00  0.00    -0.000 C 
ENDBRANCH  25  26
ENDBRANCH  20  25
ENDBRANCH   7  20
TORSDOF 7
ENDMDL
MODEL 4
REMARK VINA RESULT:      -9.5     11.478     15.896
REMARK  Name = 25021183
REMARK  7 active torsions:
REMARK  status: ('A' for Active; 'I' for Inactive)
REMARK    1  A    between atoms: C_3  and  C_10
REMARK    2  A    between atoms: C_7  and  C_20
REMARK    3  A    between atoms: N_9  and  C_12
REMARK    4  A    between atoms: C_12  and  C_13
REMARK    5  A    between atoms: C_20  and  N_21
REMARK    6  A    between atoms: C_20  and  C_25
REMARK    7  A    between atoms: C_25  and  C_26
REMARK                            x       y       z     vdW  Elec       q    Type
REMARK                         _______ _______ _______ _____ _____    ______ ____
ROOT
ATOM      1  O   UNL     1      34.631 -22.449 -15.241  0.00  0.00    -0.277 OA
ATOM      2  N   UNL     1      32.431 -23.169 -15.265  0.00  0.00    -0.275 N 
ATOM      3  C   UNL     1      32.176 -22.973 -13.845  0.00  0.00    +0.152 C 
ATOM      4  C   UNL     1      30.659 -23.040 -13.711  0.00  0.00    +0.031 C 
ATOM      5  C   UNL     1      30.242 -23.961 -14.855  0.00  0.00    +0.024 C 
ATOM      6  C   UNL     1      31.225 -23.610 -15.961  0.00  0.00    +0.094 C 
ATOM      7  C   UNL     1      33.633 -22.817 -15.862  0.00  0.00    +0.206 C 
ENDROOT
BRANCH   3  10
ATOM      8  O   UNL     1      32.306 -25.187 -12.963  0.00  0.00    -0.273 OA
ATOM      9  N   UNL     1      34.100 -23.738 -12.641  0.00  0.00    -0.299 N 
ATOM     10  C   UNL     1      32.850 -24.097 -13.115  0.00  0.00    +0.241 C 
ATOM     11  H   UNL     1      34.430 -22.830 -12.828  0.00  0.00    +0.150 HD
BRANCH   9  12
ATOM     12  C   UNL     1      34.944 -24.635 -11.884  0.00  0.00    +0.116 C 
BRANCH  12  13
ATOM     13  C   UNL     1      36.286 -24.823 -12.529  0.00  0.00    -0.003 C 
ATOM     14  C   UNL     1      36.655 -24.030 -13.616  0.00  0.00    -0.007 C 
ATOM     15  C   UNL     1      37.164 -25.791 -12.043  0.00  0.00    -0.003 C 
ATOM     16  C   UNL     1      37.903 -24.205 -14.215  0.00  0.00    -0.022 C 
ATOM     17  C   UNL     1      38.411 -25.966 -12.642  0.00  0.00    -0.001 C 
ATOM     18  C   UNL     1      38.781 -25.173 -13.729  0.00  0.00    -0.004 C 
ATOM     19  C   UNL     1      38.298 -23.357 -15.377  0.00  0.00    +0.031 C 
ENDBRANCH  12  13
ENDBRANCH   9  12
ENDBRANCH   3  10
BRANCH   7  20
ATOM     20  C   UNL     1      33.667 -22.922 -17.366  0.00  0.00    +0.018 C 
BRANCH  20  21
ATOM     21  N   UNL     1      33.476 -24.337 -17.657  0.00  0.00    +0.388 N 
ATOM     22  H   UNL     1      33.174 -24.821 -16.812  0.00  0.00    -0.089 HD
ATOM     23  H   UNL     1      34.354 -24.738 -17.984  0.00  0.00    -0.089 HD
ATOM     24  H   UNL     1      32.763 -24.441 -18.380  0.00  0.00    -0.089 HD
ENDBRANCH  20  21
BRANCH  20  25
ATOM     25  C   UNL     1      34.995 -22.414 -17.924  0.00  0.00    +0.013 C 
BRANCH  25  26
ATOM     26  C   UNL     1      34.814 -21.408 -19.037  0.00  0.00    -0.024 C 
ATOM     27  C   UNL     1      35.928 -20.802 -19.618  0.00  0.00    -0.004 C 
ATOM     28  C   UNL     1      33.532 -21.084 -19.482  0.00  0.00    -0.004 C 
ATOM     29  C   UNL     1      35.761 -19.873 -20.645  0.00  0.00    -0.000 C 
ATOM     30  C   UNL     1      33.365 -20.155 -20.509  0.00  0.00    -0.000 C 
ATOM     31  C   UNL     1      34.479 -19.549 -21.090  0.00  0.00    -0.000 C 
ENDBRANCH  25  26
ENDBRANCH  20  25
ENDBRANCH   7  20
TORSDOF 7
ENDMDL
MODEL 5
REMARK VINA RESULT:      -9.2     11.657     15.538
REMARK  Name = 25021183
REMARK  7 active torsions:
REMARK  status: ('A' for Active; 'I' for Inactive)
REMARK    1  A    between atoms: C_3  and  C_10
REMARK    2  A    between atoms: C_7  and  C_20
REMARK    3  A    between atoms: N_9  and  C_12
REMARK    4  A    between atoms: C_12  and  C_13
REMARK    5  A    between atoms: C_20  and  N_21
REMARK    6  A    between atoms: C_20  and  C_25
REMARK    7  A    between atoms: C_25  and  C_26
REMARK                            x       y       z     vdW  Elec       q    Type
REMARK                         _______ _______ _______ _____ _____    ______ ____
ROOT
ATOM      1  O   UNL     1      33.721 -22.564 -14.354  0.00  0.00    -0.277 OA
ATOM      2  N   UNL     1      35.246 -23.818 -13.146  0.00  0.00    -0.275 N 
ATOM      3  C   UNL     1      36.405 -22.981 -13.421  0.00  0.00    +0.152 C 
ATOM      4  C   UNL     1      37.455 -23.427 -12.409  0.00  0.00    +0.031 C 
ATOM      5  C   UNL     1      37.106 -24.893 -12.161  0.00  0.00    +0.024 C 
ATOM      6  C   UNL     1      35.588 -24.909 -12.236  0.00  0.00    +0.094 C 
ATOM      7  C   UNL     1      33.971 -23.492 -13.584  0.00  0.00    +0.206 C 
ENDROOT
BRANCH   3  10
ATOM      8  O   UNL     1      37.298 -24.354 -15.157  0.00  0.00    -0.273 OA
ATOM      9  N   UNL     1      36.659 -22.173 -15.661  0.00  0.00    -0.299 N 
ATOM     10  C   UNL     1      36.833 -23.266 -14.830  0.00  0.00    +0.241 C 
ATOM     11  H   UNL     1      36.274 -21.351 -15.281  0.00  0.00    +0.150 HD
BRANCH   9  12
ATOM     12  C   UNL     1      37.017 -22.182 -17.061  0.00  0.00    +0.116 C 
BRANCH  12  13
ATOM     13  C   UNL     1      35.842 -21.876 -17.944  0.00  0.00    -0.003 C 
ATOM     14  C   UNL     1      35.993 -21.022 -19.036  0.00  0.00    -0.007 C 
ATOM     15  C   UNL     1      34.598 -22.445 -17.672  0.00  0.00    -0.003 C 
ATOM     16  C   UNL     1      34.902 -20.737 -19.856  0.00  0.00    -0.022 C 
ATOM     17  C   UNL     1      33.506 -22.161 -18.491  0.00  0.00    -0.001 C 
ATOM     18  C   UNL     1      33.657 -21.307 -19.584  0.00  0.00    -0.004 C 
ATOM     19  C   UNL     1      35.063 -19.824 -21.025  0.00  0.00    +0.031 C 
ENDBRANCH  12  13
ENDBRANCH   9  12
ENDBRANCH   3  10
BRANCH   7  20
ATOM     20  C   UNL     1      32.861 -24.371 -13.064  0.00  0.00    +0.018 C 
BRANCH  20  21
ATOM     21  N   UNL     1      32.658 -25.383 -14.092  0.00  0.00    +0.388 N 
ATOM     22  H   UNL     1      32.774 -24.961 -15.013  0.00  0.00    -0.089 HD
ATOM     23  H   UNL     1      31.719 -25.769 -14.009  0.00  0.00    -0.089 HD
ATOM     24  H   UNL     1      33.344 -26.129 -13.973  0.00  0.00    -0.089 HD
ENDBRANCH  20  21
BRANCH  20  25
ATOM     25  C   UNL     1      31.587 -23.563 -12.821  0.00  0.00    +0.013 C 
BRANCH  25  26
ATOM     26  C   UNL     1      30.560 -23.750 -13.914  0.00  0.00    -0.024 C 
ATOM     27  C   UNL     1      30.450 -22.808 -14.936  0.00  0.00    -0.004 C 
ATOM     28  C   UNL     1      29.721 -24.865 -13.900  0.00  0.00    -0.004 C 
ATOM     29  C   UNL     1      29.503 -22.980 -15.945  0.00  0.00    -0.000 C 
ATOM     30  C   UNL     1      28.774 -25.038 -14.909  0.00  0.00    -0.000 C 
ATOM     31  C   UNL     1      28.664 -24.095 -15.931  0.00  0.00    -0.000 C 
ENDBRANCH  25  26
ENDBRANCH  20  25
ENDBRANCH   7  20
TORSDOF 7
ENDMDL
MODEL 6
REMARK VINA RESULT:      -9.2      3.771      6.529
REMARK  Name = 25021183
REMARK  7 active torsions:
REMARK  status: ('A' for Active; 'I' for Inactive)
REMARK    1  A    between atoms: C_3  and  C_10
REMARK    2  A    between atoms: C_7  and  C_20
REMARK    3  A    between atoms: N_9  and  C_12
REMARK    4  A    between atoms: C_12  and  C_13
REMARK    5  A    between atoms: C_20  and  N_21
REMARK    6  A    between atoms: C_20  and  C_25
REMARK    7  A    between atoms: C_25  and  C_26
REMARK                            x       y       z     vdW  Elec       q    Type
REMARK                         _______ _______ _______ _____ _____    ______ ____
ROOT
ATOM      1  O   UNL     1      35.229 -15.786 -20.163  0.00  0.00    -0.277 OA
ATOM      2  N   UNL     1      34.803 -15.910 -22.435  0.00  0.00    -0.275 N 
ATOM      3  C   UNL     1      34.613 -14.482 -22.647  0.00  0.00    +0.152 C 
ATOM      4  C   UNL     1      34.685 -14.302 -24.159  0.00  0.00    +0.031 C 
ATOM      5  C   UNL     1      34.184 -15.639 -24.699  0.00  0.00    +0.024 C 
ATOM      6  C   UNL     1      34.721 -16.646 -23.694  0.00  0.00    +0.094 C 
ATOM      7  C   UNL     1      35.171 -16.438 -21.206  0.00  0.00    +0.206 C 
ENDROOT
BRANCH   3  10
ATOM      8  O   UNL     1      32.254 -14.156 -22.816  0.00  0.00    -0.273 OA
ATOM      9  N   UNL     1      33.302 -13.771 -20.773  0.00  0.00    -0.299 N 
ATOM     10  C   UNL     1      33.258 -14.131 -22.109  0.00  0.00    +0.241 C 
ATOM     11  H   UNL     1      34.171 -13.791 -20.310  0.00  0.00    +0.150 HD
BRANCH   9  12
ATOM     12  C   UNL     1      32.134 -13.367 -20.025  0.00  0.00    +0.116 C 
BRANCH  12  13
ATOM     13  C   UNL     1      31.985 -11.874 -19.977  0.00  0.00    -0.003 C 
ATOM     14  C   UNL     1      31.774 -11.156 -21.154  0.00  0.00    -0.007 C 
ATOM     15  C   UNL     1      32.059 -11.204 -18.755  0.00  0.00    -0.003 C 
ATOM     16  C   UNL     1      31.636  -9.768 -21.109  0.00  0.00    -0.022 C 
ATOM     17  C   UNL     1      31.921  -9.817 -18.711  0.00  0.00    -0.001 C 
ATOM     18  C   UNL     1      31.709  -9.098 -19.888  0.00  0.00    -0.004 C 
ATOM     19  C   UNL     1      31.410  -8.999 -22.367  0.00  0.00    +0.031 C 
ENDBRANCH  12  13
ENDBRANCH   9  12
ENDBRANCH   3  10
BRANCH   7  20
ATOM     20  C   UNL     1      35.497 -17.910 -21.203  0.00  0.00    +0.018 C 
BRANCH  20  21
ATOM     21  N   UNL     1      36.365 -18.114 -22.355  0.00  0.00    +0.388 N 
ATOM     22  H   UNL     1      36.684 -19.082 -22.374  0.00  0.00    -0.089 HD
ATOM     23  H   UNL     1      37.169 -17.491 -22.289  0.00  0.00    -0.089 HD
ATOM     24  H   UNL     1      35.846 -17.911 -23.210  0.00  0.00    -0.089 HD
ENDBRANCH  20  21
BRANCH  20  25
ATOM     25  C   UNL     1      34.229 -18.757 -21.305  0.00  0.00    +0.013 C 
BRANCH  25  26
ATOM     26  C   UNL     1      34.253 -19.957 -20.387  0.00  0.00    -0.024 C 
ATOM     27  C   UNL     1      33.060 -20.470 -19.879  0.00  0.00    -0.004 C 
ATOM     28  C   UNL     1      35.469 -20.551 -20.048  0.00  0.00    -0.004 C 
ATOM     29  C   UNL     1      33.082 -21.578 -19.031  0.00  0.00    -0.000 C 
ATOM     30  C   UNL     1      35.491 -21.659 -19.201  0.00  0.00    -0.000 C 
ATOM     31  C   UNL     1      34.297 -22.172 -18.692  0.00  0.00    -0.000 C 
ENDBRANCH  25  26
ENDBRANCH  20  25
ENDBRANCH   7  20
TORSDOF 7
ENDMDL
MODEL 7
REMARK VINA RESULT:      -9.1     11.608     16.198
REMARK  Name = 25021183
REMARK  7 active torsions:
REMARK  status: ('A' for Active; 'I' for Inactive)
REMARK    1  A    between atoms: C_3  and  C_10
REMARK    2  A    between atoms: C_7  and  C_20
REMARK    3  A    between atoms: N_9  and  C_12
REMARK    4  A    between atoms: C_12  and  C_13
REMARK    5  A    between atoms: C_20  and  N_21
REMARK    6  A    between atoms: C_20  and  C_25
REMARK    7  A    between atoms: C_25  and  C_26
REMARK                            x       y       z     vdW  Elec       q    Type
REMARK                         _______ _______ _______ _____ _____    ______ ____
ROOT
ATOM      1  O   UNL     1      34.790 -22.399 -15.299  0.00  0.00    -0.277 OA
ATOM      2  N   UNL     1      32.607 -23.164 -15.217  0.00  0.00    -0.275 N 
ATOM      3  C   UNL     1      32.410 -22.953 -13.790  0.00  0.00    +0.152 C 
ATOM      4  C   UNL     1      30.902 -23.049 -13.588  0.00  0.00    +0.031 C 
ATOM      5  C   UNL     1      30.455 -23.994 -14.701  0.00  0.00    +0.024 C 
ATOM      6  C   UNL     1      31.381 -23.639 -15.854  0.00  0.00    +0.094 C 
ATOM      7  C   UNL     1      33.774 -22.796 -15.871  0.00  0.00    +0.206 C 
ENDROOT
BRANCH   3  10
ATOM      8  O   UNL     1      32.590 -25.115 -12.793  0.00  0.00    -0.273 OA
ATOM      9  N   UNL     1      34.445 -23.708 -12.776  0.00  0.00    -0.299 N 
ATOM     10  C   UNL     1      33.138 -24.053 -13.076  0.00  0.00    +0.241 C 
ATOM     11  H   UNL     1      34.773 -22.823 -13.057  0.00  0.00    +0.150 HD
BRANCH   9  12
ATOM     12  C   UNL     1      35.351 -24.584 -12.070  0.00  0.00    +0.116 C 
BRANCH  12  13
ATOM     13  C   UNL     1      36.323 -25.254 -12.997  0.00  0.00    -0.003 C 
ATOM     14  C   UNL     1      37.695 -25.097 -12.801  0.00  0.00    -0.007 C 
ATOM     15  C   UNL     1      35.855 -26.033 -14.055  0.00  0.00    -0.003 C 
ATOM     16  C   UNL     1      38.599 -25.719 -13.662  0.00  0.00    -0.022 C 
ATOM     17  C   UNL     1      36.759 -26.654 -14.917  0.00  0.00    -0.001 C 
ATOM     18  C   UNL     1      38.131 -26.498 -14.721  0.00  0.00    -0.004 C 
ATOM     19  C   UNL     1      40.066 -25.552 -13.452  0.00  0.00    +0.031 C 
ENDBRANCH  12  13
ENDBRANCH   9  12
ENDBRANCH   3  10
BRANCH   7  20
ATOM     20  C   UNL     1      33.744 -22.921 -17.373  0.00  0.00    +0.018 C 
BRANCH  20  21
ATOM     21  N   UNL     1      33.534 -24.338 -17.637  0.00  0.00    +0.388 N 
ATOM     22  H   UNL     1      32.638 -24.469 -18.104  0.00  0.00    -0.089 HD
ATOM     23  H   UNL     1      33.538 -24.852 -16.757  0.00  0.00    -0.089 HD
ATOM     24  H   UNL     1      34.283 -24.686 -18.237  0.00  0.00    -0.089 HD
ENDBRANCH  20  21
BRANCH  20  25
ATOM     25  C   UNL     1      35.050 -22.427 -17.993  0.00  0.00    +0.013 C 
BRANCH  25  26
ATOM     26  C   UNL     1      34.828 -21.403 -19.083  0.00  0.00    -0.024 C 
ATOM     27  C   UNL     1      33.532 -21.090 -19.491  0.00  0.00    -0.004 C 
ATOM     28  C   UNL     1      35.920 -20.773 -19.681  0.00  0.00    -0.004 C 
ATOM     29  C   UNL     1      33.327 -20.145 -20.496  0.00  0.00    -0.000 C 
ATOM     30  C   UNL     1      35.714 -19.828 -20.687  0.00  0.00    -0.000 C 
ATOM     31  C   UNL     1      34.418 -19.515 -21.095  0.00  0.00    -0.000 C 
ENDBRANCH  25  26
ENDBRANCH  20  25
ENDBRANCH   7  20
TORSDOF 7
ENDMDL
MODEL 8
REMARK VINA RESULT:      -9.1      1.883      8.458
REMARK  Name = 25021183
REMARK  7 active torsions:
REMARK  status: ('A' for Active; 'I' for Inactive)
REMARK    1  A    between atoms: C_3  and  C_10
REMARK    2  A    between atoms: C_7  and  C_20
REMARK    3  A    between atoms: N_9  and  C_12
REMARK    4  A    between atoms: C_12  and  C_13
REMARK    5  A    between atoms: C_20  and  N_21
REMARK    6  A    between atoms: C_20  and  C_25
REMARK    7  A    between atoms: C_25  and  C_26
REMARK                            x       y       z     vdW  Elec       q    Type
REMARK                         _______ _______ _______ _____ _____    ______ ____
ROOT
ATOM      1  O   UNL     1      31.088 -10.803 -20.539  0.00  0.00    -0.277 OA
ATOM      2  N   UNL     1      32.598 -11.184 -22.252  0.00  0.00    -0.275 N 
ATOM      3  C   UNL     1      32.117 -12.513 -22.605  0.00  0.00    +0.152 C 
ATOM      4  C   UNL     1      32.740 -12.803 -23.966  0.00  0.00    +0.031 C 
ATOM      5  C   UNL     1      34.039 -12.001 -23.938  0.00  0.00    +0.024 C 
ATOM      6  C   UNL     1      33.663 -10.753 -23.154  0.00  0.00    +0.094 C 
ATOM      7  C   UNL     1      31.986 -10.404 -21.283  0.00  0.00    +0.206 C 
ENDROOT
BRANCH   3  10
ATOM      8  O   UNL     1      31.927 -13.771 -20.585  0.00  0.00    -0.273 OA
ATOM      9  N   UNL     1      33.909 -13.885 -21.802  0.00  0.00    -0.299 N 
ATOM     10  C   UNL     1      32.616 -13.457 -21.551  0.00  0.00    +0.241 C 
ATOM     11  H   UNL     1      34.360 -13.563 -22.615  0.00  0.00    +0.150 HD
BRANCH   9  12
ATOM     12  C   UNL     1      34.627 -14.782 -20.925  0.00  0.00    +0.116 C 
BRANCH  12  13
ATOM     13  C   UNL     1      34.909 -16.102 -21.580  0.00  0.00    -0.003 C 
ATOM     14  C   UNL     1      35.235 -17.212 -20.800  0.00  0.00    -0.007 C 
ATOM     15  C   UNL     1      34.845 -16.221 -22.968  0.00  0.00    -0.003 C 
ATOM     16  C   UNL     1      35.496 -18.440 -21.408  0.00  0.00    -0.022 C 
ATOM     17  C   UNL     1      35.107 -17.448 -23.576  0.00  0.00    -0.001 C 
ATOM     18  C   UNL     1      35.433 -18.559 -22.796  0.00  0.00    -0.004 C 
ATOM     19  C   UNL     1      35.845 -19.627 -20.574  0.00  0.00    +0.031 C 
ENDBRANCH  12  13
ENDBRANCH   9  12
ENDBRANCH   3  10
BRANCH   7  20
ATOM     20  C   UNL     1      32.499  -8.990 -21.168  0.00  0.00    +0.018 C 
BRANCH  20  21
ATOM     21  N   UNL     1      32.167  -8.570 -19.813  0.00  0.00    +0.388 N 
ATOM     22  H   UNL     1      32.020  -9.392 -19.228  0.00  0.00    -0.089 HD
ATOM     23  H   UNL     1      31.317  -8.008 -19.830  0.00  0.00    -0.089 HD
ATOM     24  H   UNL     1      32.934  -8.016 -19.432  0.00  0.00    -0.089 HD
ENDBRANCH  20  21
BRANCH  20  25
ATOM     25  C   UNL     1      31.846  -8.080 -22.207  0.00  0.00    +0.013 C 
BRANCH  25  26
ATOM     26  C   UNL     1      32.857  -7.320 -23.034  0.00  0.00    -0.024 C 
ATOM     27  C   UNL     1      34.214  -7.399 -22.721  0.00  0.00    -0.004 C 
ATOM     28  C   UNL     1      32.433  -6.538 -24.109  0.00  0.00    -0.004 C 
ATOM     29  C   UNL     1      35.148  -6.698 -23.485  0.00  0.00    -0.000 C 
ATOM     30  C   UNL     1      33.367  -5.837 -24.872  0.00  0.00    -0.000 C 
ATOM     31  C   UNL     1      34.724  -5.916 -24.559  0.00  0.00    -0.000 C 
ENDBRANCH  25  26
ENDBRANCH  20  25
ENDBRANCH   7  20
TORSDOF 7
ENDMDL
MODEL 9
REMARK VINA RESULT:      -8.9      1.300      1.952
REMARK  Name = 25021183
REMARK  7 active torsions:
REMARK  status: ('A' for Active; 'I' for Inactive)
REMARK    1  A    between atoms: C_3  and  C_10
REMARK    2  A    between atoms: C_7  and  C_20
REMARK    3  A    between atoms: N_9  and  C_12
REMARK    4  A    between atoms: C_12  and  C_13
REMARK    5  A    between atoms: C_20  and  N_21
REMARK    6  A    between atoms: C_20  and  C_25
REMARK    7  A    between atoms: C_25  and  C_26
REMARK                            x       y       z     vdW  Elec       q    Type
REMARK                         _______ _______ _______ _____ _____    ______ ____
ROOT
ATOM      1  O   UNL     1      32.641  -9.747 -23.383  0.00  0.00    -0.277 OA
ATOM      2  N   UNL     1      32.358 -10.755 -21.319  0.00  0.00    -0.275 N 
ATOM      3  C   UNL     1      31.395  -9.796 -20.796  0.00  0.00    +0.152 C 
ATOM      4  C   UNL     1      30.791 -10.479 -19.573  0.00  0.00    +0.031 C 
ATOM      5  C   UNL     1      31.916 -11.388 -19.085  0.00  0.00    +0.024 C 
ATOM      6  C   UNL     1      32.580 -11.847 -20.373  0.00  0.00    +0.094 C 
ATOM      7  C   UNL     1      32.850 -10.686 -22.613  0.00  0.00    +0.206 C 
ENDROOT
BRANCH   3  10
ATOM      8  O   UNL     1      32.716  -8.448 -19.333  0.00  0.00    -0.273 OA
ATOM      9  N   UNL     1      32.129  -7.604 -21.422  0.00  0.00    -0.299 N 
ATOM     10  C   UNL     1      32.159  -8.561 -20.422  0.00  0.00    +0.241 C 
ATOM     11  H   UNL     1      31.649  -7.811 -22.255  0.00  0.00    +0.150 HD
BRANCH   9  12
ATOM     12  C   UNL     1      32.770  -6.315 -21.300  0.00  0.00    +0.116 C 
BRANCH  12  13
ATOM     13  C   UNL     1      32.103  -5.272 -22.148  0.00  0.00    -0.003 C 
ATOM     14  C   UNL     1      32.289  -5.272 -23.530  0.00  0.00    -0.007 C 
ATOM     15  C   UNL     1      31.295  -4.301 -21.554  0.00  0.00    -0.003 C 
ATOM     16  C   UNL     1      31.668  -4.303 -24.319  0.00  0.00    -0.022 C 
ATOM     17  C   UNL     1      30.675  -3.332 -22.342  0.00  0.00    -0.001 C 
ATOM     18  C   UNL     1      30.861  -3.333 -23.725  0.00  0.00    -0.004 C 
ATOM     19  C   UNL     1      31.867  -4.304 -25.797  0.00  0.00    +0.031 C 
ENDBRANCH  12  13
ENDBRANCH   9  12
ENDBRANCH   3  10
BRANCH   7  20
ATOM     20  C   UNL     1      33.698 -11.854 -23.049  0.00  0.00    +0.018 C 
BRANCH  20  21
ATOM     21  N   UNL     1      34.622 -11.311 -24.036  0.00  0.00    +0.388 N 
ATOM     22  H   UNL     1      35.559 -11.673 -23.861  0.00  0.00    -0.089 HD
ATOM     23  H   UNL     1      34.632 -10.294 -23.969  0.00  0.00    -0.089 HD
ATOM     24  H   UNL     1      34.321 -11.587 -24.971  0.00  0.00    -0.089 HD
ENDBRANCH  20  21
BRANCH  20  25
ATOM     25  C   UNL     1      32.839 -12.967 -23.647  0.00  0.00    +0.013 C 
BRANCH  25  26
ATOM     26  C   UNL     1      33.557 -14.296 -23.697  0.00  0.00    -0.024 C 
ATOM     27  C   UNL     1      33.390 -15.138 -24.796  0.00  0.00    -0.004 C 
ATOM     28  C   UNL     1      34.386 -14.681 -22.643  0.00  0.00    -0.004 C 
ATOM     29  C   UNL     1      34.053 -16.364 -24.843  0.00  0.00    -0.000 C 
ATOM     30  C   UNL     1      35.049 -15.907 -22.689  0.00  0.00    -0.000 C 
ATOM     31  C   UNL     1      34.882 -16.749 -23.789  0.00  0.00    -0.000 C 
ENDBRANCH  25  26
ENDBRANCH  20  25
ENDBRANCH   7  20
TORSDOF 7
ENDMDL
