MODEL 1
REMARK VINA RESULT:     -12.3      0.000      0.000
REMARK  Name = 447731
REMARK  4 active torsions:
REMARK  status: ('A' for Active; 'I' for Inactive)
REMARK    1  A    between atoms: N_2  and  C_13
REMARK    2  A    between atoms: C_3  and  C_19
REMARK    3  A    between atoms: C_6  and  C_17
REMARK    4  A    between atoms: C_27  and  C_31
REMARK                            x       y       z     vdW  Elec       q    Type
REMARK                         _______ _______ _______ _____ _____    ______ ____
ROOT
ATOM      1  O   UNL     1      33.999 -23.882 -17.816  0.00  0.00    -0.270 OA
ATOM      2  N   UNL     1      35.176 -22.365 -16.458  0.00  0.00    -0.280 N 
ATOM      3  C   UNL     1      34.496 -22.780 -17.611  0.00  0.00    +0.249 C 
ATOM      4  H   UNL     1      35.512 -21.440 -16.463  0.00  0.00    +0.155 HD
ENDROOT
BRANCH   2  13
ATOM      5  N   UNL     1      37.144 -26.509 -11.930  0.00  0.00    +0.387 N 
ATOM      6  C   UNL     1      38.091 -25.550 -14.000  0.00  0.00    +0.001 C 
ATOM      7  C   UNL     1      36.867 -24.648 -14.076  0.00  0.00    -0.029 C 
ATOM      8  C   UNL     1      38.370 -26.024 -12.560  0.00  0.00    -0.077 C 
ATOM      9  C   UNL     1      35.954 -24.610 -13.002  0.00  0.00    -0.048 C 
ATOM     10  C   UNL     1      36.208 -25.398 -11.741  0.00  0.00    -0.055 C 
ATOM     11  C   UNL     1      36.579 -23.905 -15.232  0.00  0.00    +0.010 C 
ATOM     12  C   UNL     1      34.817 -23.792 -13.079  0.00  0.00    -0.005 C 
ATOM     13  C   UNL     1      35.436 -23.105 -15.302  0.00  0.00    +0.050 C 
ATOM     14  C   UNL     1      34.560 -23.044 -14.225  0.00  0.00    +0.014 C 
ATOM     15  H   UNL     1      37.369 -26.919 -11.023  0.00  0.00    -0.084 HD
ATOM     16  H   UNL     1      36.713 -27.213 -12.530  0.00  0.00    -0.084 HD
BRANCH   6  17
ATOM     17  C   UNL     1      39.365 -24.906 -14.558  0.00  0.00    +0.002 C 
ATOM     18  C   UNL     1      40.594 -25.699 -14.169  0.00  0.00    +0.000 C 
ENDBRANCH   6  17
ENDBRANCH   2  13
BRANCH   3  19
ATOM     19  C   UNL     1      34.403 -21.766 -18.694  0.00  0.00    +0.054 C 
ATOM     20  C   UNL     1      35.482 -20.172 -20.136  0.00  0.00    +0.000 C 
ATOM     21  C   UNL     1      34.227 -19.873 -20.718  0.00  0.00    +0.000 C 
ATOM     22  C   UNL     1      35.554 -21.133 -19.113  0.00  0.00    +0.005 C 
ATOM     23  C   UNL     1      33.170 -21.493 -19.242  0.00  0.00    +0.005 C 
ATOM     24  C   UNL     1      33.080 -20.543 -20.259  0.00  0.00    +0.000 C 
ATOM     25  C   UNL     1      34.154 -18.912 -21.740  0.00  0.00    +0.003 C 
ATOM     26  C   UNL     1      36.628 -19.503 -20.594  0.00  0.00    +0.000 C 
ATOM     27  C   UNL     1      35.303 -18.256 -22.183  0.00  0.00    +0.031 C 
ATOM     28  C   UNL     1      36.538 -18.552 -21.610  0.00  0.00    +0.003 C 
BRANCH  27  31
ATOM     29  N   UNL     1      34.605 -17.561 -24.461  0.00  0.00    -0.343 N 
ATOM     30  N   UNL     1      35.712 -16.057 -23.058  0.00  0.00    -0.285 NA
ATOM     31  C   UNL     1      35.211 -17.265 -23.242  0.00  0.00    +0.117 C 
ATOM     32  H   UNL     1      34.553 -16.875 -25.165  0.00  0.00    +0.144 HD
ATOM     33  H   UNL     1      34.227 -18.457 -24.619  0.00  0.00    +0.144 HD
ATOM     34  H   UNL     1      35.652 -15.384 -23.774  0.00  0.00    +0.188 HD
ENDBRANCH  27  31
ENDBRANCH   3  19
TORSDOF 4
ENDMDL
MODEL 2
REMARK VINA RESULT:     -11.6      1.129      2.605
REMARK  Name = 447731
REMARK  4 active torsions:
REMARK  status: ('A' for Active; 'I' for Inactive)
REMARK    1  A    between atoms: N_2  and  C_13
REMARK    2  A    between atoms: C_3  and  C_19
REMARK    3  A    between atoms: C_6  and  C_17
REMARK    4  A    between atoms: C_27  and  C_31
REMARK                            x       y       z     vdW  Elec       q    Type
REMARK                         _______ _______ _______ _____ _____    ______ ____
ROOT
ATOM      1  O   UNL     1      34.408 -23.476 -17.657  0.00  0.00    -0.270 OA
ATOM      2  N   UNL     1      36.009 -21.995 -16.777  0.00  0.00    -0.280 N 
ATOM      3  C   UNL     1      35.044 -22.428 -17.696  0.00  0.00    +0.249 C 
ATOM      4  H   UNL     1      36.423 -21.121 -16.965  0.00  0.00    +0.155 HD
ENDROOT
BRANCH   2  13
ATOM      5  N   UNL     1      36.978 -24.514 -10.924  0.00  0.00    +0.387 N 
ATOM      6  C   UNL     1      35.019 -23.918 -12.306  0.00  0.00    +0.001 C 
ATOM      7  C   UNL     1      35.983 -23.619 -13.444  0.00  0.00    -0.029 C 
ATOM      8  C   UNL     1      35.618 -24.908 -11.287  0.00  0.00    -0.077 C 
ATOM      9  C   UNL     1      37.349 -23.941 -13.313  0.00  0.00    -0.048 C 
ATOM     10  C   UNL     1      37.863 -24.649 -12.084  0.00  0.00    -0.055 C 
ATOM     11  C   UNL     1      35.557 -22.949 -14.603  0.00  0.00    +0.010 C 
ATOM     12  C   UNL     1      38.241 -23.648 -14.355  0.00  0.00    -0.005 C 
ATOM     13  C   UNL     1      36.457 -22.651 -15.629  0.00  0.00    +0.050 C 
ATOM     14  C   UNL     1      37.796 -23.006 -15.508  0.00  0.00    +0.014 C 
ATOM     15  H   UNL     1      37.315 -25.114 -10.171  0.00  0.00    -0.084 HD
ATOM     16  H   UNL     1      36.975 -23.541 -10.616  0.00  0.00    -0.084 HD
BRANCH   6  17
ATOM     17  C   UNL     1      33.664 -24.461 -12.774  0.00  0.00    +0.002 C 
ATOM     18  C   UNL     1      32.620 -23.366 -12.811  0.00  0.00    +0.000 C 
ENDBRANCH   6  17
ENDBRANCH   2  13
BRANCH   3  19
ATOM     19  C   UNL     1      34.801 -21.514 -18.843  0.00  0.00    +0.054 C 
ATOM     20  C   UNL     1      35.650 -19.939 -20.451  0.00  0.00    +0.000 C 
ATOM     21  C   UNL     1      34.345 -19.808 -20.986  0.00  0.00    +0.000 C 
ATOM     22  C   UNL     1      35.863 -20.808 -19.367  0.00  0.00    +0.005 C 
ATOM     23  C   UNL     1      33.524 -21.404 -19.344  0.00  0.00    +0.005 C 
ATOM     24  C   UNL     1      33.293 -20.547 -20.420  0.00  0.00    +0.000 C 
ATOM     25  C   UNL     1      34.131 -18.940 -22.069  0.00  0.00    +0.003 C 
ATOM     26  C   UNL     1      36.701 -19.200 -21.016  0.00  0.00    +0.000 C 
ATOM     27  C   UNL     1      35.188 -18.213 -22.618  0.00  0.00    +0.031 C 
ATOM     28  C   UNL     1      36.470 -18.343 -22.091  0.00  0.00    +0.003 C 
BRANCH  27  31
ATOM     29  N   UNL     1      35.390 -15.997 -23.718  0.00  0.00    -0.343 N 
ATOM     30  N   UNL     1      34.301 -17.755 -24.802  0.00  0.00    -0.285 NA
ATOM     31  C   UNL     1      34.950 -17.319 -23.739  0.00  0.00    +0.117 C 
ATOM     32  H   UNL     1      35.219 -15.408 -24.488  0.00  0.00    +0.144 HD
ATOM     33  H   UNL     1      35.874 -15.651 -22.933  0.00  0.00    +0.144 HD
ATOM     34  H   UNL     1      34.138 -17.151 -25.563  0.00  0.00    +0.188 HD
ENDBRANCH  27  31
ENDBRANCH   3  19
TORSDOF 4
ENDMDL
MODEL 3
REMARK VINA RESULT:     -11.3      7.940     14.938
REMARK  Name = 447731
REMARK  4 active torsions:
REMARK  status: ('A' for Active; 'I' for Inactive)
REMARK    1  A    between atoms: N_2  and  C_13
REMARK    2  A    between atoms: C_3  and  C_19
REMARK    3  A    between atoms: C_6  and  C_17
REMARK    4  A    between atoms: C_27  and  C_31
REMARK                            x       y       z     vdW  Elec       q    Type
REMARK                         _______ _______ _______ _____ _____    ______ ____
ROOT
ATOM      1  O   UNL     1      33.479 -11.879 -24.523  0.00  0.00    -0.270 OA
ATOM      2  N   UNL     1      32.988 -10.901 -22.442  0.00  0.00    -0.280 N 
ATOM      3  C   UNL     1      33.437 -11.915 -23.298  0.00  0.00    +0.249 C 
ATOM      4  H   UNL     1      33.025 -11.101 -21.478  0.00  0.00    +0.155 HD
ENDROOT
BRANCH   2  13
ATOM      5  N   UNL     1      31.873  -4.655 -23.574  0.00  0.00    +0.387 N 
ATOM      6  C   UNL     1      33.852  -6.133 -23.535  0.00  0.00    +0.001 C 
ATOM      7  C   UNL     1      32.902  -7.307 -23.346  0.00  0.00    -0.029 C 
ATOM      8  C   UNL     1      33.160  -4.932 -24.210  0.00  0.00    -0.077 C 
ATOM      9  C   UNL     1      31.510  -7.109 -23.452  0.00  0.00    -0.048 C 
ATOM     10  C   UNL     1      30.945  -5.760 -23.822  0.00  0.00    -0.055 C 
ATOM     11  C   UNL     1      33.376  -8.579 -22.988  0.00  0.00    +0.010 C 
ATOM     12  C   UNL     1      30.633  -8.187 -23.261  0.00  0.00    -0.005 C 
ATOM     13  C   UNL     1      32.492  -9.642 -22.787  0.00  0.00    +0.050 C 
ATOM     14  C   UNL     1      31.123  -9.448 -22.929  0.00  0.00    +0.014 C 
ATOM     15  H   UNL     1      31.484  -3.794 -23.959  0.00  0.00    -0.084 HD
ATOM     16  H   UNL     1      32.011  -4.552 -22.568  0.00  0.00    -0.084 HD
BRANCH   6  17
ATOM     17  C   UNL     1      35.111  -6.484 -24.335  0.00  0.00    +0.002 C 
ATOM     18  C   UNL     1      35.275  -5.565 -25.526  0.00  0.00    +0.000 C 
ENDBRANCH   6  17
ENDBRANCH   2  13
BRANCH   3  19
ATOM     19  C   UNL     1      33.882 -13.164 -22.627  0.00  0.00    +0.054 C 
ATOM     20  C   UNL     1      34.629 -15.446 -22.785  0.00  0.00    +0.000 C 
ATOM     21  C   UNL     1      34.713 -15.498 -21.373  0.00  0.00    +0.000 C 
ATOM     22  C   UNL     1      34.207 -14.257 -23.404  0.00  0.00    +0.005 C 
ATOM     23  C   UNL     1      33.955 -13.190 -21.253  0.00  0.00    +0.005 C 
ATOM     24  C   UNL     1      34.372 -14.361 -20.622  0.00  0.00    +0.000 C 
ATOM     25  C   UNL     1      35.135 -16.686 -20.753  0.00  0.00    +0.003 C 
ATOM     26  C   UNL     1      34.970 -16.582 -23.536  0.00  0.00    +0.000 C 
ATOM     27  C   UNL     1      35.469 -17.806 -21.515  0.00  0.00    +0.031 C 
ATOM     28  C   UNL     1      35.386 -17.753 -22.904  0.00  0.00    +0.003 C 
BRANCH  27  31
ATOM     29  N   UNL     1      35.108 -20.173 -20.858  0.00  0.00    -0.343 N 
ATOM     30  N   UNL     1      37.071 -19.066 -20.245  0.00  0.00    -0.285 NA
ATOM     31  C   UNL     1      35.903 -19.028 -20.859  0.00  0.00    +0.117 C 
ATOM     32  H   UNL     1      35.421 -20.990 -20.408  0.00  0.00    +0.144 HD
ATOM     33  H   UNL     1      34.232 -20.164 -21.308  0.00  0.00    +0.144 HD
ATOM     34  H   UNL     1      37.368 -19.893 -19.800  0.00  0.00    +0.188 HD
ENDBRANCH  27  31
ENDBRANCH   3  19
TORSDOF 4
ENDMDL
MODEL 4
REMARK VINA RESULT:     -10.8      2.122     10.164
REMARK  Name = 447731
REMARK  4 active torsions:
REMARK  status: ('A' for Active; 'I' for Inactive)
REMARK    1  A    between atoms: N_2  and  C_13
REMARK    2  A    between atoms: C_3  and  C_19
REMARK    3  A    between atoms: C_6  and  C_17
REMARK    4  A    between atoms: C_27  and  C_31
REMARK                            x       y       z     vdW  Elec       q    Type
REMARK                         _______ _______ _______ _____ _____    ______ ____
ROOT
ATOM      1  O   UNL     1      32.938 -21.059 -20.136  0.00  0.00    -0.270 OA
ATOM      2  N   UNL     1      35.072 -20.069 -20.156  0.00  0.00    -0.280 N 
ATOM      3  C   UNL     1      34.067 -20.921 -19.677  0.00  0.00    +0.249 C 
ATOM      4  H   UNL     1      35.924 -20.086 -19.662  0.00  0.00    +0.155 HD
ENDROOT
BRANCH   2  13
ATOM      5  N   UNL     1      34.035 -15.316 -24.383  0.00  0.00    +0.387 N 
ATOM      6  C   UNL     1      34.221 -15.507 -21.927  0.00  0.00    +0.001 C 
ATOM      7  C   UNL     1      34.620 -16.962 -22.127  0.00  0.00    -0.029 C 
ATOM      8  C   UNL     1      34.517 -14.651 -23.174  0.00  0.00    -0.077 C 
ATOM      9  C   UNL     1      34.865 -17.452 -23.426  0.00  0.00    -0.048 C 
ATOM     10  C   UNL     1      34.808 -16.537 -24.623  0.00  0.00    -0.055 C 
ATOM     11  C   UNL     1      34.675 -17.858 -21.047  0.00  0.00    +0.010 C 
ATOM     12  C   UNL     1      35.216 -18.798 -23.611  0.00  0.00    -0.005 C 
ATOM     13  C   UNL     1      35.012 -19.199 -21.246  0.00  0.00    +0.050 C 
ATOM     14  C   UNL     1      35.288 -19.666 -22.526  0.00  0.00    +0.014 C 
ATOM     15  H   UNL     1      34.140 -14.687 -25.180  0.00  0.00    -0.084 HD
ATOM     16  H   UNL     1      33.051 -15.559 -24.262  0.00  0.00    -0.084 HD
BRANCH   6  17
ATOM     17  C   UNL     1      34.886 -14.848 -20.713  0.00  0.00    +0.002 C 
ATOM     18  C   UNL     1      34.042 -13.711 -20.178  0.00  0.00    +0.000 C 
ENDBRANCH   6  17
ENDBRANCH   2  13
BRANCH   3  19
ATOM     19  C   UNL     1      34.424 -21.712 -18.470  0.00  0.00    +0.054 C 
ATOM     20  C   UNL     1      36.047 -22.333 -16.807  0.00  0.00    +0.000 C 
ATOM     21  C   UNL     1      35.089 -23.190 -16.216  0.00  0.00    +0.000 C 
ATOM     22  C   UNL     1      35.695 -21.591 -17.948  0.00  0.00    +0.005 C 
ATOM     23  C   UNL     1      33.474 -22.538 -17.915  0.00  0.00    +0.005 C 
ATOM     24  C   UNL     1      33.806 -23.282 -16.783  0.00  0.00    +0.000 C 
ATOM     25  C   UNL     1      35.441 -23.932 -15.076  0.00  0.00    +0.003 C 
ATOM     26  C   UNL     1      37.329 -22.242 -16.241  0.00  0.00    +0.000 C 
ATOM     27  C   UNL     1      36.719 -23.829 -14.527  0.00  0.00    +0.031 C 
ATOM     28  C   UNL     1      37.661 -22.985 -15.109  0.00  0.00    +0.003 C 
BRANCH  27  31
ATOM     29  N   UNL     1      36.145 -25.452 -12.739  0.00  0.00    -0.343 N 
ATOM     30  N   UNL     1      38.278 -24.505 -12.830  0.00  0.00    -0.285 NA
ATOM     31  C   UNL     1      37.068 -24.603 -13.347  0.00  0.00    +0.117 C 
ATOM     32  H   UNL     1      36.402 -25.968 -11.940  0.00  0.00    +0.144 HD
ATOM     33  H   UNL     1      35.236 -25.537 -13.108  0.00  0.00    +0.144 HD
ATOM     34  H   UNL     1      38.516 -25.029 -12.030  0.00  0.00    +0.188 HD
ENDBRANCH  27  31
ENDBRANCH   3  19
TORSDOF 4
ENDMDL
MODEL 5
REMARK VINA RESULT:     -10.8      8.369     15.094
REMARK  Name = 447731
REMARK  4 active torsions:
REMARK  status: ('A' for Active; 'I' for Inactive)
REMARK    1  A    between atoms: N_2  and  C_13
REMARK    2  A    between atoms: C_3  and  C_19
REMARK    3  A    between atoms: C_6  and  C_17
REMARK    4  A    between atoms: C_27  and  C_31
REMARK                            x       y       z     vdW  Elec       q    Type
REMARK                         _______ _______ _______ _____ _____    ______ ____
ROOT
ATOM      1  O   UNL     1      30.776 -11.341 -21.633  0.00  0.00    -0.270 OA
ATOM      2  N   UNL     1      32.684 -10.470 -22.698  0.00  0.00    -0.280 N 
ATOM      3  C   UNL     1      31.943 -11.433 -22.001  0.00  0.00    +0.249 C 
ATOM      4  H   UNL     1      33.613 -10.713 -22.914  0.00  0.00    +0.155 HD
ENDROOT
BRANCH   2  13
ATOM      5  N   UNL     1      30.434  -4.469 -23.377  0.00  0.00    +0.387 N 
ATOM      6  C   UNL     1      31.559  -5.759 -21.597  0.00  0.00    +0.001 C 
ATOM      7  C   UNL     1      31.733  -6.888 -22.602  0.00  0.00    -0.029 C 
ATOM      8  C   UNL     1      31.404  -4.389 -22.288  0.00  0.00    -0.077 C 
ATOM      9  C   UNL     1      31.406  -6.680 -23.957  0.00  0.00    -0.048 C 
ATOM     10  C   UNL     1      30.952  -5.327 -24.446  0.00  0.00    -0.055 C 
ATOM     11  C   UNL     1      32.140  -8.169 -22.196  0.00  0.00    +0.010 C 
ATOM     12  C   UNL     1      31.550  -7.726 -24.880  0.00  0.00    -0.005 C 
ATOM     13  C   UNL     1      32.267  -9.207 -23.122  0.00  0.00    +0.050 C 
ATOM     14  C   UNL     1      31.978  -8.984 -24.464  0.00  0.00    +0.014 C 
ATOM     15  H   UNL     1      30.264  -3.533 -23.748  0.00  0.00    -0.084 HD
ATOM     16  H   UNL     1      29.562  -4.863 -23.023  0.00  0.00    -0.084 HD
BRANCH   6  17
ATOM     17  C   UNL     1      32.698  -5.664 -20.575  0.00  0.00    +0.002 C 
ATOM     18  C   UNL     1      32.764  -6.905 -19.712  0.00  0.00    +0.000 C 
ENDBRANCH   6  17
ENDBRANCH   2  13
BRANCH   3  19
ATOM     19  C   UNL     1      32.678 -12.680 -21.662  0.00  0.00    +0.054 C 
ATOM     20  C   UNL     1      33.986 -14.571 -22.371  0.00  0.00    +0.000 C 
ATOM     21  C   UNL     1      34.050 -15.009 -21.027  0.00  0.00    +0.000 C 
ATOM     22  C   UNL     1      33.287 -13.390 -22.676  0.00  0.00    +0.005 C 
ATOM     23  C   UNL     1      32.726 -13.085 -20.348  0.00  0.00    +0.005 C 
ATOM     24  C   UNL     1      33.414 -14.255 -20.027  0.00  0.00    +0.000 C 
ATOM     25  C   UNL     1      34.748 -16.190 -20.722  0.00  0.00    +0.003 C 
ATOM     26  C   UNL     1      34.620 -15.325 -23.371  0.00  0.00    +0.000 C 
ATOM     27  C   UNL     1      35.373 -16.927 -21.728  0.00  0.00    +0.031 C 
ATOM     28  C   UNL     1      35.309 -16.494 -23.050  0.00  0.00    +0.003 C 
BRANCH  27  31
ATOM     29  N   UNL     1      37.359 -18.404 -21.913  0.00  0.00    -0.343 N 
ATOM     30  N   UNL     1      35.539 -19.038 -20.594  0.00  0.00    -0.285 NA
ATOM     31  C   UNL     1      36.091 -18.146 -21.396  0.00  0.00    +0.117 C 
ATOM     32  H   UNL     1      37.828 -19.236 -21.675  0.00  0.00    +0.144 HD
ATOM     33  H   UNL     1      37.787 -17.753 -22.515  0.00  0.00    +0.144 HD
ATOM     34  H   UNL     1      36.024 -19.865 -20.368  0.00  0.00    +0.188 HD
ENDBRANCH  27  31
ENDBRANCH   3  19
TORSDOF 4
ENDMDL
MODEL 6
REMARK VINA RESULT:     -10.7      8.997     13.911
REMARK  Name = 447731
REMARK  4 active torsions:
REMARK  status: ('A' for Active; 'I' for Inactive)
REMARK    1  A    between atoms: N_2  and  C_13
REMARK    2  A    between atoms: C_3  and  C_19
REMARK    3  A    between atoms: C_6  and  C_17
REMARK    4  A    between atoms: C_27  and  C_31
REMARK                            x       y       z     vdW  Elec       q    Type
REMARK                         _______ _______ _______ _____ _____    ______ ____
ROOT
ATOM      1  O   UNL     1      31.544 -11.388 -21.927  0.00  0.00    -0.270 OA
ATOM      2  N   UNL     1      33.139 -11.462 -23.654  0.00  0.00    -0.280 N 
ATOM      3  C   UNL     1      32.215 -10.846 -22.800  0.00  0.00    +0.249 C 
ATOM      4  H   UNL     1      33.591 -10.871 -24.299  0.00  0.00    +0.155 HD
ENDROOT
BRANCH   2  13
ATOM      5  N   UNL     1      35.634 -17.356 -22.893  0.00  0.00    +0.387 N 
ATOM      6  C   UNL     1      35.182 -15.411 -21.438  0.00  0.00    +0.001 C 
ATOM      7  C   UNL     1      34.477 -14.762 -22.621  0.00  0.00    -0.029 C 
ATOM      8  C   UNL     1      35.208 -16.948 -21.556  0.00  0.00    -0.077 C 
ATOM      9  C   UNL     1      34.247 -15.504 -23.797  0.00  0.00    -0.048 C 
ATOM     10  C   UNL     1      34.626 -16.961 -23.880  0.00  0.00    -0.055 C 
ATOM     11  C   UNL     1      34.117 -13.404 -22.599  0.00  0.00    +0.010 C 
ATOM     12  C   UNL     1      33.614 -14.899 -24.893  0.00  0.00    -0.005 C 
ATOM     13  C   UNL     1      33.499 -12.810 -23.702  0.00  0.00    +0.050 C 
ATOM     14  C   UNL     1      33.243 -13.558 -24.845  0.00  0.00    +0.014 C 
ATOM     15  H   UNL     1      35.752 -18.369 -22.916  0.00  0.00    -0.084 HD
ATOM     16  H   UNL     1      36.519 -16.900 -23.117  0.00  0.00    -0.084 HD
BRANCH   6  17
ATOM     17  C   UNL     1      34.577 -15.036 -20.080  0.00  0.00    +0.002 C 
ATOM     18  C   UNL     1      33.080 -14.842 -20.183  0.00  0.00    +0.000 C 
ENDBRANCH   6  17
ENDBRANCH   2  13
BRANCH   3  19
ATOM     19  C   UNL     1      32.026  -9.387 -23.011  0.00  0.00    +0.054 C 
ATOM     20  C   UNL     1      31.682  -7.190 -22.093  0.00  0.00    +0.000 C 
ATOM     21  C   UNL     1      31.673  -6.661 -23.407  0.00  0.00    +0.000 C 
ATOM     22  C   UNL     1      31.862  -8.572 -21.911  0.00  0.00    +0.005 C 
ATOM     23  C   UNL     1      32.021  -8.898 -24.297  0.00  0.00    +0.005 C 
ATOM     24  C   UNL     1      31.843  -7.530 -24.498  0.00  0.00    +0.000 C 
ATOM     25  C   UNL     1      31.493  -5.281 -23.590  0.00  0.00    +0.003 C 
ATOM     26  C   UNL     1      31.512  -6.323 -21.003  0.00  0.00    +0.000 C 
ATOM     27  C   UNL     1      31.325  -4.433 -22.495  0.00  0.00    +0.031 C 
ATOM     28  C   UNL     1      31.334  -4.954 -21.203  0.00  0.00    +0.003 C 
BRANCH  27  31
ATOM     29  N   UNL     1      31.950  -2.070 -22.062  0.00  0.00    -0.343 N 
ATOM     30  N   UNL     1      30.185  -2.576 -23.505  0.00  0.00    -0.285 NA
ATOM     31  C   UNL     1      31.140  -3.006 -22.701  0.00  0.00    +0.117 C 
ATOM     32  H   UNL     1      31.808  -1.108 -22.216  0.00  0.00    +0.144 HD
ATOM     33  H   UNL     1      32.666  -2.371 -21.456  0.00  0.00    +0.144 HD
ATOM     34  H   UNL     1      30.058  -1.610 -23.647  0.00  0.00    +0.188 HD
ENDBRANCH  27  31
ENDBRANCH   3  19
TORSDOF 4
ENDMDL
MODEL 7
REMARK VINA RESULT:     -10.7      8.311     15.084
REMARK  Name = 447731
REMARK  4 active torsions:
REMARK  status: ('A' for Active; 'I' for Inactive)
REMARK    1  A    between atoms: N_2  and  C_13
REMARK    2  A    between atoms: C_3  and  C_19
REMARK    3  A    between atoms: C_6  and  C_17
REMARK    4  A    between atoms: C_27  and  C_31
REMARK                            x       y       z     vdW  Elec       q    Type
REMARK                         _______ _______ _______ _____ _____    ______ ____
ROOT
ATOM      1  O   UNL     1      31.395 -11.282 -21.772  0.00  0.00    -0.270 OA
ATOM      2  N   UNL     1      32.675 -10.373 -23.523  0.00  0.00    -0.280 N 
ATOM      3  C   UNL     1      32.253 -11.378 -22.643  0.00  0.00    +0.249 C 
ATOM      4  H   UNL     1      33.378 -10.626 -24.164  0.00  0.00    +0.155 HD
ENDROOT
BRANCH   2  13
ATOM      5  N   UNL     1      30.326  -4.443 -22.592  0.00  0.00    +0.387 N 
ATOM      6  C   UNL     1      31.568  -6.100 -21.244  0.00  0.00    +0.001 C 
ATOM      7  C   UNL     1      31.694  -6.946 -22.503  0.00  0.00    -0.029 C 
ATOM      8  C   UNL     1      31.358  -4.608 -21.570  0.00  0.00    -0.077 C 
ATOM      9  C   UNL     1      31.287  -6.422 -23.747  0.00  0.00    -0.048 C 
ATOM     10  C   UNL     1      30.790  -5.003 -23.864  0.00  0.00    -0.055 C 
ATOM     11  C   UNL     1      32.138  -8.277 -22.446  0.00  0.00    +0.010 C 
ATOM     12  C   UNL     1      31.387  -7.208 -24.904  0.00  0.00    -0.005 C 
ATOM     13  C   UNL     1      32.220  -9.055 -23.603  0.00  0.00    +0.050 C 
ATOM     14  C   UNL     1      31.851  -8.519 -24.831  0.00  0.00    +0.014 C 
ATOM     15  H   UNL     1      30.125  -3.450 -22.713  0.00  0.00    -0.084 HD
ATOM     16  H   UNL     1      29.481  -4.933 -22.298  0.00  0.00    -0.084 HD
BRANCH   6  17
ATOM     17  C   UNL     1      32.763  -6.229 -20.294  0.00  0.00    +0.002 C 
ATOM     18  C   UNL     1      32.719  -7.536 -19.534  0.00  0.00    +0.000 C 
ENDBRANCH   6  17
ENDBRANCH   2  13
BRANCH   3  19
ATOM     19  C   UNL     1      32.951 -12.683 -22.785  0.00  0.00    +0.054 C 
ATOM     20  C   UNL     1      34.038 -14.571 -21.764  0.00  0.00    +0.000 C 
ATOM     21  C   UNL     1      34.256 -15.119 -23.051  0.00  0.00    +0.000 C 
ATOM     22  C   UNL     1      33.376 -13.336 -21.647  0.00  0.00    +0.005 C 
ATOM     23  C   UNL     1      33.151 -13.194 -24.047  0.00  0.00    +0.005 C 
ATOM     24  C   UNL     1      33.806 -14.418 -24.182  0.00  0.00    +0.000 C 
ATOM     25  C   UNL     1      34.918 -16.352 -23.169  0.00  0.00    +0.003 C 
ATOM     26  C   UNL     1      34.488 -15.271 -20.634  0.00  0.00    +0.000 C 
ATOM     27  C   UNL     1      35.358 -17.035 -22.035  0.00  0.00    +0.031 C 
ATOM     28  C   UNL     1      35.143 -16.494 -20.769  0.00  0.00    +0.003 C 
BRANCH  27  31
ATOM     29  N   UNL     1      37.384 -18.455 -21.829  0.00  0.00    -0.343 N 
ATOM     30  N   UNL     1      35.389 -19.360 -22.638  0.00  0.00    -0.285 NA
ATOM     31  C   UNL     1      36.042 -18.311 -22.173  0.00  0.00    +0.117 C 
ATOM     32  H   UNL     1      37.828 -19.327 -21.930  0.00  0.00    +0.144 HD
ATOM     33  H   UNL     1      37.890 -17.683 -21.483  0.00  0.00    +0.144 HD
ATOM     34  H   UNL     1      35.850 -20.225 -22.733  0.00  0.00    +0.188 HD
ENDBRANCH  27  31
ENDBRANCH   3  19
TORSDOF 4
ENDMDL
MODEL 8
REMARK VINA RESULT:     -10.6      9.260     16.078
REMARK  Name = 447731
REMARK  4 active torsions:
REMARK  status: ('A' for Active; 'I' for Inactive)
REMARK    1  A    between atoms: N_2  and  C_13
REMARK    2  A    between atoms: C_3  and  C_19
REMARK    3  A    between atoms: C_6  and  C_17
REMARK    4  A    between atoms: C_27  and  C_31
REMARK                            x       y       z     vdW  Elec       q    Type
REMARK                         _______ _______ _______ _____ _____    ______ ____
ROOT
ATOM      1  O   UNL     1      30.804 -10.398 -22.463  0.00  0.00    -0.270 OA
ATOM      2  N   UNL     1      32.856  -9.253 -22.363  0.00  0.00    -0.280 N 
ATOM      3  C   UNL     1      32.030 -10.381 -22.459  0.00  0.00    +0.249 C 
ATOM      4  H   UNL     1      33.825  -9.425 -22.376  0.00  0.00    +0.155 HD
ENDROOT
BRANCH   2  13
ATOM      5  N   UNL     1      32.051  -2.869 -22.735  0.00  0.00    +0.387 N 
ATOM      6  C   UNL     1      32.774  -4.666 -24.268  0.00  0.00    +0.001 C 
ATOM      7  C   UNL     1      32.404  -5.665 -23.181  0.00  0.00    -0.029 C 
ATOM      8  C   UNL     1      32.004  -3.339 -24.118  0.00  0.00    -0.077 C 
ATOM      9  C   UNL     1      31.732  -5.227 -22.022  0.00  0.00    -0.048 C 
ATOM     10  C   UNL     1      31.306  -3.788 -21.870  0.00  0.00    -0.055 C 
ATOM     11  C   UNL     1      32.790  -7.013 -23.268  0.00  0.00    +0.010 C 
ATOM     12  C   UNL     1      31.408  -6.145 -21.012  0.00  0.00    -0.005 C 
ATOM     13  C   UNL     1      32.472  -7.915 -22.250  0.00  0.00    +0.050 C 
ATOM     14  C   UNL     1      31.777  -7.483 -21.126  0.00  0.00    +0.014 C 
ATOM     15  H   UNL     1      31.633  -1.940 -22.679  0.00  0.00    -0.084 HD
ATOM     16  H   UNL     1      33.022  -2.830 -22.426  0.00  0.00    -0.084 HD
BRANCH   6  17
ATOM     17  C   UNL     1      32.560  -5.197 -25.690  0.00  0.00    +0.002 C 
ATOM     18  C   UNL     1      31.996  -4.123 -26.595  0.00  0.00    +0.000 C 
ENDBRANCH   6  17
ENDBRANCH   2  13
BRANCH   3  19
ATOM     19  C   UNL     1      32.740 -11.685 -22.540  0.00  0.00    +0.054 C 
ATOM     20  C   UNL     1      33.631 -13.628 -21.438  0.00  0.00    +0.000 C 
ATOM     21  C   UNL     1      34.066 -14.120 -22.692  0.00  0.00    +0.000 C 
ATOM     22  C   UNL     1      32.961 -12.394 -21.378  0.00  0.00    +0.005 C 
ATOM     23  C   UNL     1      33.153 -12.140 -23.771  0.00  0.00    +0.005 C 
ATOM     24  C   UNL     1      33.819 -13.362 -23.850  0.00  0.00    +0.000 C 
ATOM     25  C   UNL     1      34.736 -15.353 -22.752  0.00  0.00    +0.003 C 
ATOM     26  C   UNL     1      33.877 -14.385 -20.281  0.00  0.00    +0.000 C 
ATOM     27  C   UNL     1      34.973 -16.091 -21.593  0.00  0.00    +0.031 C 
ATOM     28  C   UNL     1      34.544 -15.607 -20.359  0.00  0.00    +0.003 C 
BRANCH  27  31
ATOM     29  N   UNL     1      35.902 -17.988 -22.896  0.00  0.00    -0.343 N 
ATOM     30  N   UNL     1      36.085 -17.957 -20.568  0.00  0.00    -0.285 NA
ATOM     31  C   UNL     1      35.667 -17.366 -21.672  0.00  0.00    +0.117 C 
ATOM     32  H   UNL     1      36.374 -18.851 -22.927  0.00  0.00    +0.144 HD
ATOM     33  H   UNL     1      35.596 -17.565 -23.731  0.00  0.00    +0.144 HD
ATOM     34  H   UNL     1      36.555 -18.821 -20.619  0.00  0.00    +0.188 HD
ENDBRANCH  27  31
ENDBRANCH   3  19
TORSDOF 4
ENDMDL
MODEL 9
REMARK VINA RESULT:     -10.4      7.950     15.201
REMARK  Name = 447731
REMARK  4 active torsions:
REMARK  status: ('A' for Active; 'I' for Inactive)
REMARK    1  A    between atoms: N_2  and  C_13
REMARK    2  A    between atoms: C_3  and  C_19
REMARK    3  A    between atoms: C_6  and  C_17
REMARK    4  A    between atoms: C_27  and  C_31
REMARK                            x       y       z     vdW  Elec       q    Type
REMARK                         _______ _______ _______ _____ _____    ______ ____
ROOT
ATOM      1  O   UNL     1      32.932 -11.778 -24.375  0.00  0.00    -0.270 OA
ATOM      2  N   UNL     1      34.424 -10.593 -22.997  0.00  0.00    -0.280 N 
ATOM      3  C   UNL     1      33.765 -11.732 -23.475  0.00  0.00    +0.249 C 
ATOM      4  H   UNL     1      35.066 -10.740 -22.264  0.00  0.00    +0.155 HD
ENDROOT
BRANCH   2  13
ATOM      5  N   UNL     1      32.536  -4.882 -25.314  0.00  0.00    +0.387 N 
ATOM      6  C   UNL     1      31.458  -6.782 -24.160  0.00  0.00    +0.001 C 
ATOM      7  C   UNL     1      32.842  -7.388 -23.983  0.00  0.00    -0.029 C 
ATOM      8  C   UNL     1      31.516  -5.251 -24.335  0.00  0.00    -0.077 C 
ATOM      9  C   UNL     1      33.987  -6.639 -24.324  0.00  0.00    -0.048 C 
ATOM     10  C   UNL     1      33.866  -5.212 -24.796  0.00  0.00    -0.055 C 
ATOM     11  C   UNL     1      33.008  -8.717 -23.559  0.00  0.00    +0.010 C 
ATOM     12  C   UNL     1      35.263  -7.204 -24.177  0.00  0.00    -0.005 C 
ATOM     13  C   UNL     1      34.283  -9.273 -23.430  0.00  0.00    +0.050 C 
ATOM     14  C   UNL     1      35.409  -8.516 -23.733  0.00  0.00    +0.014 C 
ATOM     15  H   UNL     1      32.483  -3.880 -25.497  0.00  0.00    -0.084 HD
ATOM     16  H   UNL     1      32.375  -5.400 -26.178  0.00  0.00    -0.084 HD
BRANCH   6  17
ATOM     17  C   UNL     1      30.493  -7.106 -23.013  0.00  0.00    +0.002 C 
ATOM     18  C   UNL     1      30.482  -6.001 -21.979  0.00  0.00    +0.000 C 
ENDBRANCH   6  17
ENDBRANCH   2  13
BRANCH   3  19
ATOM     19  C   UNL     1      34.109 -13.004 -22.786  0.00  0.00    +0.054 C 
ATOM     20  C   UNL     1      34.697 -15.333 -22.912  0.00  0.00    +0.000 C 
ATOM     21  C   UNL     1      34.751 -15.378 -21.498  0.00  0.00    +0.000 C 
ATOM     22  C   UNL     1      34.371 -14.123 -23.548  0.00  0.00    +0.005 C 
ATOM     23  C   UNL     1      34.154 -13.022 -21.411  0.00  0.00    +0.005 C 
ATOM     24  C   UNL     1      34.476 -14.214 -20.762  0.00  0.00    +0.000 C 
ATOM     25  C   UNL     1      35.077 -16.587 -20.861  0.00  0.00    +0.003 C 
ATOM     26  C   UNL     1      34.972 -16.497 -23.647  0.00  0.00    +0.000 C 
ATOM     27  C   UNL     1      35.346 -17.735 -21.608  0.00  0.00    +0.031 C 
ATOM     28  C   UNL     1      35.294 -17.689 -22.999  0.00  0.00    +0.003 C 
BRANCH  27  31
ATOM     29  N   UNL     1      34.839 -20.086 -20.994  0.00  0.00    -0.343 N 
ATOM     30  N   UNL     1      36.805 -19.071 -20.245  0.00  0.00    -0.285 NA
ATOM     31  C   UNL     1      35.683 -18.978 -20.934  0.00  0.00    +0.117 C 
ATOM     32  H   UNL     1      35.086 -20.918 -20.530  0.00  0.00    +0.144 HD
ATOM     33  H   UNL     1      33.996 -20.036 -21.500  0.00  0.00    +0.144 HD
ATOM     34  H   UNL     1      37.034 -19.912 -19.787  0.00  0.00    +0.188 HD
ENDBRANCH  27  31
ENDBRANCH   3  19
TORSDOF 4
ENDMDL
