MODEL 1
REMARK VINA RESULT:     -10.8      0.000      0.000
REMARK  Name = 44193830
REMARK  8 active torsions:
REMARK  status: ('A' for Active; 'I' for Inactive)
REMARK    1  A    between atoms: C_9  and  C_20
REMARK    2  A    between atoms: C_10  and  C_15
REMARK    3  A    between atoms: C_11  and  C_17
REMARK    4  A    between atoms: C_17  and  O_18
REMARK    5  A    between atoms: C_20  and  C_21
REMARK    6  A    between atoms: C_21  and  N_22
REMARK    7  A    between atoms: C_21  and  C_26
REMARK    8  A    between atoms: C_26  and  C_30
REMARK                            x       y       z     vdW  Elec       q    Type
REMARK                         _______ _______ _______ _____ _____    ______ ____
ROOT
ATOM      1  O   UNL     1      36.995 -21.402 -18.933  0.00  0.00    -0.275 OA
ATOM      2  N   UNL     1      35.982 -22.116 -16.964  0.00  0.00    -0.276 N 
ATOM      3  N   UNL     1      36.442 -23.640 -14.679  0.00  0.00    -0.272 N 
ATOM      4  N   UNL     1      35.211 -24.807 -13.264  0.00  0.00    -0.379 NA
ATOM      5  C   UNL     1      37.169 -21.830 -16.144  0.00  0.00    +0.115 C 
ATOM      6  C   UNL     1      37.585 -23.063 -15.351  0.00  0.00    +0.115 C 
ATOM      7  C   UNL     1      34.784 -22.590 -16.242  0.00  0.00    +0.121 C 
ATOM      8  C   UNL     1      35.148 -23.445 -15.082  0.00  0.00    +0.154 C 
ATOM      9  C   UNL     1      35.998 -21.799 -18.324  0.00  0.00    +0.224 C 
ATOM     10  C   UNL     1      36.436 -24.459 -13.593  0.00  0.00    +0.256 C 
ATOM     11  C   UNL     1      34.404 -24.180 -14.185  0.00  0.00    +0.205 C 
ENDROOT
BRANCH  10  15
ATOM     12  F   UNL     1      37.457 -25.881 -11.984  0.00  0.00    -0.163 F 
ATOM     13  F   UNL     1      38.635 -25.390 -13.745  0.00  0.00    -0.163 F 
ATOM     14  F   UNL     1      38.305 -23.891 -12.213  0.00  0.00    -0.163 F 
ATOM     15  C   UNL     1      37.671 -24.890 -12.907  0.00  0.00    +0.460 C 
ENDBRANCH  10  15
BRANCH  11  17
ATOM     16  O   UNL     1      32.211 -24.007 -15.106  0.00  0.00    -0.242 OA
ATOM     17  C   UNL     1      32.978 -24.308 -14.164  0.00  0.00    +0.369 C 
BRANCH  17  18
ATOM     18  O   UNL     1      32.511 -24.810 -12.970  0.00  0.00    -0.440 OA
ATOM     19  C   UNL     1      31.125 -25.157 -12.889  0.00  0.00    +0.256 C 
ENDBRANCH  17  18
ENDBRANCH  11  17
BRANCH   9  20
ATOM     20  C   UNL     1      34.697 -21.969 -19.068  0.00  0.00    +0.064 C 
BRANCH  20  21
ATOM     21  C   UNL     1      34.275 -20.679 -19.772  0.00  0.00    -0.052 C 
BRANCH  21  22
ATOM     22  N   UNL     1      32.809 -20.694 -19.862  0.00  0.00    +0.382 N 
ATOM     23  H   UNL     1      32.411 -20.744 -18.925  0.00  0.00    -0.089 HD
ATOM     24  H   UNL     1      32.510 -21.506 -20.402  0.00  0.00    -0.089 HD
ATOM     25  H   UNL     1      32.488 -19.843 -20.323  0.00  0.00    -0.089 HD
ENDBRANCH  21  22
BRANCH  21  26
ATOM     26  C   UNL     1      34.851 -20.541 -21.199  0.00  0.00    +0.007 C 
BRANCH  26  30
ATOM     27  F   UNL     1      34.753 -19.863 -23.951  0.00  0.00    -0.204 F 
ATOM     28  F   UNL     1      35.301 -15.748 -20.390  0.00  0.00    -0.202 F 
ATOM     29  F   UNL     1      35.194 -15.235 -23.075  0.00  0.00    -0.202 F 
ATOM     30  C   UNL     1      34.942 -19.121 -21.704  0.00  0.00    +0.006 C 
ATOM     31  C   UNL     1      34.888 -18.859 -23.072  0.00  0.00    +0.138 C 
ATOM     32  C   UNL     1      35.082 -18.070 -20.798  0.00  0.00    +0.030 C 
ATOM     33  C   UNL     1      35.167 -16.757 -21.261  0.00  0.00    +0.167 C 
ATOM     34  C   UNL     1      34.973 -17.546 -23.535  0.00  0.00    +0.061 C 
ATOM     35  C   UNL     1      35.112 -16.496 -22.629  0.00  0.00    +0.170 C 
ENDBRANCH  26  30
ENDBRANCH  21  26
ENDBRANCH  20  21
ENDBRANCH   9  20
TORSDOF 8
ENDMDL
MODEL 2
REMARK VINA RESULT:     -10.7      2.909      4.117
REMARK  Name = 44193830
REMARK  8 active torsions:
REMARK  status: ('A' for Active; 'I' for Inactive)
REMARK    1  A    between atoms: C_9  and  C_20
REMARK    2  A    between atoms: C_10  and  C_15
REMARK    3  A    between atoms: C_11  and  C_17
REMARK    4  A    between atoms: C_17  and  O_18
REMARK    5  A    between atoms: C_20  and  C_21
REMARK    6  A    between atoms: C_21  and  N_22
REMARK    7  A    between atoms: C_21  and  C_26
REMARK    8  A    between atoms: C_26  and  C_30
REMARK                            x       y       z     vdW  Elec       q    Type
REMARK                         _______ _______ _______ _____ _____    ______ ____
ROOT
ATOM      1  O   UNL     1      34.157 -20.324 -20.854  0.00  0.00    -0.275 OA
ATOM      2  N   UNL     1      34.901 -21.601 -19.056  0.00  0.00    -0.276 N 
ATOM      3  N   UNL     1      34.061 -22.696 -16.637  0.00  0.00    -0.272 N 
ATOM      4  N   UNL     1      35.013 -23.263 -14.727  0.00  0.00    -0.379 NA
ATOM      5  C   UNL     1      33.692 -22.438 -19.035  0.00  0.00    +0.115 C 
ATOM      6  C   UNL     1      33.060 -22.436 -17.648  0.00  0.00    +0.115 C 
ATOM      7  C   UNL     1      35.964 -21.959 -18.097  0.00  0.00    +0.121 C 
ATOM      8  C   UNL     1      35.400 -22.471 -16.821  0.00  0.00    +0.154 C 
ATOM      9  C   UNL     1      35.041 -20.628 -20.049  0.00  0.00    +0.224 C 
ATOM     10  C   UNL     1      33.872 -23.167 -15.376  0.00  0.00    +0.256 C 
ATOM     11  C   UNL     1      35.967 -22.833 -15.618  0.00  0.00    +0.205 C 
ENDROOT
BRANCH  10  15
ATOM     12  F   UNL     1      31.794 -22.400 -14.512  0.00  0.00    -0.163 F 
ATOM     13  F   UNL     1      31.749 -24.222 -15.697  0.00  0.00    -0.163 F 
ATOM     14  F   UNL     1      32.571 -24.258 -13.691  0.00  0.00    -0.163 F 
ATOM     15  C   UNL     1      32.539 -23.504 -14.836  0.00  0.00    +0.460 C 
ENDBRANCH  10  15
BRANCH  11  17
ATOM     16  O   UNL     1      38.259 -22.302 -16.007  0.00  0.00    -0.242 OA
ATOM     17  C   UNL     1      37.359 -22.790 -15.287  0.00  0.00    +0.369 C 
BRANCH  17  18
ATOM     18  O   UNL     1      37.626 -23.355 -14.060  0.00  0.00    -0.440 OA
ATOM     19  C   UNL     1      38.235 -24.649 -14.041  0.00  0.00    +0.256 C 
ENDBRANCH  17  18
ENDBRANCH  11  17
BRANCH   9  20
ATOM     20  C   UNL     1      36.371 -19.918 -20.109  0.00  0.00    +0.064 C 
BRANCH  20  21
ATOM     21  C   UNL     1      36.432 -18.929 -21.273  0.00  0.00    -0.052 C 
BRANCH  21  22
ATOM     22  N   UNL     1      37.848 -18.613 -21.500  0.00  0.00    +0.382 N 
ATOM     23  H   UNL     1      38.426 -19.389 -21.175  0.00  0.00    -0.089 HD
ATOM     24  H   UNL     1      38.095 -17.768 -20.985  0.00  0.00    -0.089 HD
ATOM     25  H   UNL     1      38.009 -18.464 -22.495  0.00  0.00    -0.089 HD
ENDBRANCH  21  22
BRANCH  21  26
ATOM     26  C   UNL     1      35.676 -17.610 -20.998  0.00  0.00    +0.007 C 
BRANCH  26  30
ATOM     27  F   UNL     1      35.058 -18.987 -23.400  0.00  0.00    -0.204 F 
ATOM     28  F   UNL     1      34.260 -13.576 -23.354  0.00  0.00    -0.202 F 
ATOM     29  F   UNL     1      33.705 -15.026 -25.606  0.00  0.00    -0.202 F 
ATOM     30  C   UNL     1      35.148 -16.921 -22.233  0.00  0.00    +0.006 C 
ATOM     31  C   UNL     1      34.865 -17.660 -23.382  0.00  0.00    +0.138 C 
ATOM     32  C   UNL     1      34.944 -15.542 -22.224  0.00  0.00    +0.030 C 
ATOM     33  C   UNL     1      34.456 -14.901 -23.364  0.00  0.00    +0.167 C 
ATOM     34  C   UNL     1      34.378 -17.020 -24.521  0.00  0.00    +0.061 C 
ATOM     35  C   UNL     1      34.173 -15.641 -24.511  0.00  0.00    +0.170 C 
ENDBRANCH  26  30
ENDBRANCH  21  26
ENDBRANCH  20  21
ENDBRANCH   9  20
TORSDOF 8
ENDMDL
MODEL 3
REMARK VINA RESULT:     -10.4      1.063      1.839
REMARK  Name = 44193830
REMARK  8 active torsions:
REMARK  status: ('A' for Active; 'I' for Inactive)
REMARK    1  A    between atoms: C_9  and  C_20
REMARK    2  A    between atoms: C_10  and  C_15
REMARK    3  A    between atoms: C_11  and  C_17
REMARK    4  A    between atoms: C_17  and  O_18
REMARK    5  A    between atoms: C_20  and  C_21
REMARK    6  A    between atoms: C_21  and  N_22
REMARK    7  A    between atoms: C_21  and  C_26
REMARK    8  A    between atoms: C_26  and  C_30
REMARK                            x       y       z     vdW  Elec       q    Type
REMARK                         _______ _______ _______ _____ _____    ______ ____
ROOT
ATOM      1  O   UNL     1      36.812 -21.651 -18.531  0.00  0.00    -0.275 OA
ATOM      2  N   UNL     1      35.873 -22.333 -16.514  0.00  0.00    -0.276 N 
ATOM      3  N   UNL     1      36.380 -23.901 -14.269  0.00  0.00    -0.272 N 
ATOM      4  N   UNL     1      35.170 -25.019 -12.798  0.00  0.00    -0.379 NA
ATOM      5  C   UNL     1      37.116 -22.115 -15.759  0.00  0.00    +0.115 C 
ATOM      6  C   UNL     1      37.512 -23.374 -14.998  0.00  0.00    +0.115 C 
ATOM      7  C   UNL     1      34.694 -22.754 -15.732  0.00  0.00    +0.121 C 
ATOM      8  C   UNL     1      35.077 -23.638 -14.600  0.00  0.00    +0.154 C 
ATOM      9  C   UNL     1      35.832 -22.004 -17.871  0.00  0.00    +0.224 C 
ATOM     10  C   UNL     1      36.392 -24.729 -13.191  0.00  0.00    +0.256 C 
ATOM     11  C   UNL     1      34.347 -24.344 -13.668  0.00  0.00    +0.205 C 
ENDROOT
BRANCH  10  15
ATOM     12  F   UNL     1      38.371 -24.241 -11.966  0.00  0.00    -0.163 F 
ATOM     13  F   UNL     1      37.448 -26.176 -11.604  0.00  0.00    -0.163 F 
ATOM     14  F   UNL     1      38.506 -25.814 -13.462  0.00  0.00    -0.163 F 
ATOM     15  C   UNL     1      37.639 -25.227 -12.576  0.00  0.00    +0.460 C 
ENDBRANCH  10  15
BRANCH  11  17
ATOM     16  O   UNL     1      32.237 -25.450 -13.564  0.00  0.00    -0.242 OA
ATOM     17  C   UNL     1      32.920 -24.402 -13.571  0.00  0.00    +0.369 C 
BRANCH  17  18
ATOM     18  O   UNL     1      32.347 -23.152 -13.483  0.00  0.00    -0.440 OA
ATOM     19  C   UNL     1      31.169 -22.904 -14.256  0.00  0.00    +0.256 C 
ENDBRANCH  17  18
ENDBRANCH  11  17
BRANCH   9  20
ATOM     20  C   UNL     1      34.485 -22.102 -18.544  0.00  0.00    +0.064 C 
BRANCH  20  21
ATOM     21  C   UNL     1      34.241 -20.930 -19.495  0.00  0.00    -0.052 C 
BRANCH  21  22
ATOM     22  N   UNL     1      32.807 -20.920 -19.811  0.00  0.00    +0.382 N 
ATOM     23  H   UNL     1      32.681 -20.927 -20.824  0.00  0.00    -0.089 HD
ATOM     24  H   UNL     1      32.379 -20.080 -19.422  0.00  0.00    -0.089 HD
ATOM     25  H   UNL     1      32.363 -21.745 -19.408  0.00  0.00    -0.089 HD
ENDBRANCH  21  22
BRANCH  21  26
ATOM     26  C   UNL     1      35.031 -21.037 -20.818  0.00  0.00    +0.007 C 
BRANCH  26  30
ATOM     27  F   UNL     1      36.615 -18.812 -20.054  0.00  0.00    -0.204 F 
ATOM     28  F   UNL     1      33.699 -18.331 -24.655  0.00  0.00    -0.202 F 
ATOM     29  F   UNL     1      35.269 -16.260 -23.803  0.00  0.00    -0.202 F 
ATOM     30  C   UNL     1      35.097 -19.757 -21.615  0.00  0.00    +0.006 C 
ATOM     31  C   UNL     1      35.898 -18.701 -21.181  0.00  0.00    +0.138 C 
ATOM     32  C   UNL     1      34.354 -19.632 -22.789  0.00  0.00    +0.030 C 
ATOM     33  C   UNL     1      34.412 -18.451 -23.528  0.00  0.00    +0.167 C 
ATOM     34  C   UNL     1      35.955 -17.519 -21.920  0.00  0.00    +0.061 C 
ATOM     35  C   UNL     1      35.213 -17.395 -23.094  0.00  0.00    +0.170 C 
ENDBRANCH  26  30
ENDBRANCH  21  26
ENDBRANCH  20  21
ENDBRANCH   9  20
TORSDOF 8
ENDMDL
MODEL 4
REMARK VINA RESULT:     -10.0      2.661      4.169
REMARK  Name = 44193830
REMARK  8 active torsions:
REMARK  status: ('A' for Active; 'I' for Inactive)
REMARK    1  A    between atoms: C_9  and  C_20
REMARK    2  A    between atoms: C_10  and  C_15
REMARK    3  A    between atoms: C_11  and  C_17
REMARK    4  A    between atoms: C_17  and  O_18
REMARK    5  A    between atoms: C_20  and  C_21
REMARK    6  A    between atoms: C_21  and  N_22
REMARK    7  A    between atoms: C_21  and  C_26
REMARK    8  A    between atoms: C_26  and  C_30
REMARK                            x       y       z     vdW  Elec       q    Type
REMARK                         _______ _______ _______ _____ _____    ______ ____
ROOT
ATOM      1  O   UNL     1      32.025 -22.554 -15.582  0.00  0.00    -0.275 OA
ATOM      2  N   UNL     1      33.604 -24.068 -14.789  0.00  0.00    -0.276 N 
ATOM      3  N   UNL     1      35.434 -24.463 -12.728  0.00  0.00    -0.272 N 
ATOM      4  N   UNL     1      37.333 -25.560 -12.468  0.00  0.00    -0.379 NA
ATOM      5  C   UNL     1      33.143 -23.956 -13.397  0.00  0.00    +0.115 C 
ATOM      6  C   UNL     1      34.301 -23.599 -12.474  0.00  0.00    +0.115 C 
ATOM      7  C   UNL     1      34.679 -25.045 -15.049  0.00  0.00    +0.121 C 
ATOM      8  C   UNL     1      35.631 -25.125 -13.910  0.00  0.00    +0.154 C 
ATOM      9  C   UNL     1      32.924 -23.370 -15.792  0.00  0.00    +0.224 C 
ATOM     10  C   UNL     1      36.471 -24.747 -11.895  0.00  0.00    +0.256 C 
ATOM     11  C   UNL     1      36.818 -25.799 -13.720  0.00  0.00    +0.205 C 
ENDROOT
BRANCH  10  15
ATOM     12  F   UNL     1      37.750 -24.534  -9.903  0.00  0.00    -0.163 F 
ATOM     13  F   UNL     1      36.554 -22.815 -10.487  0.00  0.00    -0.163 F 
ATOM     14  F   UNL     1      35.588 -24.581  -9.679  0.00  0.00    -0.163 F 
ATOM     15  C   UNL     1      36.585 -24.186 -10.534  0.00  0.00    +0.460 C 
ENDBRANCH  10  15
BRANCH  11  17
ATOM     16  O   UNL     1      36.921 -27.204 -15.645  0.00  0.00    -0.242 OA
ATOM     17  C   UNL     1      37.472 -26.653 -14.666  0.00  0.00    +0.369 C 
BRANCH  17  18
ATOM     18  O   UNL     1      38.811 -26.817 -14.388  0.00  0.00    -0.440 OA
ATOM     19  C   UNL     1      39.693 -25.733 -14.696  0.00  0.00    +0.256 C 
ENDBRANCH  17  18
ENDBRANCH  11  17
BRANCH   9  20
ATOM     20  C   UNL     1      33.348 -23.655 -17.211  0.00  0.00    +0.064 C 
BRANCH  20  21
ATOM     21  C   UNL     1      33.640 -22.368 -17.983  0.00  0.00    -0.052 C 
BRANCH  21  22
ATOM     22  N   UNL     1      32.346 -21.774 -18.341  0.00  0.00    +0.382 N 
ATOM     23  H   UNL     1      31.613 -22.176 -17.756  0.00  0.00    -0.089 HD
ATOM     24  H   UNL     1      32.142 -21.969 -19.322  0.00  0.00    -0.089 HD
ATOM     25  H   UNL     1      32.382 -20.766 -18.196  0.00  0.00    -0.089 HD
ENDBRANCH  21  22
BRANCH  21  26
ATOM     26  C   UNL     1      34.447 -22.599 -19.280  0.00  0.00    +0.007 C 
BRANCH  26  30
ATOM     27  F   UNL     1      36.977 -21.733 -18.334  0.00  0.00    -0.204 F 
ATOM     28  F   UNL     1      34.628 -18.737 -22.260  0.00  0.00    -0.202 F 
ATOM     29  F   UNL     1      37.068 -18.015 -21.257  0.00  0.00    -0.202 F 
ATOM     30  C   UNL     1      35.151 -21.372 -19.808  0.00  0.00    +0.006 C 
ATOM     31  C   UNL     1      36.395 -21.004 -19.296  0.00  0.00    +0.138 C 
ATOM     32  C   UNL     1      34.554 -20.606 -20.809  0.00  0.00    +0.030 C 
ATOM     33  C   UNL     1      35.202 -19.472 -21.299  0.00  0.00    +0.167 C 
ATOM     34  C   UNL     1      37.042 -19.869 -19.786  0.00  0.00    +0.061 C 
ATOM     35  C   UNL     1      36.445 -19.104 -20.787  0.00  0.00    +0.170 C 
ENDBRANCH  26  30
ENDBRANCH  21  26
ENDBRANCH  20  21
ENDBRANCH   9  20
TORSDOF 8
ENDMDL
MODEL 5
REMARK VINA RESULT:      -9.6      5.893     11.891
REMARK  Name = 44193830
REMARK  8 active torsions:
REMARK  status: ('A' for Active; 'I' for Inactive)
REMARK    1  A    between atoms: C_9  and  C_20
REMARK    2  A    between atoms: C_10  and  C_15
REMARK    3  A    between atoms: C_11  and  C_17
REMARK    4  A    between atoms: C_17  and  O_18
REMARK    5  A    between atoms: C_20  and  C_21
REMARK    6  A    between atoms: C_21  and  N_22
REMARK    7  A    between atoms: C_21  and  C_26
REMARK    8  A    between atoms: C_26  and  C_30
REMARK                            x       y       z     vdW  Elec       q    Type
REMARK                         _______ _______ _______ _____ _____    ______ ____
ROOT
ATOM      1  O   UNL     1      35.429 -16.415 -23.555  0.00  0.00    -0.275 OA
ATOM      2  N   UNL     1      33.940 -14.855 -22.682  0.00  0.00    -0.276 N 
ATOM      3  N   UNL     1      33.107 -12.212 -22.959  0.00  0.00    -0.272 N 
ATOM      4  N   UNL     1      32.224 -10.671 -21.647  0.00  0.00    -0.379 NA
ATOM      5  C   UNL     1      33.526 -14.375 -24.008  0.00  0.00    +0.115 C 
ATOM      6  C   UNL     1      33.693 -12.864 -24.110  0.00  0.00    +0.115 C 
ATOM      7  C   UNL     1      33.243 -14.265 -21.522  0.00  0.00    +0.121 C 
ATOM      8  C   UNL     1      32.904 -12.837 -21.757  0.00  0.00    +0.154 C 
ATOM      9  C   UNL     1      34.843 -15.917 -22.591  0.00  0.00    +0.224 C 
ATOM     10  C   UNL     1      32.689 -10.923 -22.851  0.00  0.00    +0.256 C 
ATOM     11  C   UNL     1      32.353 -11.856 -20.961  0.00  0.00    +0.205 C 
ENDROOT
BRANCH  10  15
ATOM     12  F   UNL     1      34.032  -9.433 -24.129  0.00  0.00    -0.163 F 
ATOM     13  F   UNL     1      32.448 -10.477 -25.190  0.00  0.00    -0.163 F 
ATOM     14  F   UNL     1      31.956  -8.865 -23.826  0.00  0.00    -0.163 F 
ATOM     15  C   UNL     1      32.776  -9.956 -23.964  0.00  0.00    +0.460 C 
ENDBRANCH  10  15
BRANCH  11  17
ATOM     16  O   UNL     1      32.206 -12.978 -18.862  0.00  0.00    -0.242 OA
ATOM     17  C   UNL     1      31.948 -11.997 -19.595  0.00  0.00    +0.369 C 
BRANCH  17  18
ATOM     18  O   UNL     1      31.224 -10.915 -19.146  0.00  0.00    -0.440 OA
ATOM     19  C   UNL     1      31.793 -10.120 -18.102  0.00  0.00    +0.256 C 
ENDBRANCH  17  18
ENDBRANCH  11  17
BRANCH   9  20
ATOM     20  C   UNL     1      35.100 -16.462 -21.207  0.00  0.00    +0.064 C 
BRANCH  20  21
ATOM     21  C   UNL     1      35.653 -17.887 -21.255  0.00  0.00    -0.052 C 
BRANCH  21  22
ATOM     22  N   UNL     1      36.593 -17.949 -22.381  0.00  0.00    +0.382 N 
ATOM     23  H   UNL     1      37.550 -17.922 -22.028  0.00  0.00    -0.089 HD
ATOM     24  H   UNL     1      36.437 -17.154 -23.000  0.00  0.00    -0.089 HD
ATOM     25  H   UNL     1      36.447 -18.816 -22.899  0.00  0.00    -0.089 HD
ENDBRANCH  21  22
BRANCH  21  26
ATOM     26  C   UNL     1      34.564 -18.962 -21.468  0.00  0.00    +0.007 C 
BRANCH  26  30
ATOM     27  F   UNL     1      32.187 -20.215 -20.560  0.00  0.00    -0.204 F 
ATOM     28  F   UNL     1      36.898 -21.928 -18.372  0.00  0.00    -0.202 F 
ATOM     29  F   UNL     1      34.531 -23.051 -17.586  0.00  0.00    -0.202 F 
ATOM     30  C   UNL     1      34.553 -20.057 -20.429  0.00  0.00    +0.006 C 
ATOM     31  C   UNL     1      33.346 -20.630 -20.028  0.00  0.00    +0.138 C 
ATOM     32  C   UNL     1      35.752 -20.495 -19.869  0.00  0.00    +0.030 C 
ATOM     33  C   UNL     1      35.745 -21.507 -18.909  0.00  0.00    +0.167 C 
ATOM     34  C   UNL     1      33.339 -21.641 -19.067  0.00  0.00    +0.061 C 
ATOM     35  C   UNL     1      34.539 -22.080 -18.508  0.00  0.00    +0.170 C 
ENDBRANCH  26  30
ENDBRANCH  21  26
ENDBRANCH  20  21
ENDBRANCH   9  20
TORSDOF 8
ENDMDL
MODEL 6
REMARK VINA RESULT:      -9.3      2.856      3.981
REMARK  Name = 44193830
REMARK  8 active torsions:
REMARK  status: ('A' for Active; 'I' for Inactive)
REMARK    1  A    between atoms: C_9  and  C_20
REMARK    2  A    between atoms: C_10  and  C_15
REMARK    3  A    between atoms: C_11  and  C_17
REMARK    4  A    between atoms: C_17  and  O_18
REMARK    5  A    between atoms: C_20  and  C_21
REMARK    6  A    between atoms: C_21  and  N_22
REMARK    7  A    between atoms: C_21  and  C_26
REMARK    8  A    between atoms: C_26  and  C_30
REMARK                            x       y       z     vdW  Elec       q    Type
REMARK                         _______ _______ _______ _____ _____    ______ ____
ROOT
ATOM      1  O   UNL     1      33.685 -21.786 -19.551  0.00  0.00    -0.275 OA
ATOM      2  N   UNL     1      34.334 -22.795 -17.557  0.00  0.00    -0.276 N 
ATOM      3  N   UNL     1      33.364 -23.566 -15.063  0.00  0.00    -0.272 N 
ATOM      4  N   UNL     1      34.206 -23.853 -13.042  0.00  0.00    -0.379 NA
ATOM      5  C   UNL     1      33.133 -23.641 -17.490  0.00  0.00    +0.115 C 
ATOM      6  C   UNL     1      32.421 -23.462 -16.155  0.00  0.00    +0.115 C 
ATOM      7  C   UNL     1      35.342 -23.002 -16.499  0.00  0.00    +0.121 C 
ATOM      8  C   UNL     1      34.708 -23.345 -15.199  0.00  0.00    +0.154 C 
ATOM      9  C   UNL     1      34.523 -21.963 -18.663  0.00  0.00    +0.224 C 
ATOM     10  C   UNL     1      33.105 -23.864 -13.761  0.00  0.00    +0.256 C 
ATOM     11  C   UNL     1      35.207 -23.532 -13.928  0.00  0.00    +0.205 C 
ENDROOT
BRANCH  10  15
ATOM     12  F   UNL     1      30.795 -24.147 -14.245  0.00  0.00    -0.163 F 
ATOM     13  F   UNL     1      31.616 -25.366 -12.642  0.00  0.00    -0.163 F 
ATOM     14  F   UNL     1      31.292 -23.245 -12.330  0.00  0.00    -0.163 F 
ATOM     15  C   UNL     1      31.746 -24.147 -13.258  0.00  0.00    +0.460 C 
ENDBRANCH  10  15
BRANCH  11  17
ATOM     16  O   UNL     1      37.545 -23.973 -14.097  0.00  0.00    -0.242 OA
ATOM     17  C   UNL     1      36.578 -23.421 -13.527  0.00  0.00    +0.369 C 
BRANCH  17  18
ATOM     18  O   UNL     1      36.738 -22.622 -12.417  0.00  0.00    -0.440 OA
ATOM     19  C   UNL     1      37.371 -23.197 -11.269  0.00  0.00    +0.256 C 
ENDBRANCH  17  18
ENDBRANCH  11  17
BRANCH   9  20
ATOM     20  C   UNL     1      35.848 -21.246 -18.744  0.00  0.00    +0.064 C 
BRANCH  20  21
ATOM     21  C   UNL     1      35.954 -20.394 -20.009  0.00  0.00    -0.052 C 
BRANCH  21  22
ATOM     22  N   UNL     1      37.163 -19.570 -19.877  0.00  0.00    +0.382 N 
ATOM     23  H   UNL     1      37.935 -20.016 -20.373  0.00  0.00    -0.089 HD
ATOM     24  H   UNL     1      37.403 -19.475 -18.890  0.00  0.00    -0.089 HD
ATOM     25  H   UNL     1      36.991 -18.648 -20.276  0.00  0.00    -0.089 HD
ENDBRANCH  21  22
BRANCH  21  26
ATOM     26  C   UNL     1      34.745 -19.457 -20.221  0.00  0.00    +0.007 C 
BRANCH  26  30
ATOM     27  F   UNL     1      35.488 -16.721 -20.305  0.00  0.00    -0.204 F 
ATOM     28  F   UNL     1      34.182 -19.094 -25.056  0.00  0.00    -0.202 F 
ATOM     29  F   UNL     1      34.915 -16.460 -24.994  0.00  0.00    -0.202 F 
ATOM     30  C   UNL     1      34.792 -18.652 -21.498  0.00  0.00    +0.006 C 
ATOM     31  C   UNL     1      35.166 -17.309 -21.466  0.00  0.00    +0.138 C 
ATOM     32  C   UNL     1      34.459 -19.255 -22.710  0.00  0.00    +0.030 C 
ATOM     33  C   UNL     1      34.501 -18.514 -23.892  0.00  0.00    +0.167 C 
ATOM     34  C   UNL     1      35.207 -16.568 -22.648  0.00  0.00    +0.061 C 
ATOM     35  C   UNL     1      34.875 -17.172 -23.860  0.00  0.00    +0.170 C 
ENDBRANCH  26  30
ENDBRANCH  21  26
ENDBRANCH  20  21
ENDBRANCH   9  20
TORSDOF 8
ENDMDL
MODEL 7
REMARK VINA RESULT:      -9.2     10.184     16.545
REMARK  Name = 44193830
REMARK  8 active torsions:
REMARK  status: ('A' for Active; 'I' for Inactive)
REMARK    1  A    between atoms: C_9  and  C_20
REMARK    2  A    between atoms: C_10  and  C_15
REMARK    3  A    between atoms: C_11  and  C_17
REMARK    4  A    between atoms: C_17  and  O_18
REMARK    5  A    between atoms: C_20  and  C_21
REMARK    6  A    between atoms: C_21  and  N_22
REMARK    7  A    between atoms: C_21  and  C_26
REMARK    8  A    between atoms: C_26  and  C_30
REMARK                            x       y       z     vdW  Elec       q    Type
REMARK                         _______ _______ _______ _____ _____    ______ ____
ROOT
ATOM      1  O   UNL     1      31.594 -10.443 -21.441  0.00  0.00    -0.275 OA
ATOM      2  N   UNL     1      32.561  -8.594 -22.471  0.00  0.00    -0.276 N 
ATOM      3  N   UNL     1      32.256  -5.845 -22.794  0.00  0.00    -0.272 N 
ATOM      4  N   UNL     1      32.796  -4.349 -24.327  0.00  0.00    -0.379 NA
ATOM      5  C   UNL     1      32.428  -7.747 -21.276  0.00  0.00    +0.115 C 
ATOM      6  C   UNL     1      31.691  -6.455 -21.611  0.00  0.00    +0.115 C 
ATOM      7  C   UNL     1      33.250  -7.992 -23.629  0.00  0.00    +0.121 C 
ATOM      8  C   UNL     1      32.964  -6.538 -23.740  0.00  0.00    +0.154 C 
ATOM      9  C   UNL     1      32.170  -9.934 -22.405  0.00  0.00    +0.224 C 
ATOM     10  C   UNL     1      32.177  -4.544 -23.182  0.00  0.00    +0.256 C 
ATOM     11  C   UNL     1      33.288  -5.583 -24.679  0.00  0.00    +0.205 C 
ENDROOT
BRANCH  10  15
ATOM     12  F   UNL     1      30.294  -3.107 -22.977  0.00  0.00    -0.163 F 
ATOM     13  F   UNL     1      31.115  -3.914 -21.133  0.00  0.00    -0.163 F 
ATOM     14  F   UNL     1      32.184  -2.361 -22.204  0.00  0.00    -0.163 F 
ATOM     15  C   UNL     1      31.467  -3.514 -22.397  0.00  0.00    +0.460 C 
ENDBRANCH  10  15
BRANCH  11  17
ATOM     16  O   UNL     1      35.262  -6.046 -25.935  0.00  0.00    -0.242 OA
ATOM     17  C   UNL     1      34.038  -5.792 -25.882  0.00  0.00    +0.369 C 
BRANCH  17  18
ATOM     18  O   UNL     1      33.260  -5.685 -27.013  0.00  0.00    -0.440 OA
ATOM     19  C   UNL     1      33.852  -6.047 -28.264  0.00  0.00    +0.256 C 
ENDBRANCH  17  18
ENDBRANCH  11  17
BRANCH   9  20
ATOM     20  C   UNL     1      32.482 -10.783 -23.613  0.00  0.00    +0.064 C 
BRANCH  20  21
ATOM     21  C   UNL     1      33.644 -11.740 -23.346  0.00  0.00    -0.052 C 
BRANCH  21  22
ATOM     22  N   UNL     1      34.842 -11.147 -23.954  0.00  0.00    +0.382 N 
ATOM     23  H   UNL     1      35.103 -10.306 -23.440  0.00  0.00    -0.089 HD
ATOM     24  H   UNL     1      34.646 -10.905 -24.925  0.00  0.00    -0.089 HD
ATOM     25  H   UNL     1      35.609 -11.818 -23.918  0.00  0.00    -0.089 HD
ENDBRANCH  21  22
BRANCH  21  26
ATOM     26  C   UNL     1      33.433 -13.145 -23.952  0.00  0.00    +0.007 C 
BRANCH  26  30
ATOM     27  F   UNL     1      34.338 -15.575 -25.102  0.00  0.00    -0.204 F 
ATOM     28  F   UNL     1      34.810 -15.059 -19.677  0.00  0.00    -0.202 F 
ATOM     29  F   UNL     1      35.643 -17.352 -20.916  0.00  0.00    -0.202 F 
ATOM     30  C   UNL     1      34.026 -14.273 -23.141  0.00  0.00    +0.006 C 
ATOM     31  C   UNL     1      34.450 -15.442 -23.772  0.00  0.00    +0.138 C 
ATOM     32  C   UNL     1      34.147 -14.144 -21.758  0.00  0.00    +0.030 C 
ATOM     33  C   UNL     1      34.694 -15.184 -21.006  0.00  0.00    +0.167 C 
ATOM     34  C   UNL     1      34.997 -16.482 -23.020  0.00  0.00    +0.061 C 
ATOM     35  C   UNL     1      35.118 -16.352 -21.637  0.00  0.00    +0.170 C 
ENDBRANCH  26  30
ENDBRANCH  21  26
ENDBRANCH  20  21
ENDBRANCH   9  20
TORSDOF 8
ENDMDL
MODEL 8
REMARK VINA RESULT:      -9.0      1.855      2.186
REMARK  Name = 44193830
REMARK  8 active torsions:
REMARK  status: ('A' for Active; 'I' for Inactive)
REMARK    1  A    between atoms: C_9  and  C_20
REMARK    2  A    between atoms: C_10  and  C_15
REMARK    3  A    between atoms: C_11  and  C_17
REMARK    4  A    between atoms: C_17  and  O_18
REMARK    5  A    between atoms: C_20  and  C_21
REMARK    6  A    between atoms: C_21  and  N_22
REMARK    7  A    between atoms: C_21  and  C_26
REMARK    8  A    between atoms: C_26  and  C_30
REMARK                            x       y       z     vdW  Elec       q    Type
REMARK                         _______ _______ _______ _____ _____    ______ ____
ROOT
ATOM      1  O   UNL     1      36.581 -22.157 -17.947  0.00  0.00    -0.275 OA
ATOM      2  N   UNL     1      35.190 -22.582 -16.130  0.00  0.00    -0.276 N 
ATOM      3  N   UNL     1      35.162 -23.769 -13.611  0.00  0.00    -0.272 N 
ATOM      4  N   UNL     1      33.650 -24.720 -12.312  0.00  0.00    -0.379 NA
ATOM      5  C   UNL     1      36.208 -22.186 -15.145  0.00  0.00    +0.115 C 
ATOM      6  C   UNL     1      36.429 -23.295 -14.123  0.00  0.00    +0.115 C 
ATOM      7  C   UNL     1      33.864 -22.946 -15.594  0.00  0.00    +0.121 C 
ATOM      8  C   UNL     1      33.974 -23.629 -14.279  0.00  0.00    +0.154 C 
ATOM      9  C   UNL     1      35.475 -22.461 -17.492  0.00  0.00    +0.224 C 
ATOM     10  C   UNL     1      34.925 -24.426 -12.443  0.00  0.00    +0.256 C 
ATOM     11  C   UNL     1      33.052 -24.228 -13.448  0.00  0.00    +0.205 C 
ENDROOT
BRANCH  10  15
ATOM     12  F   UNL     1      35.514 -25.157 -10.259  0.00  0.00    -0.163 F 
ATOM     13  F   UNL     1      36.820 -25.775 -11.884  0.00  0.00    -0.163 F 
ATOM     14  F   UNL     1      36.842 -23.717 -11.201  0.00  0.00    -0.163 F 
ATOM     15  C   UNL     1      35.994 -24.758 -11.479  0.00  0.00    +0.460 C 
ENDBRANCH  10  15
BRANCH  11  17
ATOM     16  O   UNL     1      31.026 -25.425 -13.832  0.00  0.00    -0.242 OA
ATOM     17  C   UNL     1      31.645 -24.348 -13.685  0.00  0.00    +0.369 C 
BRANCH  17  18
ATOM     18  O   UNL     1      31.014 -23.125 -13.739  0.00  0.00    -0.440 OA
ATOM     19  C   UNL     1      29.813 -23.029 -14.511  0.00  0.00    +0.256 C 
ENDBRANCH  17  18
ENDBRANCH  11  17
BRANCH   9  20
ATOM     20  C   UNL     1      34.334 -22.732 -18.442  0.00  0.00    +0.064 C 
BRANCH  20  21
ATOM     21  C   UNL     1      33.464 -21.492 -18.648  0.00  0.00    -0.052 C 
BRANCH  21  22
ATOM     22  N   UNL     1      32.115 -21.825 -18.171  0.00  0.00    +0.382 N 
ATOM     23  H   UNL     1      32.086 -21.750 -17.154  0.00  0.00    -0.089 HD
ATOM     24  H   UNL     1      31.882 -22.779 -18.449  0.00  0.00    -0.089 HD
ATOM     25  H   UNL     1      31.441 -21.178 -18.579  0.00  0.00    -0.089 HD
ENDBRANCH  21  22
BRANCH  21  26
ATOM     26  C   UNL     1      33.364 -21.050 -20.125  0.00  0.00    +0.007 C 
BRANCH  26  30
ATOM     27  F   UNL     1      33.387 -19.715 -22.627  0.00  0.00    -0.204 F 
ATOM     28  F   UNL     1      37.865 -19.260 -19.521  0.00  0.00    -0.202 F 
ATOM     29  F   UNL     1      37.754 -18.024 -21.958  0.00  0.00    -0.202 F 
ATOM     30  C   UNL     1      34.538 -20.239 -20.618  0.00  0.00    +0.006 C 
ATOM     31  C   UNL     1      34.481 -19.608 -21.861  0.00  0.00    +0.138 C 
ATOM     32  C   UNL     1      35.681 -20.122 -19.828  0.00  0.00    +0.030 C 
ATOM     33  C   UNL     1      36.767 -19.373 -20.280  0.00  0.00    +0.167 C 
ATOM     34  C   UNL     1      35.568 -18.860 -22.313  0.00  0.00    +0.061 C 
ATOM     35  C   UNL     1      36.710 -18.743 -21.523  0.00  0.00    +0.170 C 
ENDBRANCH  26  30
ENDBRANCH  21  26
ENDBRANCH  20  21
ENDBRANCH   9  20
TORSDOF 8
ENDMDL
MODEL 9
REMARK VINA RESULT:      -8.9     10.705     17.063
REMARK  Name = 44193830
REMARK  8 active torsions:
REMARK  status: ('A' for Active; 'I' for Inactive)
REMARK    1  A    between atoms: C_9  and  C_20
REMARK    2  A    between atoms: C_10  and  C_15
REMARK    3  A    between atoms: C_11  and  C_17
REMARK    4  A    between atoms: C_17  and  O_18
REMARK    5  A    between atoms: C_20  and  C_21
REMARK    6  A    between atoms: C_21  and  N_22
REMARK    7  A    between atoms: C_21  and  C_26
REMARK    8  A    between atoms: C_26  and  C_30
REMARK                            x       y       z     vdW  Elec       q    Type
REMARK                         _______ _______ _______ _____ _____    ______ ____
ROOT
ATOM      1  O   UNL     1      31.648  -9.762 -21.225  0.00  0.00    -0.275 OA
ATOM      2  N   UNL     1      32.489  -7.870 -22.287  0.00  0.00    -0.276 N 
ATOM      3  N   UNL     1      31.988  -5.158 -22.674  0.00  0.00    -0.272 N 
ATOM      4  N   UNL     1      32.433  -3.660 -24.234  0.00  0.00    -0.379 NA
ATOM      5  C   UNL     1      32.281  -7.010 -21.112  0.00  0.00    +0.115 C 
ATOM      6  C   UNL     1      31.456  -5.783 -21.483  0.00  0.00    +0.115 C 
ATOM      7  C   UNL     1      33.144  -7.245 -23.452  0.00  0.00    +0.121 C 
ATOM      8  C   UNL     1      32.755  -5.818 -23.598  0.00  0.00    +0.154 C 
ATOM      9  C   UNL     1      32.195  -9.233 -22.195  0.00  0.00    +0.224 C 
ATOM     10  C   UNL     1      31.818  -3.875 -23.092  0.00  0.00    +0.256 C 
ATOM     11  C   UNL     1      33.018  -4.863 -24.555  0.00  0.00    +0.205 C 
ENDROOT
BRANCH  10  15
ATOM     12  F   UNL     1      31.799  -1.927 -21.729  0.00  0.00    -0.163 F 
ATOM     13  F   UNL     1      30.129  -2.181 -23.098  0.00  0.00    -0.163 F 
ATOM     14  F   UNL     1      30.272  -3.421 -21.325  0.00  0.00    -0.163 F 
ATOM     15  C   UNL     1      31.027  -2.884 -22.336  0.00  0.00    +0.460 C 
ENDBRANCH  10  15
BRANCH  11  17
ATOM     16  O   UNL     1      34.940  -4.578 -25.938  0.00  0.00    -0.242 OA
ATOM     17  C   UNL     1      33.794  -5.042 -25.746  0.00  0.00    +0.369 C 
BRANCH  17  18
ATOM     18  O   UNL     1      33.140  -5.800 -26.691  0.00  0.00    -0.440 OA
ATOM     19  C   UNL     1      33.709  -5.864 -28.003  0.00  0.00    +0.256 C 
ENDBRANCH  17  18
ENDBRANCH  11  17
BRANCH   9  20
ATOM     20  C   UNL     1      32.581 -10.083 -23.381  0.00  0.00    +0.064 C 
BRANCH  20  21
ATOM     21  C   UNL     1      33.464 -11.261 -22.968  0.00  0.00    -0.052 C 
BRANCH  21  22
ATOM     22  N   UNL     1      34.596 -11.302 -23.902  0.00  0.00    +0.382 N 
ATOM     23  H   UNL     1      35.217 -10.513 -23.720  0.00  0.00    -0.089 HD
ATOM     24  H   UNL     1      34.250 -11.247 -24.860  0.00  0.00    -0.089 HD
ATOM     25  H   UNL     1      35.110 -12.174 -23.777  0.00  0.00    -0.089 HD
ENDBRANCH  21  22
BRANCH  21  26
ATOM     26  C   UNL     1      32.737 -12.623 -23.024  0.00  0.00    +0.007 C 
BRANCH  26  30
ATOM     27  F   UNL     1      32.963 -12.951 -20.216  0.00  0.00    -0.204 F 
ATOM     28  F   UNL     1      35.415 -16.690 -23.366  0.00  0.00    -0.202 F 
ATOM     29  F   UNL     1      35.555 -16.886 -20.642  0.00  0.00    -0.202 F 
ATOM     30  C   UNL     1      33.490 -13.763 -22.384  0.00  0.00    +0.006 C 
ATOM     31  C   UNL     1      33.562 -13.864 -20.994  0.00  0.00    +0.138 C 
ATOM     32  C   UNL     1      34.116 -14.718 -23.185  0.00  0.00    +0.030 C 
ATOM     33  C   UNL     1      34.814 -15.773 -22.596  0.00  0.00    +0.167 C 
ATOM     34  C   UNL     1      34.260 -14.919 -20.406  0.00  0.00    +0.061 C 
ATOM     35  C   UNL     1      34.885 -15.873 -21.208  0.00  0.00    +0.170 C 
ENDBRANCH  26  30
ENDBRANCH  21  26
ENDBRANCH  20  21
ENDBRANCH   9  20
TORSDOF 8
ENDMDL
