MODEL 1
REMARK VINA RESULT:     -10.3      0.000      0.000
REMARK  Name = 21066096
REMARK  4 active torsions:
REMARK  status: ('A' for Active; 'I' for Inactive)
REMARK    1  A    between atoms: C_4  and  N_17
REMARK    2  A    between atoms: C_6  and  C_11
REMARK    3  A    between atoms: N_17  and  C_19
REMARK    4  A    between atoms: C_19  and  C_21
REMARK                            x       y       z     vdW  Elec       q    Type
REMARK                         _______ _______ _______ _____ _____    ______ ____
ROOT
ATOM      1  N   UNL     1      31.934 -23.864 -14.944  0.00  0.00    -0.152 N 
ATOM      2  N   UNL     1      33.168 -24.599 -13.011  0.00  0.00    -0.389 NA
ATOM      3  N   UNL     1      30.654 -23.841 -15.413  0.00  0.00    -0.174 NA
ATOM      4  C   UNL     1      33.090 -23.380 -15.578  0.00  0.00    +0.126 C 
ATOM      5  C   UNL     1      31.994 -24.463 -13.684  0.00  0.00    +0.190 C 
ATOM      6  C   UNL     1      34.238 -24.138 -13.592  0.00  0.00    +0.137 C 
ATOM      7  C   UNL     1      34.268 -23.497 -14.943  0.00  0.00    +0.064 C 
ATOM      8  C   UNL     1      30.707 -24.826 -13.361  0.00  0.00    +0.125 C 
ATOM      9  C   UNL     1      29.933 -24.420 -14.455  0.00  0.00    +0.101 C 
ENDROOT
BRANCH   6  11
ATOM     10  F   UNL     1      36.183 -26.065 -14.297  0.00  0.00    -0.204 F 
ATOM     11  C   UNL     1      35.543 -24.261 -12.889  0.00  0.00    +0.057 C 
ATOM     12  C   UNL     1      36.463 -25.233 -13.284  0.00  0.00    +0.143 C 
ATOM     13  C   UNL     1      35.847 -23.400 -11.834  0.00  0.00    +0.005 C 
ATOM     14  C   UNL     1      37.686 -25.344 -12.623  0.00  0.00    +0.030 C 
ATOM     15  C   UNL     1      37.070 -23.512 -11.173  0.00  0.00    +0.000 C 
ATOM     16  C   UNL     1      37.990 -24.484 -11.568  0.00  0.00    +0.002 C 
ENDBRANCH   6  11
BRANCH   4  17
ATOM     17  N   UNL     1      32.943 -22.823 -16.817  0.00  0.00    -0.316 N 
ATOM     18  H   UNL     1      32.308 -22.078 -16.922  0.00  0.00    +0.148 HD
BRANCH  17  19
ATOM     19  C   UNL     1      33.670 -23.270 -17.975  0.00  0.00    +0.115 C 
BRANCH  19  21
ATOM     20  N   UNL     1      35.118 -19.912 -20.235  0.00  0.00    -0.242 NA
ATOM     21  C   UNL     1      34.176 -22.096 -18.766  0.00  0.00    +0.000 C 
ATOM     22  C   UNL     1      33.282 -21.267 -19.436  0.00  0.00    +0.018 C 
ATOM     23  C   UNL     1      35.540 -21.833 -18.829  0.00  0.00    +0.018 C 
ATOM     24  C   UNL     1      33.800 -20.198 -20.149  0.00  0.00    +0.099 C 
ATOM     25  C   UNL     1      35.957 -20.739 -19.571  0.00  0.00    +0.099 C 
ENDBRANCH  19  21
ENDBRANCH  17  19
ENDBRANCH   4  17
TORSDOF 4
ENDMDL
MODEL 2
REMARK VINA RESULT:     -10.2      1.972      5.001
REMARK  Name = 21066096
REMARK  4 active torsions:
REMARK  status: ('A' for Active; 'I' for Inactive)
REMARK    1  A    between atoms: C_4  and  N_17
REMARK    2  A    between atoms: C_6  and  C_11
REMARK    3  A    between atoms: N_17  and  C_19
REMARK    4  A    between atoms: C_19  and  C_21
REMARK                            x       y       z     vdW  Elec       q    Type
REMARK                         _______ _______ _______ _____ _____    ______ ____
ROOT
ATOM      1  N   UNL     1      35.362 -23.128 -15.738  0.00  0.00    -0.152 N 
ATOM      2  N   UNL     1      33.476 -23.758 -14.381  0.00  0.00    -0.389 NA
ATOM      3  N   UNL     1      36.718 -23.019 -15.645  0.00  0.00    -0.174 NA
ATOM      4  C   UNL     1      34.552 -22.848 -16.850  0.00  0.00    +0.126 C 
ATOM      5  C   UNL     1      34.814 -23.571 -14.532  0.00  0.00    +0.190 C 
ATOM      6  C   UNL     1      32.724 -23.513 -15.416  0.00  0.00    +0.137 C 
ATOM      7  C   UNL     1      33.224 -23.022 -16.737  0.00  0.00    +0.064 C 
ATOM      8  C   UNL     1      35.866 -23.741 -13.662  0.00  0.00    +0.125 C 
ATOM      9  C   UNL     1      37.003 -23.389 -14.398  0.00  0.00    +0.101 C 
ENDROOT
BRANCH   6  11
ATOM     10  F   UNL     1      31.577 -25.550 -13.827  0.00  0.00    -0.204 F 
ATOM     11  C   UNL     1      31.255 -23.710 -15.296  0.00  0.00    +0.057 C 
ATOM     12  C   UNL     1      30.749 -24.735 -14.495  0.00  0.00    +0.143 C 
ATOM     13  C   UNL     1      30.383 -22.867 -15.985  0.00  0.00    +0.005 C 
ATOM     14  C   UNL     1      29.370 -24.916 -14.384  0.00  0.00    +0.030 C 
ATOM     15  C   UNL     1      29.004 -23.049 -15.874  0.00  0.00    +0.000 C 
ATOM     16  C   UNL     1      28.498 -24.073 -15.073  0.00  0.00    +0.002 C 
ENDBRANCH   6  11
BRANCH   4  17
ATOM     17  N   UNL     1      35.170 -22.403 -17.984  0.00  0.00    -0.316 N 
ATOM     18  H   UNL     1      36.152 -22.346 -17.989  0.00  0.00    +0.148 HD
BRANCH  17  19
ATOM     19  C   UNL     1      34.456 -22.014 -19.171  0.00  0.00    +0.115 C 
BRANCH  19  21
ATOM     20  N   UNL     1      36.271 -18.548 -20.953  0.00  0.00    -0.242 NA
ATOM     21  C   UNL     1      35.091 -20.802 -19.794  0.00  0.00    +0.000 C 
ATOM     22  C   UNL     1      36.447 -20.552 -19.612  0.00  0.00    +0.018 C 
ATOM     23  C   UNL     1      34.325 -19.925 -20.555  0.00  0.00    +0.018 C 
ATOM     24  C   UNL     1      36.984 -19.422 -20.208  0.00  0.00    +0.099 C 
ATOM     25  C   UNL     1      34.957 -18.823 -21.108  0.00  0.00    +0.099 C 
ENDBRANCH  19  21
ENDBRANCH  17  19
ENDBRANCH   4  17
TORSDOF 4
ENDMDL
MODEL 3
REMARK VINA RESULT:     -10.2      1.979      6.377
REMARK  Name = 21066096
REMARK  4 active torsions:
REMARK  status: ('A' for Active; 'I' for Inactive)
REMARK    1  A    between atoms: C_4  and  N_17
REMARK    2  A    between atoms: C_6  and  C_11
REMARK    3  A    between atoms: N_17  and  C_19
REMARK    4  A    between atoms: C_19  and  C_21
REMARK                            x       y       z     vdW  Elec       q    Type
REMARK                         _______ _______ _______ _____ _____    ______ ____
ROOT
ATOM      1  N   UNL     1      32.155 -23.731 -15.344  0.00  0.00    -0.152 N 
ATOM      2  N   UNL     1      31.907 -22.412 -17.344  0.00  0.00    -0.389 NA
ATOM      3  N   UNL     1      31.383 -24.342 -14.401  0.00  0.00    -0.174 NA
ATOM      4  C   UNL     1      33.557 -23.697 -15.417  0.00  0.00    +0.126 C 
ATOM      5  C   UNL     1      31.362 -23.090 -16.299  0.00  0.00    +0.190 C 
ATOM      6  C   UNL     1      33.207 -22.391 -17.421  0.00  0.00    +0.137 C 
ATOM      7  C   UNL     1      34.131 -23.036 -16.436  0.00  0.00    +0.064 C 
ATOM      8  C   UNL     1      30.054 -23.310 -15.934  0.00  0.00    +0.125 C 
ATOM      9  C   UNL     1      30.130 -24.081 -14.768  0.00  0.00    +0.101 C 
ENDROOT
BRANCH   6  11
ATOM     10  F   UNL     1      35.999 -22.398 -17.862  0.00  0.00    -0.204 F 
ATOM     11  C   UNL     1      33.846 -21.666 -18.551  0.00  0.00    +0.057 C 
ATOM     12  C   UNL     1      35.231 -21.707 -18.716  0.00  0.00    +0.143 C 
ATOM     13  C   UNL     1      33.057 -20.945 -19.447  0.00  0.00    +0.005 C 
ATOM     14  C   UNL     1      35.826 -21.026 -19.778  0.00  0.00    +0.030 C 
ATOM     15  C   UNL     1      33.653 -20.264 -20.509  0.00  0.00    +0.000 C 
ATOM     16  C   UNL     1      35.038 -20.305 -20.675  0.00  0.00    +0.002 C 
ENDBRANCH   6  11
BRANCH   4  17
ATOM     17  N   UNL     1      34.255 -24.337 -14.433  0.00  0.00    -0.316 N 
ATOM     18  H   UNL     1      33.897 -25.183 -14.080  0.00  0.00    +0.148 HD
BRANCH  17  19
ATOM     19  C   UNL     1      35.488 -23.835 -13.885  0.00  0.00    +0.115 C 
BRANCH  19  21
ATOM     20  N   UNL     1      38.559 -26.836 -14.100  0.00  0.00    -0.242 NA
ATOM     21  C   UNL     1      36.562 -24.884 -13.960  0.00  0.00    +0.000 C 
ATOM     22  C   UNL     1      37.782 -24.682 -13.324  0.00  0.00    +0.018 C 
ATOM     23  C   UNL     1      36.340 -26.063 -14.665  0.00  0.00    +0.018 C 
ATOM     24  C   UNL     1      38.739 -25.679 -13.423  0.00  0.00    +0.099 C 
ATOM     25  C   UNL     1      37.361 -26.998 -14.704  0.00  0.00    +0.099 C 
ENDBRANCH  19  21
ENDBRANCH  17  19
ENDBRANCH   4  17
TORSDOF 4
ENDMDL
MODEL 4
REMARK VINA RESULT:     -10.1      5.816      9.366
REMARK  Name = 21066096
REMARK  4 active torsions:
REMARK  status: ('A' for Active; 'I' for Inactive)
REMARK    1  A    between atoms: C_4  and  N_17
REMARK    2  A    between atoms: C_6  and  C_11
REMARK    3  A    between atoms: N_17  and  C_19
REMARK    4  A    between atoms: C_19  and  C_21
REMARK                            x       y       z     vdW  Elec       q    Type
REMARK                         _______ _______ _______ _____ _____    ______ ____
ROOT
ATOM      1  N   UNL     1      34.697 -17.417 -22.916  0.00  0.00    -0.152 N 
ATOM      2  N   UNL     1      34.555 -19.736 -22.286  0.00  0.00    -0.389 NA
ATOM      3  N   UNL     1      34.526 -16.626 -24.013  0.00  0.00    -0.174 NA
ATOM      4  C   UNL     1      35.075 -17.021 -21.623  0.00  0.00    +0.126 C 
ATOM      5  C   UNL     1      34.449 -18.756 -23.223  0.00  0.00    +0.190 C 
ATOM      6  C   UNL     1      34.892 -19.370 -21.082  0.00  0.00    +0.137 C 
ATOM      7  C   UNL     1      35.190 -17.962 -20.671  0.00  0.00    +0.064 C 
ATOM      8  C   UNL     1      34.114 -18.798 -24.556  0.00  0.00    +0.125 C 
ATOM      9  C   UNL     1      34.177 -17.467 -24.985  0.00  0.00    +0.101 C 
ENDROOT
BRANCH   6  11
ATOM     10  F   UNL     1      32.666 -20.774 -20.054  0.00  0.00    -0.204 F 
ATOM     11  C   UNL     1      35.013 -20.408 -20.025  0.00  0.00    +0.057 C 
ATOM     12  C   UNL     1      33.876 -21.068 -19.558  0.00  0.00    +0.143 C 
ATOM     13  C   UNL     1      36.267 -20.723 -19.502  0.00  0.00    +0.005 C 
ATOM     14  C   UNL     1      33.993 -22.043 -18.567  0.00  0.00    +0.030 C 
ATOM     15  C   UNL     1      36.385 -21.698 -18.511  0.00  0.00    +0.000 C 
ATOM     16  C   UNL     1      35.248 -22.358 -18.044  0.00  0.00    +0.002 C 
ENDBRANCH   6  11
BRANCH   4  17
ATOM     17  N   UNL     1      35.315 -15.692 -21.415  0.00  0.00    -0.316 N 
ATOM     18  H   UNL     1      35.973 -15.240 -21.990  0.00  0.00    +0.148 HD
BRANCH  17  19
ATOM     19  C   UNL     1      34.652 -14.921 -20.397  0.00  0.00    +0.115 C 
BRANCH  19  21
ATOM     20  N   UNL     1      31.898 -12.138 -22.172  0.00  0.00    -0.242 NA
ATOM     21  C   UNL     1      33.689 -13.948 -21.017  0.00  0.00    +0.000 C 
ATOM     22  C   UNL     1      32.566 -13.529 -20.311  0.00  0.00    +0.018 C 
ATOM     23  C   UNL     1      33.916 -13.461 -22.300  0.00  0.00    +0.018 C 
ATOM     24  C   UNL     1      31.710 -12.631 -20.927  0.00  0.00    +0.099 C 
ATOM     25  C   UNL     1      32.999 -12.567 -22.828  0.00  0.00    +0.099 C 
ENDBRANCH  19  21
ENDBRANCH  17  19
ENDBRANCH   4  17
TORSDOF 4
ENDMDL
MODEL 5
REMARK VINA RESULT:     -10.1      2.173      6.579
REMARK  Name = 21066096
REMARK  4 active torsions:
REMARK  status: ('A' for Active; 'I' for Inactive)
REMARK    1  A    between atoms: C_4  and  N_17
REMARK    2  A    between atoms: C_6  and  C_11
REMARK    3  A    between atoms: N_17  and  C_19
REMARK    4  A    between atoms: C_19  and  C_21
REMARK                            x       y       z     vdW  Elec       q    Type
REMARK                         _______ _______ _______ _____ _____    ______ ____
ROOT
ATOM      1  N   UNL     1      34.916 -22.436 -17.259  0.00  0.00    -0.152 N 
ATOM      2  N   UNL     1      32.547 -22.805 -17.486  0.00  0.00    -0.389 NA
ATOM      3  N   UNL     1      35.981 -22.033 -18.008  0.00  0.00    -0.174 NA
ATOM      4  C   UNL     1      34.912 -22.819 -15.908  0.00  0.00    +0.126 C 
ATOM      5  C   UNL     1      33.745 -22.439 -18.018  0.00  0.00    +0.190 C 
ATOM      6  C   UNL     1      32.539 -23.146 -16.230  0.00  0.00    +0.137 C 
ATOM      7  C   UNL     1      33.747 -23.186 -15.348  0.00  0.00    +0.064 C 
ATOM      8  C   UNL     1      34.095 -22.025 -19.283  0.00  0.00    +0.125 C 
ATOM      9  C   UNL     1      35.474 -21.790 -19.215  0.00  0.00    +0.101 C 
ENDROOT
BRANCH   6  11
ATOM     10  F   UNL     1      32.374 -25.040 -14.139  0.00  0.00    -0.204 F 
ATOM     11  C   UNL     1      31.250 -23.548 -15.606  0.00  0.00    +0.057 C 
ATOM     12  C   UNL     1      31.234 -24.489 -14.576  0.00  0.00    +0.143 C 
ATOM     13  C   UNL     1      30.057 -22.979 -16.051  0.00  0.00    +0.005 C 
ATOM     14  C   UNL     1      30.023 -24.862 -13.992  0.00  0.00    +0.030 C 
ATOM     15  C   UNL     1      28.846 -23.352 -15.467  0.00  0.00    +0.000 C 
ATOM     16  C   UNL     1      28.830 -24.293 -14.437  0.00  0.00    +0.002 C 
ENDBRANCH   6  11
BRANCH   4  17
ATOM     17  N   UNL     1      36.106 -22.803 -15.244  0.00  0.00    -0.316 N 
ATOM     18  H   UNL     1      36.874 -22.363 -15.675  0.00  0.00    +0.148 HD
BRANCH  17  19
ATOM     19  C   UNL     1      36.296 -23.395 -13.946  0.00  0.00    +0.115 C 
BRANCH  19  21
ATOM     20  N   UNL     1      38.360 -27.150 -14.293  0.00  0.00    -0.242 NA
ATOM     21  C   UNL     1      37.018 -24.708 -14.067  0.00  0.00    +0.000 C 
ATOM     22  C   UNL     1      38.360 -24.803 -13.713  0.00  0.00    +0.018 C 
ATOM     23  C   UNL     1      36.347 -25.833 -14.534  0.00  0.00    +0.018 C 
ATOM     24  C   UNL     1      38.979 -26.035 -13.843  0.00  0.00    +0.099 C 
ATOM     25  C   UNL     1      37.057 -27.020 -14.627  0.00  0.00    +0.099 C 
ENDBRANCH  19  21
ENDBRANCH  17  19
ENDBRANCH   4  17
TORSDOF 4
ENDMDL
MODEL 6
REMARK VINA RESULT:     -10.1      2.297      6.884
REMARK  Name = 21066096
REMARK  4 active torsions:
REMARK  status: ('A' for Active; 'I' for Inactive)
REMARK    1  A    between atoms: C_4  and  N_17
REMARK    2  A    between atoms: C_6  and  C_11
REMARK    3  A    between atoms: N_17  and  C_19
REMARK    4  A    between atoms: C_19  and  C_21
REMARK                            x       y       z     vdW  Elec       q    Type
REMARK                         _______ _______ _______ _____ _____    ______ ____
ROOT
ATOM      1  N   UNL     1      35.636 -23.763 -14.934  0.00  0.00    -0.152 N 
ATOM      2  N   UNL     1      36.317 -22.402 -16.800  0.00  0.00    -0.389 NA
ATOM      3  N   UNL     1      36.176 -24.366 -13.837  0.00  0.00    -0.174 NA
ATOM      4  C   UNL     1      34.295 -23.778 -15.349  0.00  0.00    +0.126 C 
ATOM      5  C   UNL     1      36.615 -23.084 -15.662  0.00  0.00    +0.190 C 
ATOM      6  C   UNL     1      35.071 -22.403 -17.180  0.00  0.00    +0.137 C 
ATOM      7  C   UNL     1      33.962 -23.114 -16.470  0.00  0.00    +0.064 C 
ATOM      8  C   UNL     1      37.803 -23.274 -14.995  0.00  0.00    +0.125 C 
ATOM      9  C   UNL     1      37.472 -24.064 -13.888  0.00  0.00    +0.101 C 
ENDROOT
BRANCH   6  11
ATOM     10  F   UNL     1      36.986 -21.259 -18.915  0.00  0.00    -0.204 F 
ATOM     11  C   UNL     1      34.699 -21.665 -18.416  0.00  0.00    +0.057 C 
ATOM     12  C   UNL     1      35.691 -21.122 -19.233  0.00  0.00    +0.143 C 
ATOM     13  C   UNL     1      33.354 -21.517 -18.758  0.00  0.00    +0.005 C 
ATOM     14  C   UNL     1      35.338 -20.432 -20.392  0.00  0.00    +0.030 C 
ATOM     15  C   UNL     1      33.002 -20.826 -19.917  0.00  0.00    +0.000 C 
ATOM     16  C   UNL     1      33.994 -20.284 -20.735  0.00  0.00    +0.002 C 
ENDBRANCH   6  11
BRANCH   4  17
ATOM     17  N   UNL     1      33.406 -24.480 -14.586  0.00  0.00    -0.316 N 
ATOM     18  H   UNL     1      33.364 -25.457 -14.698  0.00  0.00    +0.148 HD
BRANCH  17  19
ATOM     19  C   UNL     1      32.528 -23.863 -13.627  0.00  0.00    +0.115 C 
BRANCH  19  21
ATOM     20  N   UNL     1      28.439 -24.158 -14.922  0.00  0.00    -0.242 NA
ATOM     21  C   UNL     1      31.098 -23.966 -14.080  0.00  0.00    +0.000 C 
ATOM     22  C   UNL     1      30.473 -22.874 -14.673  0.00  0.00    +0.018 C 
ATOM     23  C   UNL     1      30.395 -25.154 -13.909  0.00  0.00    +0.018 C 
ATOM     24  C   UNL     1      29.155 -23.021 -15.073  0.00  0.00    +0.099 C 
ATOM     25  C   UNL     1      29.080 -25.198 -14.343  0.00  0.00    +0.099 C 
ENDBRANCH  19  21
ENDBRANCH  17  19
ENDBRANCH   4  17
TORSDOF 4
ENDMDL
MODEL 7
REMARK VINA RESULT:     -10.1      1.827      6.674
REMARK  Name = 21066096
REMARK  4 active torsions:
REMARK  status: ('A' for Active; 'I' for Inactive)
REMARK    1  A    between atoms: C_4  and  N_17
REMARK    2  A    between atoms: C_6  and  C_11
REMARK    3  A    between atoms: N_17  and  C_19
REMARK    4  A    between atoms: C_19  and  C_21
REMARK                            x       y       z     vdW  Elec       q    Type
REMARK                         _______ _______ _______ _____ _____    ______ ____
ROOT
ATOM      1  N   UNL     1      32.272 -23.723 -15.441  0.00  0.00    -0.152 N 
ATOM      2  N   UNL     1      31.979 -22.334 -17.386  0.00  0.00    -0.389 NA
ATOM      3  N   UNL     1      31.524 -24.343 -14.485  0.00  0.00    -0.174 NA
ATOM      4  C   UNL     1      33.670 -23.722 -15.571  0.00  0.00    +0.126 C 
ATOM      5  C   UNL     1      31.459 -23.031 -16.340  0.00  0.00    +0.190 C 
ATOM      6  C   UNL     1      33.274 -22.344 -17.516  0.00  0.00    +0.137 C 
ATOM      7  C   UNL     1      34.220 -23.044 -16.592  0.00  0.00    +0.064 C 
ATOM      8  C   UNL     1      30.161 -23.229 -15.928  0.00  0.00    +0.125 C 
ATOM      9  C   UNL     1      30.264 -24.038 -14.791  0.00  0.00    +0.101 C 
ENDROOT
BRANCH   6  11
ATOM     10  F   UNL     1      36.059 -22.304 -17.998  0.00  0.00    -0.204 F 
ATOM     11  C   UNL     1      33.885 -21.599 -18.649  0.00  0.00    +0.057 C 
ATOM     12  C   UNL     1      35.268 -21.617 -18.835  0.00  0.00    +0.143 C 
ATOM     13  C   UNL     1      33.073 -20.882 -19.527  0.00  0.00    +0.005 C 
ATOM     14  C   UNL     1      35.838 -20.919 -19.899  0.00  0.00    +0.030 C 
ATOM     15  C   UNL     1      33.642 -20.183 -20.591  0.00  0.00    +0.000 C 
ATOM     16  C   UNL     1      35.025 -20.201 -20.777  0.00  0.00    +0.002 C 
ENDBRANCH   6  11
BRANCH   4  17
ATOM     17  N   UNL     1      34.391 -24.411 -14.637  0.00  0.00    -0.316 N 
ATOM     18  H   UNL     1      33.902 -24.935 -13.963  0.00  0.00    +0.148 HD
BRANCH  17  19
ATOM     19  C   UNL     1      35.829 -24.409 -14.590  0.00  0.00    +0.115 C 
BRANCH  19  21
ATOM     20  N   UNL     1      37.201 -24.398 -10.515  0.00  0.00    -0.242 NA
ATOM     21  C   UNL     1      36.309 -24.405 -13.165  0.00  0.00    +0.000 C 
ATOM     22  C   UNL     1      37.670 -24.328 -12.886  0.00  0.00    +0.018 C 
ATOM     23  C   UNL     1      35.395 -24.479 -12.120  0.00  0.00    +0.018 C 
ATOM     24  C   UNL     1      38.060 -24.327 -11.557  0.00  0.00    +0.099 C 
ATOM     25  C   UNL     1      35.887 -24.472 -10.825  0.00  0.00    +0.099 C 
ENDBRANCH  19  21
ENDBRANCH  17  19
ENDBRANCH   4  17
TORSDOF 4
ENDMDL
MODEL 8
REMARK VINA RESULT:     -10.1      2.538      6.585
REMARK  Name = 21066096
REMARK  4 active torsions:
REMARK  status: ('A' for Active; 'I' for Inactive)
REMARK    1  A    between atoms: C_4  and  N_17
REMARK    2  A    between atoms: C_6  and  C_11
REMARK    3  A    between atoms: N_17  and  C_19
REMARK    4  A    between atoms: C_19  and  C_21
REMARK                            x       y       z     vdW  Elec       q    Type
REMARK                         _______ _______ _______ _____ _____    ______ ____
ROOT
ATOM      1  N   UNL     1      34.798 -22.484 -17.258  0.00  0.00    -0.152 N 
ATOM      2  N   UNL     1      32.447 -22.991 -17.379  0.00  0.00    -0.389 NA
ATOM      3  N   UNL     1      35.799 -22.002 -18.049  0.00  0.00    -0.174 NA
ATOM      4  C   UNL     1      34.885 -22.894 -15.918  0.00  0.00    +0.126 C 
ATOM      5  C   UNL     1      33.592 -22.543 -17.960  0.00  0.00    +0.190 C 
ATOM      6  C   UNL     1      32.522 -23.359 -16.132  0.00  0.00    +0.137 C 
ATOM      7  C   UNL     1      33.773 -23.343 -15.310  0.00  0.00    +0.064 C 
ATOM      8  C   UNL     1      33.854 -22.083 -19.230  0.00  0.00    +0.125 C 
ATOM      9  C   UNL     1      35.218 -21.766 -19.223  0.00  0.00    +0.101 C 
ENDROOT
BRANCH   6  11
ATOM     10  F   UNL     1      29.967 -22.250 -16.606  0.00  0.00    -0.204 F 
ATOM     11  C   UNL     1      31.293 -23.850 -15.455  0.00  0.00    +0.057 C 
ATOM     12  C   UNL     1      30.058 -23.261 -15.732  0.00  0.00    +0.143 C 
ATOM     13  C   UNL     1      31.375 -24.903 -14.544  0.00  0.00    +0.005 C 
ATOM     14  C   UNL     1      28.906 -23.725 -15.097  0.00  0.00    +0.030 C 
ATOM     15  C   UNL     1      30.223 -25.367 -13.909  0.00  0.00    +0.000 C 
ATOM     16  C   UNL     1      28.989 -24.778 -14.185  0.00  0.00    +0.002 C 
ENDBRANCH   6  11
BRANCH   4  17
ATOM     17  N   UNL     1      36.107 -22.819 -15.313  0.00  0.00    -0.316 N 
ATOM     18  H   UNL     1      36.837 -22.365 -15.791  0.00  0.00    +0.148 HD
BRANCH  17  19
ATOM     19  C   UNL     1      36.379 -23.369 -14.011  0.00  0.00    +0.115 C 
BRANCH  19  21
ATOM     20  N   UNL     1      38.457 -27.116 -14.366  0.00  0.00    -0.242 NA
ATOM     21  C   UNL     1      37.105 -24.680 -14.135  0.00  0.00    +0.000 C 
ATOM     22  C   UNL     1      36.397 -25.850 -14.391  0.00  0.00    +0.018 C 
ATOM     23  C   UNL     1      38.488 -24.728 -13.996  0.00  0.00    +0.018 C 
ATOM     24  C   UNL     1      37.114 -27.031 -14.496  0.00  0.00    +0.099 C 
ATOM     25  C   UNL     1      39.111 -25.959 -14.119  0.00  0.00    +0.099 C 
ENDBRANCH  19  21
ENDBRANCH  17  19
ENDBRANCH   4  17
TORSDOF 4
ENDMDL
MODEL 9
REMARK VINA RESULT:     -10.0      2.933      7.772
REMARK  Name = 21066096
REMARK  4 active torsions:
REMARK  status: ('A' for Active; 'I' for Inactive)
REMARK    1  A    between atoms: C_4  and  N_17
REMARK    2  A    between atoms: C_6  and  C_11
REMARK    3  A    between atoms: N_17  and  C_19
REMARK    4  A    between atoms: C_19  and  C_21
REMARK                            x       y       z     vdW  Elec       q    Type
REMARK                         _______ _______ _______ _____ _____    ______ ____
ROOT
ATOM      1  N   UNL     1      35.342 -22.532 -17.041  0.00  0.00    -0.152 N 
ATOM      2  N   UNL     1      36.527 -20.993 -18.463  0.00  0.00    -0.389 NA
ATOM      3  N   UNL     1      35.534 -23.248 -15.896  0.00  0.00    -0.174 NA
ATOM      4  C   UNL     1      34.193 -22.496 -17.848  0.00  0.00    +0.126 C 
ATOM      5  C   UNL     1      36.480 -21.789 -17.362  0.00  0.00    +0.190 C 
ATOM      6  C   UNL     1      35.458 -20.947 -19.205  0.00  0.00    +0.137 C 
ATOM      7  C   UNL     1      34.204 -21.719 -18.945  0.00  0.00    +0.064 C 
ATOM      8  C   UNL     1      37.410 -22.054 -16.384  0.00  0.00    +0.125 C 
ATOM      9  C   UNL     1      36.775 -22.951 -15.516  0.00  0.00    +0.101 C 
ENDROOT
BRANCH   6  11
ATOM     10  F   UNL     1      37.595 -19.207 -19.835  0.00  0.00    -0.204 F 
ATOM     11  C   UNL     1      35.465 -20.084 -20.416  0.00  0.00    +0.057 C 
ATOM     12  C   UNL     1      36.550 -19.245 -20.673  0.00  0.00    +0.143 C 
ATOM     13  C   UNL     1      34.383 -20.115 -21.297  0.00  0.00    +0.005 C 
ATOM     14  C   UNL     1      36.553 -18.438 -21.811  0.00  0.00    +0.030 C 
ATOM     15  C   UNL     1      34.386 -19.308 -22.434  0.00  0.00    +0.000 C 
ATOM     16  C   UNL     1      35.472 -18.469 -22.691  0.00  0.00    +0.002 C 
ENDBRANCH   6  11
BRANCH   4  17
ATOM     17  N   UNL     1      33.131 -23.267 -17.469  0.00  0.00    -0.316 N 
ATOM     18  H   UNL     1      33.130 -24.217 -17.724  0.00  0.00    +0.148 HD
BRANCH  17  19
ATOM     19  C   UNL     1      32.015 -22.758 -16.716  0.00  0.00    +0.115 C 
BRANCH  19  21
ATOM     20  N   UNL     1      31.262 -25.234 -13.284  0.00  0.00    -0.242 NA
ATOM     21  C   UNL     1      31.752 -23.624 -15.516  0.00  0.00    +0.000 C 
ATOM     22  C   UNL     1      32.687 -23.698 -14.489  0.00  0.00    +0.018 C 
ATOM     23  C   UNL     1      30.572 -24.355 -15.427  0.00  0.00    +0.018 C 
ATOM     24  C   UNL     1      32.396 -24.509 -13.404  0.00  0.00    +0.099 C 
ATOM     25  C   UNL     1      30.377 -25.138 -14.301  0.00  0.00    +0.099 C 
ENDBRANCH  19  21
ENDBRANCH  17  19
ENDBRANCH   4  17
TORSDOF 4
ENDMDL
