MODEL 1
REMARK VINA RESULT:     -11.4      0.000      0.000
REMARK  Name = 25113614
REMARK  7 active torsions:
REMARK  status: ('A' for Active; 'I' for Inactive)
REMARK    1  A    between atoms: C_3  and  C_10
REMARK    2  A    between atoms: C_7  and  C_25
REMARK    3  A    between atoms: N_9  and  C_12
REMARK    4  A    between atoms: C_12  and  C_13
REMARK    5  A    between atoms: C_18  and  C_21
REMARK    6  A    between atoms: C_25  and  N_26
REMARK    7  A    between atoms: N_26  and  C_29
REMARK                            x       y       z     vdW  Elec       q    Type
REMARK                         _______ _______ _______ _____ _____    ______ ____
ROOT
ATOM      1  O   UNL     1      35.542 -25.389 -11.385  0.00  0.00    -0.277 OA
ATOM      2  N   UNL     1      36.266 -24.221 -13.243  0.00  0.00    -0.275 N 
ATOM      3  C   UNL     1      36.144 -23.176 -14.256  0.00  0.00    +0.152 C 
ATOM      4  C   UNL     1      37.582 -22.878 -14.672  0.00  0.00    +0.031 C 
ATOM      5  C   UNL     1      37.615 -24.770 -13.215  0.00  0.00    +0.094 C 
ATOM      6  C   UNL     1      38.296 -24.210 -14.453  0.00  0.00    +0.024 C 
ATOM      7  C   UNL     1      35.322 -24.590 -12.297  0.00  0.00    +0.204 C 
ENDROOT
BRANCH   3  10
ATOM      8  O   UNL     1      35.255 -24.946 -15.590  0.00  0.00    -0.273 OA
ATOM      9  N   UNL     1      34.831 -22.743 -16.212  0.00  0.00    -0.299 N 
ATOM     10  C   UNL     1      35.365 -23.736 -15.409  0.00  0.00    +0.241 C 
ATOM     11  H   UNL     1      34.988 -21.803 -15.961  0.00  0.00    +0.150 HD
BRANCH   9  12
ATOM     12  C   UNL     1      34.056 -23.018 -17.400  0.00  0.00    +0.116 C 
BRANCH  12  13
ATOM     13  C   UNL     1      34.294 -21.997 -18.474  0.00  0.00    -0.003 C 
ATOM     14  C   UNL     1      35.598 -21.651 -18.831  0.00  0.00    -0.003 C 
ATOM     15  C   UNL     1      33.212 -21.393 -19.115  0.00  0.00    -0.003 C 
ATOM     16  C   UNL     1      35.819 -20.702 -19.828  0.00  0.00    +0.002 C 
ATOM     17  C   UNL     1      33.433 -20.444 -20.112  0.00  0.00    +0.002 C 
ATOM     18  C   UNL     1      34.737 -20.098 -20.470  0.00  0.00    +0.031 C 
BRANCH  18  21
ATOM     19  N   UNL     1      34.703 -19.387 -22.848  0.00  0.00    -0.343 N 
ATOM     20  N   UNL     1      35.445 -17.918 -21.190  0.00  0.00    -0.285 NA
ATOM     21  C   UNL     1      34.968 -19.108 -21.509  0.00  0.00    +0.117 C 
ATOM     22  H   UNL     1      34.867 -18.702 -23.537  0.00  0.00    +0.144 HD
ATOM     23  H   UNL     1      34.351 -20.269 -23.107  0.00  0.00    +0.144 HD
ATOM     24  H   UNL     1      35.602 -17.246 -21.892  0.00  0.00    +0.188 HD
ENDBRANCH  18  21
ENDBRANCH  12  13
ENDBRANCH   9  12
ENDBRANCH   3  10
BRANCH   7  25
ATOM     25  C   UNL     1      33.964 -23.951 -12.432  0.00  0.00    +0.006 C 
BRANCH  25  26
ATOM     26  N   UNL     1      33.013 -25.020 -12.685  0.00  0.00    +0.391 N 
ATOM     27  H   UNL     1      33.522 -25.880 -12.892  0.00  0.00    -0.084 HD
ATOM     28  H   UNL     1      32.431 -25.147 -11.857  0.00  0.00    -0.084 HD
BRANCH  26  29
ATOM     29  C   UNL     1      32.151 -24.683 -13.824  0.00  0.00    -0.061 C 
ATOM     30  C   UNL     1      32.074 -23.155 -13.922  0.00  0.00    -0.021 C 
ATOM     31  C   UNL     1      30.797 -25.383 -13.640  0.00  0.00    -0.021 C 
ATOM     32  C   UNL     1      31.155 -22.616 -15.020  0.00  0.00    -0.002 C 
ATOM     33  C   UNL     1      29.936 -25.351 -14.902  0.00  0.00    -0.002 C 
ATOM     34  C   UNL     1      29.678 -22.771 -14.678  0.00  0.00    -0.000 C 
ATOM     35  C   UNL     1      29.063 -24.112 -15.064  0.00  0.00    -0.000 C 
ENDBRANCH  26  29
ENDBRANCH  25  26
ENDBRANCH   7  25
TORSDOF 7
ENDMDL
MODEL 2
REMARK VINA RESULT:     -11.1      2.371      6.327
REMARK  Name = 25113614
REMARK  7 active torsions:
REMARK  status: ('A' for Active; 'I' for Inactive)
REMARK    1  A    between atoms: C_3  and  C_10
REMARK    2  A    between atoms: C_7  and  C_25
REMARK    3  A    between atoms: N_9  and  C_12
REMARK    4  A    between atoms: C_12  and  C_13
REMARK    5  A    between atoms: C_18  and  C_21
REMARK    6  A    between atoms: C_25  and  N_26
REMARK    7  A    between atoms: N_26  and  C_29
REMARK                            x       y       z     vdW  Elec       q    Type
REMARK                         _______ _______ _______ _____ _____    ______ ____
ROOT
ATOM      1  O   UNL     1      38.721 -22.802 -15.370  0.00  0.00    -0.277 OA
ATOM      2  N   UNL     1      37.302 -24.508 -14.725  0.00  0.00    -0.275 N 
ATOM      3  C   UNL     1      36.038 -25.239 -14.763  0.00  0.00    +0.152 C 
ATOM      4  C   UNL     1      36.410 -26.665 -14.369  0.00  0.00    +0.031 C 
ATOM      5  C   UNL     1      38.343 -25.295 -14.077  0.00  0.00    +0.094 C 
ATOM      6  C   UNL     1      37.618 -26.476 -13.454  0.00  0.00    +0.024 C 
ATOM      7  C   UNL     1      37.592 -23.296 -15.331  0.00  0.00    +0.204 C 
ENDROOT
BRANCH   3  10
ATOM      8  O   UNL     1      35.533 -23.882 -12.864  0.00  0.00    -0.273 OA
ATOM      9  N   UNL     1      33.806 -25.033 -13.920  0.00  0.00    -0.299 N 
ATOM     10  C   UNL     1      35.119 -24.631 -13.746  0.00  0.00    +0.241 C 
ATOM     11  H   UNL     1      33.597 -25.638 -14.668  0.00  0.00    +0.150 HD
BRANCH   9  12
ATOM     12  C   UNL     1      32.728 -24.606 -13.058  0.00  0.00    +0.116 C 
BRANCH  12  13
ATOM     13  C   UNL     1      31.495 -24.247 -13.836  0.00  0.00    -0.003 C 
ATOM     14  C   UNL     1      31.391 -22.992 -14.437  0.00  0.00    -0.003 C 
ATOM     15  C   UNL     1      30.453 -25.166 -13.957  0.00  0.00    -0.003 C 
ATOM     16  C   UNL     1      30.245 -22.658 -15.158  0.00  0.00    +0.002 C 
ATOM     17  C   UNL     1      29.308 -24.832 -14.677  0.00  0.00    +0.002 C 
ATOM     18  C   UNL     1      29.203 -23.578 -15.279  0.00  0.00    +0.031 C 
BRANCH  18  21
ATOM     19  N   UNL     1      27.013 -22.425 -15.481  0.00  0.00    -0.343 N 
ATOM     20  N   UNL     1      27.852 -23.680 -17.264  0.00  0.00    -0.285 NA
ATOM     21  C   UNL     1      28.009 -23.228 -16.032  0.00  0.00    +0.117 C 
ATOM     22  H   UNL     1      26.213 -22.200 -16.008  0.00  0.00    +0.144 HD
ATOM     23  H   UNL     1      27.109 -22.082 -14.563  0.00  0.00    +0.144 HD
ATOM     24  H   UNL     1      27.046 -23.444 -17.776  0.00  0.00    +0.188 HD
ENDBRANCH  18  21
ENDBRANCH  12  13
ENDBRANCH   9  12
ENDBRANCH   3  10
BRANCH   7  25
ATOM     25  C   UNL     1      36.429 -22.579 -15.969  0.00  0.00    +0.006 C 
BRANCH  25  26
ATOM     26  N   UNL     1      36.965 -21.792 -17.067  0.00  0.00    +0.391 N 
ATOM     27  H   UNL     1      37.033 -20.816 -16.778  0.00  0.00    -0.084 HD
ATOM     28  H   UNL     1      37.887 -22.152 -17.311  0.00  0.00    -0.084 HD
BRANCH  26  29
ATOM     29  C   UNL     1      36.091 -21.888 -18.242  0.00  0.00    -0.061 C 
ATOM     30  C   UNL     1      36.373 -20.678 -19.141  0.00  0.00    -0.021 C 
ATOM     31  C   UNL     1      34.636 -22.007 -17.765  0.00  0.00    -0.021 C 
ATOM     32  C   UNL     1      35.498 -20.573 -20.390  0.00  0.00    -0.002 C 
ATOM     33  C   UNL     1      33.677 -22.416 -18.882  0.00  0.00    -0.002 C 
ATOM     34  C   UNL     1      34.072 -20.136 -20.073  0.00  0.00    -0.000 C 
ATOM     35  C   UNL     1      33.115 -21.266 -19.711  0.00  0.00    -0.000 C 
ENDBRANCH  26  29
ENDBRANCH  25  26
ENDBRANCH   7  25
TORSDOF 7
ENDMDL
MODEL 3
REMARK VINA RESULT:     -10.0      6.866     11.225
REMARK  Name = 25113614
REMARK  7 active torsions:
REMARK  status: ('A' for Active; 'I' for Inactive)
REMARK    1  A    between atoms: C_3  and  C_10
REMARK    2  A    between atoms: C_7  and  C_25
REMARK    3  A    between atoms: N_9  and  C_12
REMARK    4  A    between atoms: C_12  and  C_13
REMARK    5  A    between atoms: C_18  and  C_21
REMARK    6  A    between atoms: C_25  and  N_26
REMARK    7  A    between atoms: N_26  and  C_29
REMARK                            x       y       z     vdW  Elec       q    Type
REMARK                         _______ _______ _______ _____ _____    ______ ____
ROOT
ATOM      1  O   UNL     1      34.506 -18.484 -23.781  0.00  0.00    -0.277 OA
ATOM      2  N   UNL     1      34.386 -16.185 -23.586  0.00  0.00    -0.275 N 
ATOM      3  C   UNL     1      34.803 -14.899 -23.032  0.00  0.00    +0.152 C 
ATOM      4  C   UNL     1      34.456 -13.885 -24.120  0.00  0.00    +0.031 C 
ATOM      5  C   UNL     1      33.572 -16.003 -24.781  0.00  0.00    +0.094 C 
ATOM      6  C   UNL     1      33.256 -14.517 -24.822  0.00  0.00    +0.024 C 
ATOM      7  C   UNL     1      34.793 -17.447 -23.181  0.00  0.00    +0.204 C 
ENDROOT
BRANCH   3  10
ATOM      8  O   UNL     1      34.256 -15.194 -20.727  0.00  0.00    -0.273 OA
ATOM      9  N   UNL     1      32.956 -13.760 -22.020  0.00  0.00    -0.299 N 
ATOM     10  C   UNL     1      33.996 -14.644 -21.795  0.00  0.00    +0.241 C 
ATOM     11  H   UNL     1      32.850 -13.382 -22.923  0.00  0.00    +0.150 HD
BRANCH   9  12
ATOM     12  C   UNL     1      32.017 -13.364 -20.995  0.00  0.00    +0.116 C 
BRANCH  12  13
ATOM     13  C   UNL     1      32.075 -11.890 -20.719  0.00  0.00    -0.003 C 
ATOM     14  C   UNL     1      32.165 -10.985 -21.777  0.00  0.00    -0.003 C 
ATOM     15  C   UNL     1      32.040 -11.424 -19.405  0.00  0.00    -0.003 C 
ATOM     16  C   UNL     1      32.220  -9.616 -21.521  0.00  0.00    +0.002 C 
ATOM     17  C   UNL     1      32.095 -10.055 -19.149  0.00  0.00    +0.002 C 
ATOM     18  C   UNL     1      32.185  -9.149 -20.207  0.00  0.00    +0.031 C 
BRANCH  18  21
ATOM     19  N   UNL     1      31.308  -6.843 -20.487  0.00  0.00    -0.343 N 
ATOM     20  N   UNL     1      33.198  -7.233 -19.170  0.00  0.00    -0.285 NA
ATOM     21  C   UNL     1      32.241  -7.721 -19.941  0.00  0.00    +0.117 C 
ATOM     22  H   UNL     1      31.365  -5.880 -20.294  0.00  0.00    +0.144 HD
ATOM     23  H   UNL     1      30.590  -7.187 -21.066  0.00  0.00    +0.144 HD
ATOM     24  H   UNL     1      33.238  -6.267 -18.988  0.00  0.00    +0.188 HD
ENDBRANCH  18  21
ENDBRANCH  12  13
ENDBRANCH   9  12
ENDBRANCH   3  10
BRANCH   7  25
ATOM     25  C   UNL     1      35.633 -17.502 -21.931  0.00  0.00    +0.006 C 
BRANCH  25  26
ATOM     26  N   UNL     1      36.060 -18.882 -21.766  0.00  0.00    +0.391 N 
ATOM     27  H   UNL     1      35.772 -19.421 -22.583  0.00  0.00    -0.084 HD
ATOM     28  H   UNL     1      37.075 -18.904 -21.671  0.00  0.00    -0.084 HD
BRANCH  26  29
ATOM     29  C   UNL     1      35.457 -19.467 -20.563  0.00  0.00    -0.061 C 
ATOM     30  C   UNL     1      36.472 -20.438 -19.950  0.00  0.00    -0.021 C 
ATOM     31  C   UNL     1      34.113 -20.101 -20.946  0.00  0.00    -0.021 C 
ATOM     32  C   UNL     1      35.987 -21.199 -18.716  0.00  0.00    -0.002 C 
ATOM     33  C   UNL     1      33.263 -20.468 -19.730  0.00  0.00    -0.002 C 
ATOM     34  C   UNL     1      34.987 -22.298 -19.060  0.00  0.00    -0.000 C 
ATOM     35  C   UNL     1      33.533 -21.848 -19.139  0.00  0.00    -0.000 C 
ENDBRANCH  26  29
ENDBRANCH  25  26
ENDBRANCH   7  25
TORSDOF 7
ENDMDL
MODEL 4
REMARK VINA RESULT:      -9.7      1.717      2.730
REMARK  Name = 25113614
REMARK  7 active torsions:
REMARK  status: ('A' for Active; 'I' for Inactive)
REMARK    1  A    between atoms: C_3  and  C_10
REMARK    2  A    between atoms: C_7  and  C_25
REMARK    3  A    between atoms: N_9  and  C_12
REMARK    4  A    between atoms: C_12  and  C_13
REMARK    5  A    between atoms: C_18  and  C_21
REMARK    6  A    between atoms: C_25  and  N_26
REMARK    7  A    between atoms: N_26  and  C_29
REMARK                            x       y       z     vdW  Elec       q    Type
REMARK                         _______ _______ _______ _____ _____    ______ ____
ROOT
ATOM      1  O   UNL     1      34.561 -24.944 -14.043  0.00  0.00    -0.277 OA
ATOM      2  N   UNL     1      35.762 -23.340 -15.194  0.00  0.00    -0.275 N 
ATOM      3  C   UNL     1      35.898 -22.070 -15.904  0.00  0.00    +0.152 C 
ATOM      4  C   UNL     1      37.360 -21.678 -15.708  0.00  0.00    +0.031 C 
ATOM      5  C   UNL     1      37.066 -23.879 -14.831  0.00  0.00    +0.094 C 
ATOM      6  C   UNL     1      38.073 -23.022 -15.581  0.00  0.00    +0.024 C 
ATOM      7  C   UNL     1      34.592 -23.938 -14.755  0.00  0.00    +0.204 C 
ENDROOT
BRANCH   3  10
ATOM      8  O   UNL     1      34.722 -23.088 -17.715  0.00  0.00    -0.273 OA
ATOM      9  N   UNL     1      36.447 -21.599 -18.187  0.00  0.00    -0.299 N 
ATOM     10  C   UNL     1      35.606 -22.316 -17.354  0.00  0.00    +0.241 C 
ATOM     11  H   UNL     1      37.120 -21.008 -17.776  0.00  0.00    +0.150 HD
BRANCH   9  12
ATOM     12  C   UNL     1      36.387 -21.675 -19.628  0.00  0.00    +0.116 C 
BRANCH  12  13
ATOM     13  C   UNL     1      36.086 -20.343 -20.249  0.00  0.00    -0.003 C 
ATOM     14  C   UNL     1      34.763 -19.963 -20.480  0.00  0.00    -0.003 C 
ATOM     15  C   UNL     1      37.128 -19.484 -20.598  0.00  0.00    -0.003 C 
ATOM     16  C   UNL     1      34.484 -18.726 -21.059  0.00  0.00    +0.002 C 
ATOM     17  C   UNL     1      36.849 -18.247 -21.177  0.00  0.00    +0.002 C 
ATOM     18  C   UNL     1      35.526 -17.867 -21.407  0.00  0.00    +0.031 C 
BRANCH  18  21
ATOM     19  N   UNL     1      35.299 -16.388 -23.389  0.00  0.00    -0.343 N 
ATOM     20  N   UNL     1      34.901 -15.552 -21.244  0.00  0.00    -0.285 NA
ATOM     21  C   UNL     1      35.233 -16.577 -22.010  0.00  0.00    +0.117 C 
ATOM     22  H   UNL     1      35.097 -15.506 -23.777  0.00  0.00    +0.144 HD
ATOM     23  H   UNL     1      35.549 -17.137 -23.977  0.00  0.00    +0.144 HD
ATOM     24  H   UNL     1      34.702 -14.678 -21.649  0.00  0.00    +0.188 HD
ENDBRANCH  18  21
ENDBRANCH  12  13
ENDBRANCH   9  12
ENDBRANCH   3  10
BRANCH   7  25
ATOM     25  C   UNL     1      33.307 -23.283 -15.197  0.00  0.00    +0.006 C 
BRANCH  25  26
ATOM     26  N   UNL     1      32.648 -22.789 -14.000  0.00  0.00    +0.391 N 
ATOM     27  H   UNL     1      33.050 -23.247 -13.182  0.00  0.00    -0.084 HD
ATOM     28  H   UNL     1      32.786 -21.780 -13.941  0.00  0.00    -0.084 HD
BRANCH  26  29
ATOM     29  C   UNL     1      31.209 -23.069 -14.053  0.00  0.00    -0.061 C 
ATOM     30  C   UNL     1      31.005 -24.554 -13.735  0.00  0.00    -0.021 C 
ATOM     31  C   UNL     1      30.671 -22.625 -15.421  0.00  0.00    -0.021 C 
ATOM     32  C   UNL     1      29.559 -25.047 -13.813  0.00  0.00    -0.002 C 
ATOM     33  C   UNL     1      29.145 -22.588 -15.474  0.00  0.00    -0.002 C 
ATOM     34  C   UNL     1      29.059 -25.178 -15.247  0.00  0.00    -0.000 C 
ATOM     35  C   UNL     1      28.473 -23.905 -15.847  0.00  0.00    -0.000 C 
ENDBRANCH  26  29
ENDBRANCH  25  26
ENDBRANCH   7  25
TORSDOF 7
ENDMDL
MODEL 5
REMARK VINA RESULT:      -9.6      7.719     13.302
REMARK  Name = 25113614
REMARK  7 active torsions:
REMARK  status: ('A' for Active; 'I' for Inactive)
REMARK    1  A    between atoms: C_3  and  C_10
REMARK    2  A    between atoms: C_7  and  C_25
REMARK    3  A    between atoms: N_9  and  C_12
REMARK    4  A    between atoms: C_12  and  C_13
REMARK    5  A    between atoms: C_18  and  C_21
REMARK    6  A    between atoms: C_25  and  N_26
REMARK    7  A    between atoms: N_26  and  C_29
REMARK                            x       y       z     vdW  Elec       q    Type
REMARK                         _______ _______ _______ _____ _____    ______ ____
ROOT
ATOM      1  O   UNL     1      31.422 -11.674 -22.501  0.00  0.00    -0.277 OA
ATOM      2  N   UNL     1      32.891 -13.153 -21.503  0.00  0.00    -0.275 N 
ATOM      3  C   UNL     1      34.212 -13.744 -21.302  0.00  0.00    +0.152 C 
ATOM      4  C   UNL     1      34.178 -14.273 -19.870  0.00  0.00    +0.031 C 
ATOM      5  C   UNL     1      31.981 -13.524 -20.428  0.00  0.00    +0.094 C 
ATOM      6  C   UNL     1      32.706 -14.612 -19.653  0.00  0.00    +0.024 C 
ATOM      7  C   UNL     1      32.520 -12.234 -22.472  0.00  0.00    +0.204 C 
ENDROOT
BRANCH   3  10
ATOM      8  O   UNL     1      33.880 -14.826 -23.404  0.00  0.00    -0.273 OA
ATOM      9  N   UNL     1      35.092 -15.926 -21.748  0.00  0.00    -0.299 N 
ATOM     10  C   UNL     1      34.370 -14.871 -22.278  0.00  0.00    +0.241 C 
ATOM     11  H   UNL     1      35.436 -15.844 -20.829  0.00  0.00    +0.150 HD
BRANCH   9  12
ATOM     12  C   UNL     1      35.366 -17.143 -22.478  0.00  0.00    +0.116 C 
BRANCH  12  13
ATOM     13  C   UNL     1      35.459 -18.334 -21.570  0.00  0.00    -0.003 C 
ATOM     14  C   UNL     1      34.318 -19.087 -21.287  0.00  0.00    -0.003 C 
ATOM     15  C   UNL     1      36.685 -18.689 -21.007  0.00  0.00    -0.003 C 
ATOM     16  C   UNL     1      34.404 -20.192 -20.442  0.00  0.00    +0.002 C 
ATOM     17  C   UNL     1      36.770 -19.794 -20.162  0.00  0.00    +0.002 C 
ATOM     18  C   UNL     1      35.630 -20.547 -19.879  0.00  0.00    +0.031 C 
BRANCH  18  21
ATOM     19  N   UNL     1      36.656 -21.758 -17.970  0.00  0.00    -0.343 N 
ATOM     20  N   UNL     1      34.901 -22.725 -19.172  0.00  0.00    -0.285 NA
ATOM     21  C   UNL     1      35.719 -21.700 -18.999  0.00  0.00    +0.117 C 
ATOM     22  H   UNL     1      36.699 -22.549 -17.385  0.00  0.00    +0.144 HD
ATOM     23  H   UNL     1      37.276 -21.007 -17.827  0.00  0.00    +0.144 HD
ATOM     24  H   UNL     1      34.958 -23.506 -18.576  0.00  0.00    +0.188 HD
ENDBRANCH  18  21
ENDBRANCH  12  13
ENDBRANCH   9  12
ENDBRANCH   3  10
BRANCH   7  25
ATOM     25  C   UNL     1      33.552 -11.933 -23.529  0.00  0.00    +0.006 C 
BRANCH  25  26
ATOM     26  N   UNL     1      33.060 -10.797 -24.292  0.00  0.00    +0.391 N 
ATOM     27  H   UNL     1      33.480 -10.811 -25.222  0.00  0.00    -0.084 HD
ATOM     28  H   UNL     1      32.045 -10.863 -24.363  0.00  0.00    -0.084 HD
BRANCH  26  29
ATOM     29  C   UNL     1      33.410  -9.539 -23.623  0.00  0.00    -0.061 C 
ATOM     30  C   UNL     1      32.359  -8.492 -24.008  0.00  0.00    -0.021 C 
ATOM     31  C   UNL     1      34.852  -9.167 -23.996  0.00  0.00    -0.021 C 
ATOM     32  C   UNL     1      32.601  -7.087 -23.454  0.00  0.00    -0.002 C 
ATOM     33  C   UNL     1      35.421  -8.048 -23.125  0.00  0.00    -0.002 C 
ATOM     34  C   UNL     1      33.735  -6.362 -24.168  0.00  0.00    -0.000 C 
ATOM     35  C   UNL     1      35.129  -6.633 -23.610  0.00  0.00    -0.000 C 
ENDBRANCH  26  29
ENDBRANCH  25  26
ENDBRANCH   7  25
TORSDOF 7
ENDMDL
MODEL 6
REMARK VINA RESULT:      -9.2     10.095     14.557
REMARK  Name = 25113614
REMARK  7 active torsions:
REMARK  status: ('A' for Active; 'I' for Inactive)
REMARK    1  A    between atoms: C_3  and  C_10
REMARK    2  A    between atoms: C_7  and  C_25
REMARK    3  A    between atoms: N_9  and  C_12
REMARK    4  A    between atoms: C_12  and  C_13
REMARK    5  A    between atoms: C_18  and  C_21
REMARK    6  A    between atoms: C_25  and  N_26
REMARK    7  A    between atoms: N_26  and  C_29
REMARK                            x       y       z     vdW  Elec       q    Type
REMARK                         _______ _______ _______ _____ _____    ______ ____
ROOT
ATOM      1  O   UNL     1      33.570 -14.399 -20.050  0.00  0.00    -0.277 OA
ATOM      2  N   UNL     1      32.366 -12.633 -20.927  0.00  0.00    -0.275 N 
ATOM      3  C   UNL     1      31.685 -11.928 -22.011  0.00  0.00    +0.152 C 
ATOM      4  C   UNL     1      30.635 -11.072 -21.309  0.00  0.00    +0.031 C 
ATOM      5  C   UNL     1      32.009 -12.071 -19.631  0.00  0.00    +0.094 C 
ATOM      6  C   UNL     1      31.265 -10.784 -19.948  0.00  0.00    +0.024 C 
ATOM      7  C   UNL     1      33.136 -13.780 -21.024  0.00  0.00    +0.204 C 
ENDROOT
BRANCH   3  10
ATOM      8  O   UNL     1      33.631 -11.542 -23.340  0.00  0.00    -0.273 OA
ATOM      9  N   UNL     1      32.441  -9.714 -22.526  0.00  0.00    -0.299 N 
ATOM     10  C   UNL     1      32.693 -11.063 -22.707  0.00  0.00    +0.241 C 
ATOM     11  H   UNL     1      31.653  -9.452 -21.996  0.00  0.00    +0.150 HD
BRANCH   9  12
ATOM     12  C   UNL     1      33.277  -8.672 -23.076  0.00  0.00    +0.116 C 
BRANCH  12  13
ATOM     13  C   UNL     1      32.738  -7.304 -22.780  0.00  0.00    -0.003 C 
ATOM     14  C   UNL     1      32.068  -7.062 -21.580  0.00  0.00    -0.003 C 
ATOM     15  C   UNL     1      32.903  -6.273 -23.705  0.00  0.00    -0.003 C 
ATOM     16  C   UNL     1      31.564  -5.792 -21.306  0.00  0.00    +0.002 C 
ATOM     17  C   UNL     1      32.400  -5.002 -23.431  0.00  0.00    +0.002 C 
ATOM     18  C   UNL     1      31.731  -4.760 -22.231  0.00  0.00    +0.031 C 
BRANCH  18  21
ATOM     19  N   UNL     1      32.006  -2.299 -22.048  0.00  0.00    -0.343 N 
ATOM     20  N   UNL     1      29.946  -3.293 -21.570  0.00  0.00    -0.285 NA
ATOM     21  C   UNL     1      31.206  -3.435 -21.944  0.00  0.00    +0.117 C 
ATOM     22  H   UNL     1      31.630  -1.411 -21.849  0.00  0.00    +0.144 HD
ATOM     23  H   UNL     1      32.948  -2.384 -22.321  0.00  0.00    +0.144 HD
ATOM     24  H   UNL     1      29.588  -2.397 -21.376  0.00  0.00    +0.188 HD
ENDBRANCH  18  21
ENDBRANCH  12  13
ENDBRANCH   9  12
ENDBRANCH   3  10
BRANCH   7  25
ATOM     25  C   UNL     1      33.434 -14.263 -22.421  0.00  0.00    +0.006 C 
BRANCH  25  26
ATOM     26  N   UNL     1      34.878 -14.394 -22.527  0.00  0.00    +0.391 N 
ATOM     27  H   UNL     1      35.235 -13.669 -23.150  0.00  0.00    -0.084 HD
ATOM     28  H   UNL     1      35.287 -14.292 -21.598  0.00  0.00    -0.084 HD
BRANCH  26  29
ATOM     29  C   UNL     1      35.237 -15.712 -23.063  0.00  0.00    -0.061 C 
ATOM     30  C   UNL     1      34.226 -16.067 -24.160  0.00  0.00    -0.021 C 
ATOM     31  C   UNL     1      35.301 -16.714 -21.902  0.00  0.00    -0.021 C 
ATOM     32  C   UNL     1      34.404 -17.449 -24.790  0.00  0.00    -0.002 C 
ATOM     33  C   UNL     1      35.957 -18.037 -22.295  0.00  0.00    -0.002 C 
ATOM     34  C   UNL     1      33.955 -18.577 -23.868  0.00  0.00    -0.000 C 
ATOM     35  C   UNL     1      35.017 -19.077 -22.895  0.00  0.00    -0.000 C 
ENDBRANCH  26  29
ENDBRANCH  25  26
ENDBRANCH   7  25
TORSDOF 7
ENDMDL
MODEL 7
REMARK VINA RESULT:      -9.1      1.809      4.766
REMARK  Name = 25113614
REMARK  7 active torsions:
REMARK  status: ('A' for Active; 'I' for Inactive)
REMARK    1  A    between atoms: C_3  and  C_10
REMARK    2  A    between atoms: C_7  and  C_25
REMARK    3  A    between atoms: N_9  and  C_12
REMARK    4  A    between atoms: C_12  and  C_13
REMARK    5  A    between atoms: C_18  and  C_21
REMARK    6  A    between atoms: C_25  and  N_26
REMARK    7  A    between atoms: N_26  and  C_29
REMARK                            x       y       z     vdW  Elec       q    Type
REMARK                         _______ _______ _______ _____ _____    ______ ____
ROOT
ATOM      1  O   UNL     1      31.646 -23.555 -12.382  0.00  0.00    -0.277 OA
ATOM      2  N   UNL     1      32.270 -23.451 -14.604  0.00  0.00    -0.275 N 
ATOM      3  C   UNL     1      33.080 -23.853 -15.753  0.00  0.00    +0.152 C 
ATOM      4  C   UNL     1      32.191 -23.575 -16.962  0.00  0.00    +0.031 C 
ATOM      5  C   UNL     1      31.095 -22.703 -15.028  0.00  0.00    +0.094 C 
ATOM      6  C   UNL     1      31.323 -22.406 -16.501  0.00  0.00    +0.024 C 
ATOM      7  C   UNL     1      32.447 -23.822 -13.281  0.00  0.00    +0.204 C 
ENDROOT
BRANCH   3  10
ATOM      8  O   UNL     1      34.732 -22.433 -14.775  0.00  0.00    -0.273 OA
ATOM      9  N   UNL     1      34.840 -22.884 -17.056  0.00  0.00    -0.299 N 
ATOM     10  C   UNL     1      34.303 -22.986 -15.784  0.00  0.00    +0.241 C 
ATOM     11  H   UNL     1      34.405 -23.378 -17.789  0.00  0.00    +0.150 HD
BRANCH   9  12
ATOM     12  C   UNL     1      36.009 -22.091 -17.360  0.00  0.00    +0.116 C 
BRANCH  12  13
ATOM     13  C   UNL     1      35.819 -21.263 -18.597  0.00  0.00    -0.003 C 
ATOM     14  C   UNL     1      34.580 -21.241 -19.239  0.00  0.00    -0.003 C 
ATOM     15  C   UNL     1      36.881 -20.516 -19.107  0.00  0.00    -0.003 C 
ATOM     16  C   UNL     1      34.405 -20.474 -20.390  0.00  0.00    +0.002 C 
ATOM     17  C   UNL     1      36.705 -19.748 -20.257  0.00  0.00    +0.002 C 
ATOM     18  C   UNL     1      35.467 -19.726 -20.899  0.00  0.00    +0.031 C 
BRANCH  18  21
ATOM     19  N   UNL     1      36.000 -17.749 -22.304  0.00  0.00    -0.343 N 
ATOM     20  N   UNL     1      34.413 -19.309 -23.018  0.00  0.00    -0.285 NA
ATOM     21  C   UNL     1      35.282 -18.925 -22.099  0.00  0.00    +0.117 C 
ATOM     22  H   UNL     1      35.860 -17.222 -23.124  0.00  0.00    +0.144 HD
ATOM     23  H   UNL     1      36.649 -17.445 -21.629  0.00  0.00    +0.144 HD
ATOM     24  H   UNL     1      34.287 -18.769 -23.831  0.00  0.00    +0.188 HD
ENDBRANCH  18  21
ENDBRANCH  12  13
ENDBRANCH   9  12
ENDBRANCH   3  10
BRANCH   7  25
ATOM     25  C   UNL     1      33.703 -24.595 -12.970  0.00  0.00    +0.006 C 
BRANCH  25  26
ATOM     26  N   UNL     1      34.558 -23.721 -12.185  0.00  0.00    +0.391 N 
ATOM     27  H   UNL     1      34.754 -22.875 -12.721  0.00  0.00    -0.084 HD
ATOM     28  H   UNL     1      34.079 -23.485 -11.317  0.00  0.00    -0.084 HD
BRANCH  26  29
ATOM     29  C   UNL     1      35.822 -24.393 -11.863  0.00  0.00    -0.061 C 
ATOM     30  C   UNL     1      36.892 -23.315 -11.659  0.00  0.00    -0.021 C 
ATOM     31  C   UNL     1      36.137 -25.407 -12.972  0.00  0.00    -0.021 C 
ATOM     32  C   UNL     1      38.302 -23.837 -11.381  0.00  0.00    -0.002 C 
ATOM     33  C   UNL     1      37.260 -26.372 -12.593  0.00  0.00    -0.002 C 
ATOM     34  C   UNL     1      38.971 -24.412 -12.623  0.00  0.00    -0.000 C 
ATOM     35  C   UNL     1      38.671 -25.881 -12.899  0.00  0.00    -0.000 C 
ENDBRANCH  26  29
ENDBRANCH  25  26
ENDBRANCH   7  25
TORSDOF 7
ENDMDL
MODEL 8
REMARK VINA RESULT:      -9.1      1.746      2.977
REMARK  Name = 25113614
REMARK  7 active torsions:
REMARK  status: ('A' for Active; 'I' for Inactive)
REMARK    1  A    between atoms: C_3  and  C_10
REMARK    2  A    between atoms: C_7  and  C_25
REMARK    3  A    between atoms: N_9  and  C_12
REMARK    4  A    between atoms: C_12  and  C_13
REMARK    5  A    between atoms: C_18  and  C_21
REMARK    6  A    between atoms: C_25  and  N_26
REMARK    7  A    between atoms: N_26  and  C_29
REMARK                            x       y       z     vdW  Elec       q    Type
REMARK                         _______ _______ _______ _____ _____    ______ ____
ROOT
ATOM      1  O   UNL     1      35.691 -26.669 -15.386  0.00  0.00    -0.277 OA
ATOM      2  N   UNL     1      36.912 -25.503 -13.810  0.00  0.00    -0.275 N 
ATOM      3  C   UNL     1      37.067 -24.499 -12.760  0.00  0.00    +0.152 C 
ATOM      4  C   UNL     1      38.228 -25.010 -11.911  0.00  0.00    +0.031 C 
ATOM      5  C   UNL     1      38.046 -26.418 -13.831  0.00  0.00    +0.094 C 
ATOM      6  C   UNL     1      39.079 -25.791 -12.910  0.00  0.00    +0.024 C 
ATOM      7  C   UNL     1      35.803 -25.716 -14.613  0.00  0.00    +0.204 C 
ENDROOT
BRANCH   3  10
ATOM      8  O   UNL     1      37.522 -22.155 -12.769  0.00  0.00    -0.273 OA
ATOM      9  N   UNL     1      37.593 -23.325 -14.780  0.00  0.00    -0.299 N 
ATOM     10  C   UNL     1      37.423 -23.197 -13.412  0.00  0.00    +0.241 C 
ATOM     11  H   UNL     1      37.488 -24.217 -15.183  0.00  0.00    +0.150 HD
BRANCH   9  12
ATOM     12  C   UNL     1      37.918 -22.213 -15.644  0.00  0.00    +0.116 C 
BRANCH  12  13
ATOM     13  C   UNL     1      36.861 -21.983 -16.685  0.00  0.00    -0.003 C 
ATOM     14  C   UNL     1      35.609 -22.583 -16.552  0.00  0.00    -0.003 C 
ATOM     15  C   UNL     1      37.131 -21.170 -17.786  0.00  0.00    -0.003 C 
ATOM     16  C   UNL     1      34.628 -22.371 -17.519  0.00  0.00    +0.002 C 
ATOM     17  C   UNL     1      36.150 -20.958 -18.753  0.00  0.00    +0.002 C 
ATOM     18  C   UNL     1      34.897 -21.557 -18.620  0.00  0.00    +0.031 C 
BRANCH  18  21
ATOM     19  N   UNL     1      34.042 -20.394 -20.640  0.00  0.00    -0.343 N 
ATOM     20  N   UNL     1      32.751 -22.034 -19.591  0.00  0.00    -0.285 NA
ATOM     21  C   UNL     1      33.873 -21.336 -19.628  0.00  0.00    +0.117 C 
ATOM     22  H   UNL     1      33.336 -20.260 -21.313  0.00  0.00    +0.144 HD
ATOM     23  H   UNL     1      34.869 -19.861 -20.683  0.00  0.00    +0.144 HD
ATOM     24  H   UNL     1      32.057 -21.887 -20.272  0.00  0.00    +0.188 HD
ENDBRANCH  18  21
ENDBRANCH  12  13
ENDBRANCH   9  12
ENDBRANCH   3  10
BRANCH   7  25
ATOM     25  C   UNL     1      34.696 -24.700 -14.497  0.00  0.00    +0.006 C 
BRANCH  25  26
ATOM     26  N   UNL     1      33.869 -25.098 -13.371  0.00  0.00    +0.391 N 
ATOM     27  H   UNL     1      33.703 -26.103 -13.416  0.00  0.00    -0.084 HD
ATOM     28  H   UNL     1      34.353 -24.859 -12.505  0.00  0.00    -0.084 HD
BRANCH  26  29
ATOM     29  C   UNL     1      32.582 -24.393 -13.404  0.00  0.00    -0.061 C 
ATOM     30  C   UNL     1      31.468 -25.446 -13.435  0.00  0.00    -0.021 C 
ATOM     31  C   UNL     1      32.582 -23.424 -14.595  0.00  0.00    -0.021 C 
ATOM     32  C   UNL     1      30.047 -24.892 -13.542  0.00  0.00    -0.002 C 
ATOM     33  C   UNL     1      31.424 -22.428 -14.549  0.00  0.00    -0.002 C 
ATOM     34  C   UNL     1      29.727 -24.362 -14.935  0.00  0.00    -0.000 C 
ATOM     35  C   UNL     1      30.124 -22.911 -15.182  0.00  0.00    -0.000 C 
ENDBRANCH  26  29
ENDBRANCH  25  26
ENDBRANCH   7  25
TORSDOF 7
ENDMDL
MODEL 9
REMARK VINA RESULT:      -9.0      2.012      4.845
REMARK  Name = 25113614
REMARK  7 active torsions:
REMARK  status: ('A' for Active; 'I' for Inactive)
REMARK    1  A    between atoms: C_3  and  C_10
REMARK    2  A    between atoms: C_7  and  C_25
REMARK    3  A    between atoms: N_9  and  C_12
REMARK    4  A    between atoms: C_12  and  C_13
REMARK    5  A    between atoms: C_18  and  C_21
REMARK    6  A    between atoms: C_25  and  N_26
REMARK    7  A    between atoms: N_26  and  C_29
REMARK                            x       y       z     vdW  Elec       q    Type
REMARK                         _______ _______ _______ _____ _____    ______ ____
ROOT
ATOM      1  O   UNL     1      32.571 -23.219 -12.807  0.00  0.00    -0.277 OA
ATOM      2  N   UNL     1      33.249 -23.260 -15.016  0.00  0.00    -0.275 N 
ATOM      3  C   UNL     1      34.152 -23.648 -16.097  0.00  0.00    +0.152 C 
ATOM      4  C   UNL     1      33.273 -23.653 -17.344  0.00  0.00    +0.031 C 
ATOM      5  C   UNL     1      31.984 -22.765 -15.542  0.00  0.00    +0.094 C 
ATOM      6  C   UNL     1      32.213 -22.599 -17.035  0.00  0.00    +0.024 C 
ATOM      7  C   UNL     1      33.435 -23.449 -13.656  0.00  0.00    +0.204 C 
ENDROOT
BRANCH   3  10
ATOM      8  O   UNL     1      35.655 -22.013 -15.220  0.00  0.00    -0.273 OA
ATOM      9  N   UNL     1      35.612 -22.388 -17.517  0.00  0.00    -0.299 N 
ATOM     10  C   UNL     1      35.220 -22.602 -16.207  0.00  0.00    +0.241 C 
ATOM     11  H   UNL     1      35.188 -22.926 -18.226  0.00  0.00    +0.150 HD
BRANCH   9  12
ATOM     12  C   UNL     1      36.612 -21.416 -17.896  0.00  0.00    +0.116 C 
BRANCH  12  13
ATOM     13  C   UNL     1      36.218 -20.656 -19.128  0.00  0.00    -0.003 C 
ATOM     14  C   UNL     1      34.940 -20.814 -19.667  0.00  0.00    -0.003 C 
ATOM     15  C   UNL     1      37.129 -19.793 -19.737  0.00  0.00    -0.003 C 
ATOM     16  C   UNL     1      34.575 -20.110 -20.813  0.00  0.00    +0.002 C 
ATOM     17  C   UNL     1      36.763 -19.088 -20.883  0.00  0.00    +0.002 C 
ATOM     18  C   UNL     1      35.486 -19.246 -21.422  0.00  0.00    +0.031 C 
BRANCH  18  21
ATOM     19  N   UNL     1      35.539 -17.206 -22.837  0.00  0.00    -0.343 N 
ATOM     20  N   UNL     1      34.322 -19.081 -23.517  0.00  0.00    -0.285 NA
ATOM     21  C   UNL     1      35.104 -18.511 -22.616  0.00  0.00    +0.117 C 
ATOM     22  H   UNL     1      35.269 -16.727 -23.653  0.00  0.00    +0.144 HD
ATOM     23  H   UNL     1      36.119 -16.763 -22.176  0.00  0.00    +0.144 HD
ATOM     24  H   UNL     1      34.063 -18.586 -24.327  0.00  0.00    +0.188 HD
ENDBRANCH  18  21
ENDBRANCH  12  13
ENDBRANCH   9  12
ENDBRANCH   3  10
BRANCH   7  25
ATOM     25  C   UNL     1      34.787 -23.968 -13.238  0.00  0.00    +0.006 C 
BRANCH  25  26
ATOM     26  N   UNL     1      34.812 -25.388 -13.545  0.00  0.00    +0.391 N 
ATOM     27  H   UNL     1      34.151 -25.874 -12.938  0.00  0.00    -0.084 HD
ATOM     28  H   UNL     1      34.552 -25.518 -14.523  0.00  0.00    -0.084 HD
BRANCH  26  29
ATOM     29  C   UNL     1      36.156 -25.937 -13.334  0.00  0.00    -0.061 C 
ATOM     30  C   UNL     1      36.834 -25.115 -12.232  0.00  0.00    -0.021 C 
ATOM     31  C   UNL     1      36.900 -25.947 -14.677  0.00  0.00    -0.021 C 
ATOM     32  C   UNL     1      38.280 -25.504 -11.923  0.00  0.00    -0.002 C 
ATOM     33  C   UNL     1      38.186 -26.772 -14.636  0.00  0.00    -0.002 C 
ATOM     34  C   UNL     1      39.255 -25.050 -13.004  0.00  0.00    -0.000 C 
ATOM     35  C   UNL     1      39.427 -26.021 -14.167  0.00  0.00    -0.000 C 
ENDBRANCH  26  29
ENDBRANCH  25  26
ENDBRANCH   7  25
TORSDOF 7
ENDMDL
