MODEL 1
REMARK VINA RESULT:     -11.2      0.000      0.000
REMARK  Name = 9887812
REMARK  11 active torsions:
REMARK  status: ('A' for Active; 'I' for Inactive)
REMARK    1  A    between atoms: N_1  and  C_3
REMARK    2  A    between atoms: N_1  and  C_19
REMARK    3  A    between atoms: C_4  and  C_9
REMARK    4  A    between atoms: C_12  and  C_16
REMARK    5  A    between atoms: C_16  and  O_17
REMARK    6  A    between atoms: C_19  and  C_20
REMARK    7  A    between atoms: C_20  and  N_21
REMARK    8  A    between atoms: N_21  and  C_24
REMARK    9  A    between atoms: C_24  and  C_25
REMARK   10  A    between atoms: C_25  and  C_27
REMARK   11  A    between atoms: C_25  and  O_33
REMARK                            x       y       z     vdW  Elec       q    Type
REMARK                         _______ _______ _______ _____ _____    ______ ____
ROOT
ATOM      1  N   UNL     1      35.319 -15.309 -23.073  0.00  0.00    -0.335 N 
ATOM      2  H   UNL     1      36.128 -14.974 -23.522  0.00  0.00    +0.147 HD
ENDROOT
BRANCH   1   3
ATOM      3  C   UNL     1      35.038 -16.690 -23.134  0.00  0.00    +0.045 C 
ATOM      4  C   UNL     1      35.032 -18.872 -22.099  0.00  0.00    +0.001 C 
ATOM      5  C   UNL     1      35.310 -17.506 -22.037  0.00  0.00    +0.014 C 
ATOM      6  C   UNL     1      34.489 -17.239 -24.293  0.00  0.00    +0.014 C 
ATOM      7  C   UNL     1      34.483 -19.422 -23.258  0.00  0.00    +0.000 C 
ATOM      8  C   UNL     1      34.212 -18.604 -24.355  0.00  0.00    +0.001 C 
BRANCH   4   9
ATOM      9  C   UNL     1      35.314 -19.719 -20.960  0.00  0.00    +0.000 C 
ATOM     10  C   UNL     1      34.324 -20.561 -20.454  0.00  0.00    +0.006 C 
ATOM     11  C   UNL     1      36.577 -19.694 -20.369  0.00  0.00    +0.000 C 
ATOM     12  C   UNL     1      34.597 -21.377 -19.356  0.00  0.00    +0.075 C 
ATOM     13  C   UNL     1      36.850 -20.510 -19.271  0.00  0.00    +0.000 C 
ATOM     14  C   UNL     1      35.860 -21.352 -18.764  0.00  0.00    +0.006 C 
BRANCH  12  16
ATOM     15  O   UNL     1      32.470 -21.890 -18.386  0.00  0.00    -0.245 OA
ATOM     16  C   UNL     1      33.565 -22.255 -18.828  0.00  0.00    +0.338 C 
BRANCH  16  17
ATOM     17  O   UNL     1      33.929 -23.567 -18.865  0.00  0.00    -0.477 OA
ATOM     18  H   UNL     1      34.397 -23.943 -18.146  0.00  0.00    +0.295 HD
ENDBRANCH  16  17
ENDBRANCH  12  16
ENDBRANCH   4   9
ENDBRANCH   1   3
BRANCH   1  19
ATOM     19  C   UNL     1      34.481 -14.375 -22.385  0.00  0.00    +0.064 C 
BRANCH  19  20
ATOM     20  C   UNL     1      33.746 -13.506 -23.397  0.00  0.00    -0.060 C 
BRANCH  20  21
ATOM     21  N   UNL     1      34.132 -12.109 -23.241  0.00  0.00    +0.387 N 
ATOM     22  H   UNL     1      34.739 -12.020 -22.427  0.00  0.00    -0.084 HD
ATOM     23  H   UNL     1      34.622 -11.810 -24.084  0.00  0.00    -0.084 HD
BRANCH  21  24
ATOM     24  C   UNL     1      32.960 -11.264 -23.058  0.00  0.00    -0.047 C 
BRANCH  24  25
ATOM     25  C   UNL     1      32.128 -11.738 -21.861  0.00  0.00    +0.112 C 
BRANCH  25  27
ATOM     26 CL   UNL     1      32.164  -6.676 -20.672  0.00  0.00    -0.082 Cl
ATOM     27  C   UNL     1      31.997 -10.655 -20.813  0.00  0.00    +0.003 C 
ATOM     28  C   UNL     1      32.127  -9.330 -21.191  0.00  0.00    +0.009 C 
ATOM     29  C   UNL     1      31.747 -11.012 -19.499  0.00  0.00    -0.002 C 
ATOM     30  C   UNL     1      32.006  -8.331 -20.225  0.00  0.00    +0.057 C 
ATOM     31  C   UNL     1      31.626 -10.013 -18.533  0.00  0.00    +0.001 C 
ATOM     32  C   UNL     1      31.755  -8.673 -18.896  0.00  0.00    +0.011 C 
ENDBRANCH  25  27
BRANCH  25  33
ATOM     33  O   UNL     1      30.817 -12.108 -22.285  0.00  0.00    -0.382 OA
ATOM     34  H   UNL     1      30.535 -11.526 -23.009  0.00  0.00    +0.211 HD
ENDBRANCH  25  33
ENDBRANCH  24  25
ENDBRANCH  21  24
ENDBRANCH  20  21
ENDBRANCH  19  20
ENDBRANCH   1  19
TORSDOF 11
ENDMDL
MODEL 2
REMARK VINA RESULT:     -11.1      1.805      2.392
REMARK  Name = 9887812
REMARK  11 active torsions:
REMARK  status: ('A' for Active; 'I' for Inactive)
REMARK    1  A    between atoms: N_1  and  C_3
REMARK    2  A    between atoms: N_1  and  C_19
REMARK    3  A    between atoms: C_4  and  C_9
REMARK    4  A    between atoms: C_12  and  C_16
REMARK    5  A    between atoms: C_16  and  O_17
REMARK    6  A    between atoms: C_19  and  C_20
REMARK    7  A    between atoms: C_20  and  N_21
REMARK    8  A    between atoms: N_21  and  C_24
REMARK    9  A    between atoms: C_24  and  C_25
REMARK   10  A    between atoms: C_25  and  C_27
REMARK   11  A    between atoms: C_25  and  O_33
REMARK                            x       y       z     vdW  Elec       q    Type
REMARK                         _______ _______ _______ _____ _____    ______ ____
ROOT
ATOM      1  N   UNL     1      34.668 -14.287 -22.150  0.00  0.00    -0.335 N 
ATOM      2  H   UNL     1      35.081 -13.590 -22.709  0.00  0.00    +0.147 HD
ENDROOT
BRANCH   1   3
ATOM      3  C   UNL     1      34.766 -15.631 -22.565  0.00  0.00    +0.045 C 
ATOM      4  C   UNL     1      35.191 -17.954 -22.055  0.00  0.00    +0.001 C 
ATOM      5  C   UNL     1      35.094 -16.624 -21.643  0.00  0.00    +0.014 C 
ATOM      6  C   UNL     1      34.537 -15.967 -23.900  0.00  0.00    +0.014 C 
ATOM      7  C   UNL     1      34.962 -18.290 -23.389  0.00  0.00    +0.000 C 
ATOM      8  C   UNL     1      34.636 -17.295 -24.312  0.00  0.00    +0.001 C 
BRANCH   4   9
ATOM      9  C   UNL     1      35.531 -18.984 -21.098  0.00  0.00    +0.000 C 
ATOM     10  C   UNL     1      34.559 -19.889 -20.671  0.00  0.00    +0.006 C 
ATOM     11  C   UNL     1      36.832 -19.072 -20.602  0.00  0.00    +0.000 C 
ATOM     12  C   UNL     1      34.888 -20.881 -19.748  0.00  0.00    +0.075 C 
ATOM     13  C   UNL     1      37.160 -20.064 -19.678  0.00  0.00    +0.000 C 
ATOM     14  C   UNL     1      36.188 -20.970 -19.251  0.00  0.00    +0.006 C 
BRANCH  12  16
ATOM     15  O   UNL     1      32.670 -21.580 -19.182  0.00  0.00    -0.245 OA
ATOM     16  C   UNL     1      33.875 -21.826 -19.304  0.00  0.00    +0.338 C 
BRANCH  16  17
ATOM     17  O   UNL     1      34.395 -23.053 -19.023  0.00  0.00    -0.477 OA
ATOM     18  H   UNL     1      35.015 -23.443 -19.606  0.00  0.00    +0.295 HD
ENDBRANCH  16  17
ENDBRANCH  12  16
ENDBRANCH   4   9
ENDBRANCH   1   3
BRANCH   1  19
ATOM     19  C   UNL     1      33.996 -13.891 -20.950  0.00  0.00    +0.064 C 
BRANCH  19  20
ATOM     20  C   UNL     1      32.565 -13.484 -21.276  0.00  0.00    -0.060 C 
BRANCH  20  21
ATOM     21  N   UNL     1      32.488 -12.937 -22.625  0.00  0.00    +0.387 N 
ATOM     22  H   UNL     1      33.321 -13.214 -23.145  0.00  0.00    -0.084 HD
ATOM     23  H   UNL     1      31.650 -13.302 -23.077  0.00  0.00    -0.084 HD
BRANCH  21  24
ATOM     24  C   UNL     1      32.406 -11.484 -22.593  0.00  0.00    -0.047 C 
BRANCH  24  25
ATOM     25  C   UNL     1      33.380 -10.860 -23.601  0.00  0.00    +0.112 C 
BRANCH  25  27
ATOM     26 CL   UNL     1      32.354  -6.557 -20.867  0.00  0.00    -0.082 Cl
ATOM     27  C   UNL     1      33.787  -9.464 -23.186  0.00  0.00    +0.003 C 
ATOM     28  C   UNL     1      32.974  -8.750 -22.323  0.00  0.00    +0.009 C 
ATOM     29  C   UNL     1      34.966  -8.929 -23.678  0.00  0.00    -0.002 C 
ATOM     30  C   UNL     1      33.350  -7.463 -21.940  0.00  0.00    +0.057 C 
ATOM     31  C   UNL     1      35.342  -7.642 -23.295  0.00  0.00    +0.001 C 
ATOM     32  C   UNL     1      34.534  -6.909 -22.426  0.00  0.00    +0.011 C 
ENDBRANCH  25  27
BRANCH  25  33
ATOM     33  O   UNL     1      34.559 -11.656 -23.706  0.00  0.00    -0.382 OA
ATOM     34  H   UNL     1      34.584 -12.296 -22.977  0.00  0.00    +0.211 HD
ENDBRANCH  25  33
ENDBRANCH  24  25
ENDBRANCH  21  24
ENDBRANCH  20  21
ENDBRANCH  19  20
ENDBRANCH   1  19
TORSDOF 11
ENDMDL
MODEL 3
REMARK VINA RESULT:     -11.1      4.554      8.092
REMARK  Name = 9887812
REMARK  11 active torsions:
REMARK  status: ('A' for Active; 'I' for Inactive)
REMARK    1  A    between atoms: N_1  and  C_3
REMARK    2  A    between atoms: N_1  and  C_19
REMARK    3  A    between atoms: C_4  and  C_9
REMARK    4  A    between atoms: C_12  and  C_16
REMARK    5  A    between atoms: C_16  and  O_17
REMARK    6  A    between atoms: C_19  and  C_20
REMARK    7  A    between atoms: C_20  and  N_21
REMARK    8  A    between atoms: N_21  and  C_24
REMARK    9  A    between atoms: C_24  and  C_25
REMARK   10  A    between atoms: C_25  and  C_27
REMARK   11  A    between atoms: C_25  and  O_33
REMARK                            x       y       z     vdW  Elec       q    Type
REMARK                         _______ _______ _______ _____ _____    ______ ____
ROOT
ATOM      1  N   UNL     1      34.871 -22.547 -18.666  0.00  0.00    -0.335 N 
ATOM      2  H   UNL     1      34.692 -23.269 -19.311  0.00  0.00    +0.147 HD
ENDROOT
BRANCH   1   3
ATOM      3  C   UNL     1      34.491 -22.736 -17.321  0.00  0.00    +0.045 C 
ATOM      4  C   UNL     1      32.805 -23.279 -15.678  0.00  0.00    +0.001 C 
ATOM      5  C   UNL     1      33.180 -23.092 -17.010  0.00  0.00    +0.014 C 
ATOM      6  C   UNL     1      35.428 -22.566 -16.302  0.00  0.00    +0.014 C 
ATOM      7  C   UNL     1      33.742 -23.109 -14.659  0.00  0.00    +0.000 C 
ATOM      8  C   UNL     1      35.054 -22.752 -14.972  0.00  0.00    +0.001 C 
BRANCH   4   9
ATOM      9  C   UNL     1      31.444 -23.648 -15.356  0.00  0.00    +0.000 C 
ATOM     10  C   UNL     1      30.383 -23.109 -16.084  0.00  0.00    +0.006 C 
ATOM     11  C   UNL     1      31.193 -24.543 -14.316  0.00  0.00    +0.000 C 
ATOM     12  C   UNL     1      29.071 -23.465 -15.771  0.00  0.00    +0.075 C 
ATOM     13  C   UNL     1      29.880 -24.899 -14.004  0.00  0.00    +0.000 C 
ATOM     14  C   UNL     1      28.819 -24.360 -14.732  0.00  0.00    +0.006 C 
BRANCH  12  16
ATOM     15  O   UNL     1      27.562 -21.738 -16.455  0.00  0.00    -0.245 OA
ATOM     16  C   UNL     1      27.965 -22.904 -16.530  0.00  0.00    +0.338 C 
BRANCH  16  17
ATOM     17  O   UNL     1      27.390 -23.815 -17.363  0.00  0.00    -0.477 OA
ATOM     18  H   UNL     1      27.159 -24.663 -17.041  0.00  0.00    +0.295 HD
ENDBRANCH  16  17
ENDBRANCH  12  16
ENDBRANCH   4   9
ENDBRANCH   1   3
BRANCH   1  19
ATOM     19  C   UNL     1      35.506 -21.353 -19.134  0.00  0.00    +0.064 C 
BRANCH  19  20
ATOM     20  C   UNL     1      34.509 -20.522 -19.930  0.00  0.00    -0.060 C 
BRANCH  20  21
ATOM     21  N   UNL     1      35.195 -19.451 -20.642  0.00  0.00    +0.387 N 
ATOM     22  H   UNL     1      34.990 -18.562 -20.185  0.00  0.00    -0.084 HD
ATOM     23  H   UNL     1      36.198 -19.637 -20.623  0.00  0.00    -0.084 HD
BRANCH  21  24
ATOM     24  C   UNL     1      34.759 -19.387 -22.030  0.00  0.00    -0.047 C 
BRANCH  24  25
ATOM     25  C   UNL     1      35.705 -18.508 -22.859  0.00  0.00    +0.112 C 
BRANCH  25  27
ATOM     26 CL   UNL     1      34.467 -13.702 -21.308  0.00  0.00    -0.082 Cl
ATOM     27  C   UNL     1      35.081 -17.168 -23.176  0.00  0.00    +0.003 C 
ATOM     28  C   UNL     1      35.069 -16.181 -22.206  0.00  0.00    +0.009 C 
ATOM     29  C   UNL     1      34.536 -16.956 -24.431  0.00  0.00    -0.002 C 
ATOM     30  C   UNL     1      34.493 -14.944 -22.500  0.00  0.00    +0.057 C 
ATOM     31  C   UNL     1      33.960 -15.720 -24.724  0.00  0.00    +0.001 C 
ATOM     32  C   UNL     1      33.939 -14.714 -23.759  0.00  0.00    +0.011 C 
ENDBRANCH  25  27
BRANCH  25  33
ATOM     33  O   UNL     1      36.918 -18.277 -22.144  0.00  0.00    -0.382 OA
ATOM     34  H   UNL     1      36.738 -17.714 -21.375  0.00  0.00    +0.211 HD
ENDBRANCH  25  33
ENDBRANCH  24  25
ENDBRANCH  21  24
ENDBRANCH  20  21
ENDBRANCH  19  20
ENDBRANCH   1  19
TORSDOF 11
ENDMDL
MODEL 4
REMARK VINA RESULT:     -11.0      5.469      8.845
REMARK  Name = 9887812
REMARK  11 active torsions:
REMARK  status: ('A' for Active; 'I' for Inactive)
REMARK    1  A    between atoms: N_1  and  C_3
REMARK    2  A    between atoms: N_1  and  C_19
REMARK    3  A    between atoms: C_4  and  C_9
REMARK    4  A    between atoms: C_12  and  C_16
REMARK    5  A    between atoms: C_16  and  O_17
REMARK    6  A    between atoms: C_19  and  C_20
REMARK    7  A    between atoms: C_20  and  N_21
REMARK    8  A    between atoms: N_21  and  C_24
REMARK    9  A    between atoms: C_24  and  C_25
REMARK   10  A    between atoms: C_25  and  C_27
REMARK   11  A    between atoms: C_25  and  O_33
REMARK                            x       y       z     vdW  Elec       q    Type
REMARK                         _______ _______ _______ _____ _____    ______ ____
ROOT
ATOM      1  N   UNL     1      32.647 -22.739 -17.888  0.00  0.00    -0.335 N 
ATOM      2  H   UNL     1      31.857 -22.863 -18.462  0.00  0.00    +0.147 HD
ENDROOT
BRANCH   1   3
ATOM      3  C   UNL     1      32.533 -23.031 -16.513  0.00  0.00    +0.045 C 
ATOM      4  C   UNL     1      33.522 -23.804 -14.448  0.00  0.00    +0.001 C 
ATOM      5  C   UNL     1      33.636 -23.514 -15.809  0.00  0.00    +0.014 C 
ATOM      6  C   UNL     1      31.317 -22.839 -15.857  0.00  0.00    +0.014 C 
ATOM      7  C   UNL     1      32.306 -23.612 -13.793  0.00  0.00    +0.000 C 
ATOM      8  C   UNL     1      31.203 -23.129 -14.498  0.00  0.00    +0.001 C 
BRANCH   4   9
ATOM      9  C   UNL     1      34.666 -24.305 -13.718  0.00  0.00    +0.000 C 
ATOM     10  C   UNL     1      34.817 -24.004 -12.364  0.00  0.00    +0.006 C 
ATOM     11  C   UNL     1      35.620 -25.088 -14.369  0.00  0.00    +0.000 C 
ATOM     12  C   UNL     1      35.920 -24.487 -11.661  0.00  0.00    +0.075 C 
ATOM     13  C   UNL     1      36.724 -25.571 -13.666  0.00  0.00    +0.000 C 
ATOM     14  C   UNL     1      36.874 -25.270 -12.311  0.00  0.00    +0.006 C 
BRANCH  12  16
ATOM     15  O   UNL     1      35.446 -24.700  -9.326  0.00  0.00    -0.245 OA
ATOM     16  C   UNL     1      36.077 -24.175 -10.249  0.00  0.00    +0.338 C 
BRANCH  16  17
ATOM     17  O   UNL     1      37.018 -23.215 -10.029  0.00  0.00    -0.477 OA
ATOM     18  H   UNL     1      37.594 -23.285  -9.294  0.00  0.00    +0.295 HD
ENDBRANCH  16  17
ENDBRANCH  12  16
ENDBRANCH   4   9
ENDBRANCH   1   3
BRANCH   1  19
ATOM     19  C   UNL     1      33.860 -22.273 -18.485  0.00  0.00    +0.064 C 
BRANCH  19  20
ATOM     20  C   UNL     1      33.546 -21.170 -19.488  0.00  0.00    -0.060 C 
BRANCH  20  21
ATOM     21  N   UNL     1      34.769 -20.486 -19.890  0.00  0.00    +0.387 N 
ATOM     22  H   UNL     1      35.024 -19.810 -19.169  0.00  0.00    -0.084 HD
ATOM     23  H   UNL     1      35.508 -21.179 -20.005  0.00  0.00    -0.084 HD
BRANCH  21  24
ATOM     24  C   UNL     1      34.582 -19.788 -21.154  0.00  0.00    -0.047 C 
BRANCH  24  25
ATOM     25  C   UNL     1      35.790 -18.897 -21.468  0.00  0.00    +0.112 C 
BRANCH  25  27
ATOM     26 CL   UNL     1      34.471 -13.971 -20.452  0.00  0.00    -0.082 Cl
ATOM     27  C   UNL     1      35.359 -17.541 -21.983  0.00  0.00    +0.003 C 
ATOM     28  C   UNL     1      35.143 -16.514 -21.081  0.00  0.00    +0.009 C 
ATOM     29  C   UNL     1      35.193 -17.357 -23.345  0.00  0.00    -0.002 C 
ATOM     30  C   UNL     1      34.746 -15.263 -21.556  0.00  0.00    +0.057 C 
ATOM     31  C   UNL     1      34.796 -16.107 -23.819  0.00  0.00    +0.001 C 
ATOM     32  C   UNL     1      34.573 -15.060 -22.925  0.00  0.00    +0.011 C 
ENDBRANCH  25  27
BRANCH  25  33
ATOM     33  O   UNL     1      36.577 -18.700 -20.295  0.00  0.00    -0.382 OA
ATOM     34  H   UNL     1      36.318 -17.868 -19.868  0.00  0.00    +0.211 HD
ENDBRANCH  25  33
ENDBRANCH  24  25
ENDBRANCH  21  24
ENDBRANCH  20  21
ENDBRANCH  19  20
ENDBRANCH   1  19
TORSDOF 11
ENDMDL
MODEL 5
REMARK VINA RESULT:     -11.0      6.168     11.343
REMARK  Name = 9887812
REMARK  11 active torsions:
REMARK  status: ('A' for Active; 'I' for Inactive)
REMARK    1  A    between atoms: N_1  and  C_3
REMARK    2  A    between atoms: N_1  and  C_19
REMARK    3  A    between atoms: C_4  and  C_9
REMARK    4  A    between atoms: C_12  and  C_16
REMARK    5  A    between atoms: C_16  and  O_17
REMARK    6  A    between atoms: C_19  and  C_20
REMARK    7  A    between atoms: C_20  and  N_21
REMARK    8  A    between atoms: N_21  and  C_24
REMARK    9  A    between atoms: C_24  and  C_25
REMARK   10  A    between atoms: C_25  and  C_27
REMARK   11  A    between atoms: C_25  and  O_33
REMARK                            x       y       z     vdW  Elec       q    Type
REMARK                         _______ _______ _______ _____ _____    ______ ____
ROOT
ATOM      1  N   UNL     1      32.990 -22.281 -18.508  0.00  0.00    -0.335 N 
ATOM      2  H   UNL     1      32.126 -22.104 -18.946  0.00  0.00    +0.147 HD
ENDROOT
BRANCH   1   3
ATOM      3  C   UNL     1      34.139 -21.629 -19.000  0.00  0.00    +0.045 C 
ATOM      4  C   UNL     1      35.159 -20.024 -20.491  0.00  0.00    +0.001 C 
ATOM      5  C   UNL     1      34.021 -20.668 -20.004  0.00  0.00    +0.014 C 
ATOM      6  C   UNL     1      35.396 -21.945 -18.483  0.00  0.00    +0.014 C 
ATOM      7  C   UNL     1      36.415 -20.340 -19.974  0.00  0.00    +0.000 C 
ATOM      8  C   UNL     1      36.533 -21.302 -18.970  0.00  0.00    +0.001 C 
BRANCH   4   9
ATOM      9  C   UNL     1      35.035 -19.027 -21.533  0.00  0.00    +0.000 C 
ATOM     10  C   UNL     1      35.033 -17.671 -21.205  0.00  0.00    +0.006 C 
ATOM     11  C   UNL     1      34.919 -19.423 -22.865  0.00  0.00    +0.000 C 
ATOM     12  C   UNL     1      34.913 -16.712 -22.210  0.00  0.00    +0.075 C 
ATOM     13  C   UNL     1      34.799 -18.463 -23.870  0.00  0.00    +0.000 C 
ATOM     14  C   UNL     1      34.796 -17.107 -23.543  0.00  0.00    +0.006 C 
BRANCH  12  16
ATOM     15  O   UNL     1      34.982 -14.366 -22.679  0.00  0.00    -0.245 OA
ATOM     16  C   UNL     1      34.912 -15.298 -21.870  0.00  0.00    +0.338 C 
BRANCH  16  17
ATOM     17  O   UNL     1      34.823 -15.085 -20.527  0.00  0.00    -0.477 OA
ATOM     18  H   UNL     1      35.259 -15.662 -19.933  0.00  0.00    +0.295 HD
ENDBRANCH  16  17
ENDBRANCH  12  16
ENDBRANCH   4   9
ENDBRANCH   1   3
BRANCH   1  19
ATOM     19  C   UNL     1      33.023 -23.184 -17.400  0.00  0.00    +0.064 C 
BRANCH  19  20
ATOM     20  C   UNL     1      31.938 -22.808 -16.400  0.00  0.00    -0.060 C 
BRANCH  20  21
ATOM     21  N   UNL     1      31.925 -23.749 -15.287  0.00  0.00    +0.387 N 
ATOM     22  H   UNL     1      30.985 -23.786 -14.892  0.00  0.00    -0.084 HD
ATOM     23  H   UNL     1      32.202 -24.667 -15.633  0.00  0.00    -0.084 HD
BRANCH  21  24
ATOM     24  C   UNL     1      32.863 -23.341 -14.250  0.00  0.00    -0.047 C 
BRANCH  24  25
ATOM     25  C   UNL     1      33.835 -24.479 -13.915  0.00  0.00    +0.112 C 
BRANCH  25  27
ATOM     26 CL   UNL     1      38.840 -25.860 -14.199  0.00  0.00    -0.082 Cl
ATOM     27  C   UNL     1      35.256 -24.120 -14.288  0.00  0.00    +0.003 C 
ATOM     28  C   UNL     1      36.263 -25.050 -14.090  0.00  0.00    +0.009 C 
ATOM     29  C   UNL     1      35.520 -22.870 -14.821  0.00  0.00    -0.002 C 
ATOM     30  C   UNL     1      37.573 -24.719 -14.436  0.00  0.00    +0.057 C 
ATOM     31  C   UNL     1      36.830 -22.539 -15.165  0.00  0.00    +0.001 C 
ATOM     32  C   UNL     1      37.857 -23.463 -14.973  0.00  0.00    +0.011 C 
ENDBRANCH  25  27
BRANCH  25  33
ATOM     33  O   UNL     1      33.799 -24.765 -12.518  0.00  0.00    -0.382 OA
ATOM     34  H   UNL     1      33.461 -25.664 -12.380  0.00  0.00    +0.211 HD
ENDBRANCH  25  33
ENDBRANCH  24  25
ENDBRANCH  21  24
ENDBRANCH  20  21
ENDBRANCH  19  20
ENDBRANCH   1  19
TORSDOF 11
ENDMDL
MODEL 6
REMARK VINA RESULT:     -10.9      4.902      8.229
REMARK  Name = 9887812
REMARK  11 active torsions:
REMARK  status: ('A' for Active; 'I' for Inactive)
REMARK    1  A    between atoms: N_1  and  C_3
REMARK    2  A    between atoms: N_1  and  C_19
REMARK    3  A    between atoms: C_4  and  C_9
REMARK    4  A    between atoms: C_12  and  C_16
REMARK    5  A    between atoms: C_16  and  O_17
REMARK    6  A    between atoms: C_19  and  C_20
REMARK    7  A    between atoms: C_20  and  N_21
REMARK    8  A    between atoms: N_21  and  C_24
REMARK    9  A    between atoms: C_24  and  C_25
REMARK   10  A    between atoms: C_25  and  C_27
REMARK   11  A    between atoms: C_25  and  O_33
REMARK                            x       y       z     vdW  Elec       q    Type
REMARK                         _______ _______ _______ _____ _____    ______ ____
ROOT
ATOM      1  N   UNL     1      32.696 -22.380 -18.306  0.00  0.00    -0.335 N 
ATOM      2  H   UNL     1      31.859 -22.351 -18.824  0.00  0.00    +0.147 HD
ENDROOT
BRANCH   1   3
ATOM      3  C   UNL     1      32.637 -22.780 -16.955  0.00  0.00    +0.045 C 
ATOM      4  C   UNL     1      33.730 -23.623 -14.972  0.00  0.00    +0.001 C 
ATOM      5  C   UNL     1      33.789 -23.228 -16.308  0.00  0.00    +0.014 C 
ATOM      6  C   UNL     1      31.426 -22.729 -16.264  0.00  0.00    +0.014 C 
ATOM      7  C   UNL     1      32.518 -23.572 -14.281  0.00  0.00    +0.000 C 
ATOM      8  C   UNL     1      31.366 -23.125 -14.929  0.00  0.00    +0.001 C 
BRANCH   4   9
ATOM      9  C   UNL     1      34.925 -24.088 -14.302  0.00  0.00    +0.000 C 
ATOM     10  C   UNL     1      35.603 -25.209 -14.782  0.00  0.00    +0.006 C 
ATOM     11  C   UNL     1      35.399 -23.415 -13.176  0.00  0.00    +0.000 C 
ATOM     12  C   UNL     1      36.755 -25.656 -14.135  0.00  0.00    +0.075 C 
ATOM     13  C   UNL     1      36.551 -23.862 -12.529  0.00  0.00    +0.000 C 
ATOM     14  C   UNL     1      37.229 -24.984 -13.009  0.00  0.00    +0.006 C 
BRANCH  12  16
ATOM     15  O   UNL     1      38.425 -27.368 -14.083  0.00  0.00    -0.245 OA
ATOM     16  C   UNL     1      37.463 -26.824 -14.635  0.00  0.00    +0.338 C 
BRANCH  16  17
ATOM     17  O   UNL     1      36.950 -27.280 -15.811  0.00  0.00    -0.477 OA
ATOM     18  H   UNL     1      36.048 -27.523 -15.865  0.00  0.00    +0.295 HD
ENDBRANCH  16  17
ENDBRANCH  12  16
ENDBRANCH   4   9
ENDBRANCH   1   3
BRANCH   1  19
ATOM     19  C   UNL     1      33.917 -22.019 -18.957  0.00  0.00    +0.064 C 
BRANCH  19  20
ATOM     20  C   UNL     1      33.683 -20.803 -19.844  0.00  0.00    -0.060 C 
BRANCH  20  21
ATOM     21  N   UNL     1      34.956 -20.235 -20.272  0.00  0.00    +0.387 N 
ATOM     22  H   UNL     1      35.306 -19.614 -19.542  0.00  0.00    -0.084 HD
ATOM     23  H   UNL     1      35.614 -20.996 -20.437  0.00  0.00    -0.084 HD
BRANCH  21  24
ATOM     24  C   UNL     1      34.798 -19.479 -21.507  0.00  0.00    -0.047 C 
BRANCH  24  25
ATOM     25  C   UNL     1      35.878 -18.396 -21.624  0.00  0.00    +0.112 C 
BRANCH  25  27
ATOM     26 CL   UNL     1      33.920 -14.991 -25.032  0.00  0.00    -0.082 Cl
ATOM     27  C   UNL     1      35.271 -17.036 -21.890  0.00  0.00    +0.003 C 
ATOM     28  C   UNL     1      34.922 -16.693 -23.185  0.00  0.00    +0.009 C 
ATOM     29  C   UNL     1      35.075 -16.164 -20.832  0.00  0.00    -0.002 C 
ATOM     30  C   UNL     1      34.361 -15.439 -23.429  0.00  0.00    +0.057 C 
ATOM     31  C   UNL     1      34.515 -14.911 -21.077  0.00  0.00    +0.001 C 
ATOM     32  C   UNL     1      34.158 -14.548 -22.375  0.00  0.00    +0.011 C 
ENDBRANCH  25  27
BRANCH  25  33
ATOM     33  O   UNL     1      36.633 -18.318 -20.417  0.00  0.00    -0.382 OA
ATOM     34  H   UNL     1      36.303 -17.585 -19.874  0.00  0.00    +0.211 HD
ENDBRANCH  25  33
ENDBRANCH  24  25
ENDBRANCH  21  24
ENDBRANCH  20  21
ENDBRANCH  19  20
ENDBRANCH   1  19
TORSDOF 11
ENDMDL
MODEL 7
REMARK VINA RESULT:     -10.9      3.632      6.035
REMARK  Name = 9887812
REMARK  11 active torsions:
REMARK  status: ('A' for Active; 'I' for Inactive)
REMARK    1  A    between atoms: N_1  and  C_3
REMARK    2  A    between atoms: N_1  and  C_19
REMARK    3  A    between atoms: C_4  and  C_9
REMARK    4  A    between atoms: C_12  and  C_16
REMARK    5  A    between atoms: C_16  and  O_17
REMARK    6  A    between atoms: C_19  and  C_20
REMARK    7  A    between atoms: C_20  and  N_21
REMARK    8  A    between atoms: N_21  and  C_24
REMARK    9  A    between atoms: C_24  and  C_25
REMARK   10  A    between atoms: C_25  and  C_27
REMARK   11  A    between atoms: C_25  and  O_33
REMARK                            x       y       z     vdW  Elec       q    Type
REMARK                         _______ _______ _______ _____ _____    ______ ____
ROOT
ATOM      1  N   UNL     1      30.588 -11.391 -21.172  0.00  0.00    -0.335 N 
ATOM      2  H   UNL     1      29.776 -11.930 -21.312  0.00  0.00    +0.147 HD
ENDROOT
BRANCH   1   3
ATOM      3  C   UNL     1      31.669 -11.559 -22.062  0.00  0.00    +0.045 C 
ATOM      4  C   UNL     1      33.228 -13.003 -23.211  0.00  0.00    +0.001 C 
ATOM      5  C   UNL     1      32.158 -12.837 -22.331  0.00  0.00    +0.014 C 
ATOM      6  C   UNL     1      32.251 -10.447 -22.671  0.00  0.00    +0.014 C 
ATOM      7  C   UNL     1      33.810 -11.891 -23.820  0.00  0.00    +0.000 C 
ATOM      8  C   UNL     1      33.321 -10.613 -23.549  0.00  0.00    +0.001 C 
BRANCH   4   9
ATOM      9  C   UNL     1      33.735 -14.329 -23.490  0.00  0.00    +0.000 C 
ATOM     10  C   UNL     1      34.397 -15.048 -22.494  0.00  0.00    +0.006 C 
ATOM     11  C   UNL     1      33.563 -14.888 -24.756  0.00  0.00    +0.000 C 
ATOM     12  C   UNL     1      34.886 -16.325 -22.765  0.00  0.00    +0.075 C 
ATOM     13  C   UNL     1      34.052 -16.167 -25.027  0.00  0.00    +0.000 C 
ATOM     14  C   UNL     1      34.714 -16.886 -24.030  0.00  0.00    +0.006 C 
BRANCH  12  16
ATOM     15  O   UNL     1      35.355 -16.988 -20.513  0.00  0.00    -0.245 OA
ATOM     16  C   UNL     1      35.574 -17.076 -21.726  0.00  0.00    +0.338 C 
BRANCH  16  17
ATOM     17  O   UNL     1      36.520 -17.916 -22.231  0.00  0.00    -0.477 OA
ATOM     18  H   UNL     1      36.455 -18.216 -23.116  0.00  0.00    +0.295 HD
ENDBRANCH  16  17
ENDBRANCH  12  16
ENDBRANCH   4   9
ENDBRANCH   1   3
BRANCH   1  19
ATOM     19  C   UNL     1      30.617 -10.469 -20.079  0.00  0.00    +0.064 C 
BRANCH  19  20
ATOM     20  C   UNL     1      31.770 -10.817 -19.147  0.00  0.00    -0.060 C 
BRANCH  20  21
ATOM     21  N   UNL     1      32.260  -9.619 -18.476  0.00  0.00    +0.387 N 
ATOM     22  H   UNL     1      31.831  -9.555 -17.553  0.00  0.00    -0.084 HD
ATOM     23  H   UNL     1      33.274  -9.684 -18.393  0.00  0.00    -0.084 HD
BRANCH  21  24
ATOM     24  C   UNL     1      31.930  -8.424 -19.241  0.00  0.00    -0.047 C 
BRANCH  24  25
ATOM     25  C   UNL     1      33.192  -7.806 -19.856  0.00  0.00    +0.112 C 
BRANCH  25  27
ATOM     26 CL   UNL     1      35.013  -6.114 -24.424  0.00  0.00    -0.082 Cl
ATOM     27  C   UNL     1      32.913  -7.227 -21.226  0.00  0.00    +0.003 C 
ATOM     28  C   UNL     1      33.971  -6.972 -22.081  0.00  0.00    +0.009 C 
ATOM     29  C   UNL     1      31.604  -6.967 -21.595  0.00  0.00    -0.002 C 
ATOM     30  C   UNL     1      33.712  -6.439 -23.344  0.00  0.00    +0.057 C 
ATOM     31  C   UNL     1      31.346  -6.433 -22.858  0.00  0.00    +0.001 C 
ATOM     32  C   UNL     1      32.400  -6.170 -23.732  0.00  0.00    +0.011 C 
ENDBRANCH  25  27
BRANCH  25  33
ATOM     33  O   UNL     1      33.687  -6.760 -19.023  0.00  0.00    -0.382 OA
ATOM     34  H   UNL     1      33.993  -6.023 -19.575  0.00  0.00    +0.211 HD
ENDBRANCH  25  33
ENDBRANCH  24  25
ENDBRANCH  21  24
ENDBRANCH  20  21
ENDBRANCH  19  20
ENDBRANCH   1  19
TORSDOF 11
ENDMDL
MODEL 8
REMARK VINA RESULT:     -10.7      1.751      2.360
REMARK  Name = 9887812
REMARK  11 active torsions:
REMARK  status: ('A' for Active; 'I' for Inactive)
REMARK    1  A    between atoms: N_1  and  C_3
REMARK    2  A    between atoms: N_1  and  C_19
REMARK    3  A    between atoms: C_4  and  C_9
REMARK    4  A    between atoms: C_12  and  C_16
REMARK    5  A    between atoms: C_16  and  O_17
REMARK    6  A    between atoms: C_19  and  C_20
REMARK    7  A    between atoms: C_20  and  N_21
REMARK    8  A    between atoms: N_21  and  C_24
REMARK    9  A    between atoms: C_24  and  C_25
REMARK   10  A    between atoms: C_25  and  C_27
REMARK   11  A    between atoms: C_25  and  O_33
REMARK                            x       y       z     vdW  Elec       q    Type
REMARK                         _______ _______ _______ _____ _____    ______ ____
ROOT
ATOM      1  N   UNL     1      34.517 -14.123 -21.625  0.00  0.00    -0.335 N 
ATOM      2  H   UNL     1      35.249 -13.720 -21.105  0.00  0.00    +0.147 HD
ENDROOT
BRANCH   1   3
ATOM      3  C   UNL     1      34.708 -15.407 -22.174  0.00  0.00    +0.045 C 
ATOM      4  C   UNL     1      35.162 -17.762 -21.883  0.00  0.00    +0.001 C 
ATOM      5  C   UNL     1      34.973 -16.492 -21.339  0.00  0.00    +0.014 C 
ATOM      6  C   UNL     1      34.634 -15.593 -23.555  0.00  0.00    +0.014 C 
ATOM      7  C   UNL     1      35.088 -17.948 -23.263  0.00  0.00    +0.000 C 
ATOM      8  C   UNL     1      34.824 -16.863 -24.100  0.00  0.00    +0.001 C 
BRANCH   4   9
ATOM      9  C   UNL     1      35.437 -18.887 -21.015  0.00  0.00    +0.000 C 
ATOM     10  C   UNL     1      34.394 -19.709 -20.587  0.00  0.00    +0.006 C 
ATOM     11  C   UNL     1      36.745 -19.149 -20.607  0.00  0.00    +0.000 C 
ATOM     12  C   UNL     1      34.660 -20.792 -19.750  0.00  0.00    +0.075 C 
ATOM     13  C   UNL     1      37.010 -20.232 -19.770  0.00  0.00    +0.000 C 
ATOM     14  C   UNL     1      35.968 -21.055 -19.341  0.00  0.00    +0.006 C 
BRANCH  12  16
ATOM     15  O   UNL     1      33.652 -22.872 -19.129  0.00  0.00    -0.245 OA
ATOM     16  C   UNL     1      33.574 -21.651 -19.304  0.00  0.00    +0.338 C 
BRANCH  16  17
ATOM     17  O   UNL     1      32.420 -20.961 -19.088  0.00  0.00    -0.477 OA
ATOM     18  H   UNL     1      31.655 -21.411 -18.788  0.00  0.00    +0.295 HD
ENDBRANCH  16  17
ENDBRANCH  12  16
ENDBRANCH   4   9
ENDBRANCH   1   3
BRANCH   1  19
ATOM     19  C   UNL     1      33.305 -13.380 -21.788  0.00  0.00    +0.064 C 
BRANCH  19  20
ATOM     20  C   UNL     1      32.335 -13.733 -20.668  0.00  0.00    -0.060 C 
BRANCH  20  21
ATOM     21  N   UNL     1      32.186 -12.609 -19.752  0.00  0.00    +0.387 N 
ATOM     22  H   UNL     1      31.501 -12.851 -19.036  0.00  0.00    -0.084 HD
ATOM     23  H   UNL     1      33.092 -12.414 -19.325  0.00  0.00    -0.084 HD
BRANCH  21  24
ATOM     24  C   UNL     1      31.739 -11.418 -20.460  0.00  0.00    -0.047 C 
BRANCH  24  25
ATOM     25  C   UNL     1      31.864 -10.175 -19.569  0.00  0.00    +0.112 C 
BRANCH  25  27
ATOM     26 CL   UNL     1      31.168  -7.827 -24.156  0.00  0.00    -0.082 Cl
ATOM     27  C   UNL     1      31.902  -8.906 -20.391  0.00  0.00    +0.003 C 
ATOM     28  C   UNL     1      31.558  -8.958 -21.731  0.00  0.00    +0.009 C 
ATOM     29  C   UNL     1      32.278  -7.719 -19.785  0.00  0.00    -0.002 C 
ATOM     30  C   UNL     1      31.592  -7.787 -22.488  0.00  0.00    +0.057 C 
ATOM     31  C   UNL     1      32.313  -6.549 -20.543  0.00  0.00    +0.001 C 
ATOM     32  C   UNL     1      31.969  -6.582 -21.894  0.00  0.00    +0.011 C 
ENDBRANCH  25  27
BRANCH  25  33
ATOM     33  O   UNL     1      30.755 -10.094 -18.675  0.00  0.00    -0.382 OA
ATOM     34  H   UNL     1      30.223 -10.903 -18.744  0.00  0.00    +0.211 HD
ENDBRANCH  25  33
ENDBRANCH  24  25
ENDBRANCH  21  24
ENDBRANCH  20  21
ENDBRANCH  19  20
ENDBRANCH   1  19
TORSDOF 11
ENDMDL
MODEL 9
REMARK VINA RESULT:     -10.5      5.748     10.965
REMARK  Name = 9887812
REMARK  11 active torsions:
REMARK  status: ('A' for Active; 'I' for Inactive)
REMARK    1  A    between atoms: N_1  and  C_3
REMARK    2  A    between atoms: N_1  and  C_19
REMARK    3  A    between atoms: C_4  and  C_9
REMARK    4  A    between atoms: C_12  and  C_16
REMARK    5  A    between atoms: C_16  and  O_17
REMARK    6  A    between atoms: C_19  and  C_20
REMARK    7  A    between atoms: C_20  and  N_21
REMARK    8  A    between atoms: N_21  and  C_24
REMARK    9  A    between atoms: C_24  and  C_25
REMARK   10  A    between atoms: C_25  and  C_27
REMARK   11  A    between atoms: C_25  and  O_33
REMARK                            x       y       z     vdW  Elec       q    Type
REMARK                         _______ _______ _______ _____ _____    ______ ____
ROOT
ATOM      1  N   UNL     1      36.840 -22.011 -17.705  0.00  0.00    -0.335 N 
ATOM      2  H   UNL     1      37.464 -22.664 -18.098  0.00  0.00    +0.147 HD
ENDROOT
BRANCH   1   3
ATOM      3  C   UNL     1      35.698 -21.640 -18.444  0.00  0.00    +0.045 C 
ATOM      4  C   UNL     1      34.678 -20.344 -20.210  0.00  0.00    +0.001 C 
ATOM      5  C   UNL     1      35.808 -20.711 -19.478  0.00  0.00    +0.014 C 
ATOM      6  C   UNL     1      34.458 -22.201 -18.140  0.00  0.00    +0.014 C 
ATOM      7  C   UNL     1      33.437 -20.906 -19.906  0.00  0.00    +0.000 C 
ATOM      8  C   UNL     1      33.328 -21.834 -18.870  0.00  0.00    +0.001 C 
BRANCH   4   9
ATOM      9  C   UNL     1      34.792 -19.381 -21.282  0.00  0.00    +0.000 C 
ATOM     10  C   UNL     1      34.839 -18.016 -20.993  0.00  0.00    +0.006 C 
ATOM     11  C   UNL     1      34.855 -19.816 -22.606  0.00  0.00    +0.000 C 
ATOM     12  C   UNL     1      34.949 -17.088 -22.028  0.00  0.00    +0.075 C 
ATOM     13  C   UNL     1      34.965 -18.887 -23.641  0.00  0.00    +0.000 C 
ATOM     14  C   UNL     1      35.012 -17.522 -23.352  0.00  0.00    +0.006 C 
BRANCH  12  16
ATOM     15  O   UNL     1      34.855 -15.165 -20.607  0.00  0.00    -0.245 OA
ATOM     16  C   UNL     1      35.000 -15.666 -21.728  0.00  0.00    +0.338 C 
BRANCH  16  17
ATOM     17  O   UNL     1      35.229 -14.907 -22.835  0.00  0.00    -0.477 OA
ATOM     18  H   UNL     1      35.967 -15.090 -23.382  0.00  0.00    +0.295 HD
ENDBRANCH  16  17
ENDBRANCH  12  16
ENDBRANCH   4   9
ENDBRANCH   1   3
BRANCH   1  19
ATOM     19  C   UNL     1      37.131 -21.484 -16.407  0.00  0.00    +0.064 C 
BRANCH  19  20
ATOM     20  C   UNL     1      37.509 -22.620 -15.466  0.00  0.00    -0.060 C 
BRANCH  20  21
ATOM     21  N   UNL     1      36.413 -23.576 -15.360  0.00  0.00    +0.387 N 
ATOM     22  H   UNL     1      36.061 -23.784 -16.294  0.00  0.00    -0.084 HD
ATOM     23  H   UNL     1      36.762 -24.424 -14.914  0.00  0.00    -0.084 HD
BRANCH  21  24
ATOM     24  C   UNL     1      35.329 -23.035 -14.551  0.00  0.00    -0.047 C 
BRANCH  24  25
ATOM     25  C   UNL     1      34.672 -24.140 -13.713  0.00  0.00    +0.112 C 
BRANCH  25  27
ATOM     26 CL   UNL     1      30.536 -22.529 -16.421  0.00  0.00    -0.082 Cl
ATOM     27  C   UNL     1      33.182 -24.211 -13.962  0.00  0.00    +0.003 C 
ATOM     28  C   UNL     1      32.625 -23.427 -14.958  0.00  0.00    +0.009 C 
ATOM     29  C   UNL     1      32.407 -25.060 -13.191  0.00  0.00    -0.002 C 
ATOM     30  C   UNL     1      31.250 -23.495 -15.188  0.00  0.00    +0.057 C 
ATOM     31  C   UNL     1      31.034 -25.127 -13.421  0.00  0.00    +0.001 C 
ATOM     32  C   UNL     1      30.455 -24.345 -14.419  0.00  0.00    +0.011 C 
ENDBRANCH  25  27
BRANCH  25  33
ATOM     33  O   UNL     1      35.239 -25.408 -14.035  0.00  0.00    -0.382 OA
ATOM     34  H   UNL     1      35.038 -26.042 -13.328  0.00  0.00    +0.211 HD
ENDBRANCH  25  33
ENDBRANCH  24  25
ENDBRANCH  21  24
ENDBRANCH  20  21
ENDBRANCH  19  20
ENDBRANCH   1  19
TORSDOF 11
ENDMDL
