MODEL 1
REMARK VINA RESULT:     -11.2      0.000      0.000
REMARK  Name = 24180719
REMARK  6 active torsions:
REMARK  status: ('A' for Active; 'I' for Inactive)
REMARK    1  A    between atoms: C_3  and  N_22
REMARK    2  A    between atoms: C_4  and  C_10
REMARK    3  A    between atoms: C_10  and  C_14
REMARK    4  A    between atoms: N_22  and  S_24
REMARK    5  A    between atoms: S_24  and  C_27
REMARK    6  A    between atoms: C_27  and  C_28
REMARK                            x       y       z     vdW  Elec       q    Type
REMARK                         _______ _______ _______ _____ _____    ______ ____
ROOT
ATOM      1  F   UNL     1      35.464 -16.436 -20.617  0.00  0.00    -0.203 F 
ATOM      2  F   UNL     1      34.925 -20.049 -23.648  0.00  0.00    -0.204 F 
ATOM      3  C   UNL     1      34.878 -15.993 -22.870  0.00  0.00    +0.092 C 
ATOM      4  C   UNL     1      35.202 -18.262 -22.107  0.00  0.00    +0.095 C 
ATOM      5  C   UNL     1      35.185 -16.891 -21.849  0.00  0.00    +0.160 C 
ATOM      6  C   UNL     1      34.588 -16.465 -24.150  0.00  0.00    +0.020 C 
ATOM      7  C   UNL     1      34.912 -18.734 -23.386  0.00  0.00    +0.145 C 
ATOM      8  C   UNL     1      34.605 -17.835 -24.409  0.00  0.00    +0.031 C 
ENDROOT
BRANCH   4  10
ATOM      9  O   UNL     1      36.728 -19.262 -20.673  0.00  0.00    -0.286 OA
ATOM     10  C   UNL     1      35.531 -19.225 -21.012  0.00  0.00    +0.201 C 
BRANCH  10  14
ATOM     11 CL   UNL     1      36.581 -22.798 -16.370  0.00  0.00    -0.081 Cl
ATOM     12  N   UNL     1      32.531 -20.988 -20.059  0.00  0.00    -0.297 N 
ATOM     13  N   UNL     1      33.039 -22.407 -18.181  0.00  0.00    -0.228 NA
ATOM     14  C   UNL     1      34.516 -20.048 -20.420  0.00  0.00    +0.056 C 
ATOM     15  C   UNL     1      34.637 -20.937 -19.319  0.00  0.00    +0.037 C 
ATOM     16  C   UNL     1      33.382 -21.506 -19.119  0.00  0.00    +0.132 C 
ATOM     17  C   UNL     1      33.210 -20.100 -20.855  0.00  0.00    +0.066 C 
ATOM     18  C   UNL     1      35.671 -21.332 -18.455  0.00  0.00    +0.016 C 
ATOM     19  C   UNL     1      35.369 -22.265 -17.464  0.00  0.00    +0.077 C 
ATOM     20  C   UNL     1      34.073 -22.753 -17.379  0.00  0.00    +0.112 C 
ATOM     21  H   UNL     1      31.578 -21.217 -20.150  0.00  0.00    +0.154 HD
ENDBRANCH  10  14
ENDBRANCH   4  10
BRANCH   3  22
ATOM     22  N   UNL     1      34.859 -14.589 -22.609  0.00  0.00    -0.217 N 
ATOM     23  H   UNL     1      35.540 -14.172 -22.034  0.00  0.00    +0.173 HD
BRANCH  22  24
ATOM     24  S   UNL     1      33.611 -13.644 -23.328  0.00  0.00    +0.054 S 
ATOM     25  O   UNL     1      34.138 -12.321 -23.604  0.00  0.00    -0.154 OA
ATOM     26  O   UNL     1      32.924 -14.394 -24.361  0.00  0.00    -0.154 OA
BRANCH  24  27
ATOM     27  C   UNL     1      32.505 -13.481 -21.945  0.00  0.00    +0.172 C 
BRANCH  27  28
ATOM     28  C   UNL     1      33.233 -13.682 -20.627  0.00  0.00    +0.027 C 
ATOM     29  C   UNL     1      32.342 -14.354 -19.595  0.00  0.00    +0.002 C 
ENDBRANCH  27  28
ENDBRANCH  24  27
ENDBRANCH  22  24
ENDBRANCH   3  22
TORSDOF 6
ENDMDL
MODEL 2
REMARK VINA RESULT:     -10.5      6.126      9.991
REMARK  Name = 24180719
REMARK  6 active torsions:
REMARK  status: ('A' for Active; 'I' for Inactive)
REMARK    1  A    between atoms: C_3  and  N_22
REMARK    2  A    between atoms: C_4  and  C_10
REMARK    3  A    between atoms: C_10  and  C_14
REMARK    4  A    between atoms: N_22  and  S_24
REMARK    5  A    between atoms: S_24  and  C_27
REMARK    6  A    between atoms: C_27  and  C_28
REMARK                            x       y       z     vdW  Elec       q    Type
REMARK                         _______ _______ _______ _____ _____    ______ ____
ROOT
ATOM      1  F   UNL     1      35.435 -24.590 -15.713  0.00  0.00    -0.203 F 
ATOM      2  F   UNL     1      31.700 -22.043 -17.160  0.00  0.00    -0.204 F 
ATOM      3  C   UNL     1      33.628 -24.215 -14.224  0.00  0.00    +0.092 C 
ATOM      4  C   UNL     1      33.584 -23.313 -16.465  0.00  0.00    +0.095 C 
ATOM      5  C   UNL     1      34.231 -24.046 -15.470  0.00  0.00    +0.160 C 
ATOM      6  C   UNL     1      32.378 -23.651 -13.972  0.00  0.00    +0.020 C 
ATOM      7  C   UNL     1      32.334 -22.749 -16.213  0.00  0.00    +0.145 C 
ATOM      8  C   UNL     1      31.731 -22.918 -14.966  0.00  0.00    +0.031 C 
ENDROOT
BRANCH   4  10
ATOM      9  O   UNL     1      33.818 -23.884 -18.702  0.00  0.00    -0.286 OA
ATOM     10  C   UNL     1      34.229 -23.132 -17.800  0.00  0.00    +0.201 C 
BRANCH  10  14
ATOM     11 CL   UNL     1      34.324 -19.432 -22.461  0.00  0.00    -0.081 Cl
ATOM     12  N   UNL     1      37.108 -20.962 -17.644  0.00  0.00    -0.297 N 
ATOM     13  N   UNL     1      37.072 -19.501 -19.559  0.00  0.00    -0.228 NA
ATOM     14  C   UNL     1      35.263 -22.156 -17.997  0.00  0.00    +0.056 C 
ATOM     15  C   UNL     1      35.399 -21.222 -19.059  0.00  0.00    +0.037 C 
ATOM     16  C   UNL     1      36.559 -20.493 -18.809  0.00  0.00    +0.132 C 
ATOM     17  C   UNL     1      36.328 -21.973 -17.143  0.00  0.00    +0.066 C 
ATOM     18  C   UNL     1      34.671 -20.902 -20.215  0.00  0.00    +0.016 C 
ATOM     19  C   UNL     1      35.159 -19.881 -21.029  0.00  0.00    +0.077 C 
ATOM     20  C   UNL     1      36.332 -19.236 -20.660  0.00  0.00    +0.112 C 
ATOM     21  H   UNL     1      37.935 -20.625 -17.231  0.00  0.00    +0.154 HD
ENDBRANCH  10  14
ENDBRANCH   4  10
BRANCH   3  22
ATOM     22  N   UNL     1      34.289 -24.966 -13.204  0.00  0.00    -0.217 N 
ATOM     23  H   UNL     1      34.091 -25.920 -13.069  0.00  0.00    +0.173 HD
BRANCH  22  24
ATOM     24  S   UNL     1      35.443 -24.154 -12.216  0.00  0.00    +0.054 S 
ATOM     25  O   UNL     1      36.061 -23.102 -13.002  0.00  0.00    -0.154 OA
ATOM     26  O   UNL     1      34.893 -23.868 -10.906  0.00  0.00    -0.154 OA
BRANCH  24  27
ATOM     27  C   UNL     1      36.657 -25.440 -12.029  0.00  0.00    +0.172 C 
BRANCH  27  28
ATOM     28  C   UNL     1      37.554 -25.536 -13.252  0.00  0.00    +0.027 C 
ATOM     29  C   UNL     1      37.340 -26.843 -13.997  0.00  0.00    +0.002 C 
ENDBRANCH  27  28
ENDBRANCH  24  27
ENDBRANCH  22  24
ENDBRANCH   3  22
TORSDOF 6
ENDMDL
MODEL 3
REMARK VINA RESULT:     -10.4      3.665      5.857
REMARK  Name = 24180719
REMARK  6 active torsions:
REMARK  status: ('A' for Active; 'I' for Inactive)
REMARK    1  A    between atoms: C_3  and  N_22
REMARK    2  A    between atoms: C_4  and  C_10
REMARK    3  A    between atoms: C_10  and  C_14
REMARK    4  A    between atoms: N_22  and  S_24
REMARK    5  A    between atoms: S_24  and  C_27
REMARK    6  A    between atoms: C_27  and  C_28
REMARK                            x       y       z     vdW  Elec       q    Type
REMARK                         _______ _______ _______ _____ _____    ______ ____
ROOT
ATOM      1  F   UNL     1      33.127 -21.621 -19.868  0.00  0.00    -0.203 F 
ATOM      2  F   UNL     1      36.568 -22.698 -16.780  0.00  0.00    -0.204 F 
ATOM      3  C   UNL     1      35.178 -20.436 -19.945  0.00  0.00    +0.092 C 
ATOM      4  C   UNL     1      34.826 -22.182 -18.312  0.00  0.00    +0.095 C 
ATOM      5  C   UNL     1      34.361 -21.415 -19.381  0.00  0.00    +0.160 C 
ATOM      6  C   UNL     1      36.460 -20.222 -19.440  0.00  0.00    +0.020 C 
ATOM      7  C   UNL     1      36.108 -21.968 -17.807  0.00  0.00    +0.145 C 
ATOM      8  C   UNL     1      36.926 -20.987 -18.371  0.00  0.00    +0.031 C 
ENDROOT
BRANCH   4  10
ATOM      9  O   UNL     1      33.709 -24.211 -18.435  0.00  0.00    -0.286 OA
ATOM     10  C   UNL     1      33.951 -23.232 -17.708  0.00  0.00    +0.201 C 
BRANCH  10  14
ATOM     11 CL   UNL     1      28.123 -22.846 -16.564  0.00  0.00    -0.081 Cl
ATOM     12  N   UNL     1      33.370 -22.880 -14.164  0.00  0.00    -0.297 N 
ATOM     13  N   UNL     1      30.996 -22.731 -13.787  0.00  0.00    -0.228 NA
ATOM     14  C   UNL     1      33.428 -23.085 -16.379  0.00  0.00    +0.056 C 
ATOM     15  C   UNL     1      32.069 -22.982 -15.977  0.00  0.00    +0.037 C 
ATOM     16  C   UNL     1      32.068 -22.856 -14.590  0.00  0.00    +0.132 C 
ATOM     17  C   UNL     1      34.205 -23.019 -15.244  0.00  0.00    +0.066 C 
ATOM     18  C   UNL     1      30.825 -22.983 -16.627  0.00  0.00    +0.016 C 
ATOM     19  C   UNL     1      29.681 -22.855 -15.841  0.00  0.00    +0.077 C 
ATOM     20  C   UNL     1      29.825 -22.736 -14.466  0.00  0.00    +0.112 C 
ATOM     21  H   UNL     1      33.662 -22.808 -13.227  0.00  0.00    +0.154 HD
ENDBRANCH  10  14
ENDBRANCH   4  10
BRANCH   3  22
ATOM     22  N   UNL     1      34.704 -19.650 -21.040  0.00  0.00    -0.217 N 
ATOM     23  H   UNL     1      33.882 -19.896 -21.521  0.00  0.00    +0.173 HD
BRANCH  22  24
ATOM     24  S   UNL     1      35.613 -18.260 -21.495  0.00  0.00    +0.054 S 
ATOM     25  O   UNL     1      35.232 -17.159 -20.629  0.00  0.00    -0.154 OA
ATOM     26  O   UNL     1      37.009 -18.595 -21.690  0.00  0.00    -0.154 OA
BRANCH  24  27
ATOM     27  C   UNL     1      34.902 -17.929 -23.092  0.00  0.00    +0.172 C 
BRANCH  27  28
ATOM     28  C   UNL     1      34.905 -16.441 -23.401  0.00  0.00    +0.027 C 
ATOM     29  C   UNL     1      34.134 -16.137 -24.675  0.00  0.00    +0.002 C 
ENDBRANCH  27  28
ENDBRANCH  24  27
ENDBRANCH  22  24
ENDBRANCH   3  22
TORSDOF 6
ENDMDL
MODEL 4
REMARK VINA RESULT:     -10.4      4.723      7.022
REMARK  Name = 24180719
REMARK  6 active torsions:
REMARK  status: ('A' for Active; 'I' for Inactive)
REMARK    1  A    between atoms: C_3  and  N_22
REMARK    2  A    between atoms: C_4  and  C_10
REMARK    3  A    between atoms: C_10  and  C_14
REMARK    4  A    between atoms: N_22  and  S_24
REMARK    5  A    between atoms: S_24  and  C_27
REMARK    6  A    between atoms: C_27  and  C_28
REMARK                            x       y       z     vdW  Elec       q    Type
REMARK                         _______ _______ _______ _____ _____    ______ ____
ROOT
ATOM      1  F   UNL     1      34.115 -10.884 -24.016  0.00  0.00    -0.203 F 
ATOM      2  F   UNL     1      31.568 -13.315 -20.832  0.00  0.00    -0.204 F 
ATOM      3  C   UNL     1      32.119  -9.942 -23.153  0.00  0.00    +0.092 C 
ATOM      4  C   UNL     1      32.865 -12.123 -22.428  0.00  0.00    +0.095 C 
ATOM      5  C   UNL     1      33.047 -10.982 -23.210  0.00  0.00    +0.160 C 
ATOM      6  C   UNL     1      31.009 -10.043 -22.315  0.00  0.00    +0.020 C 
ATOM      7  C   UNL     1      31.755 -12.224 -21.590  0.00  0.00    +0.145 C 
ATOM      8  C   UNL     1      30.826 -11.184 -21.533  0.00  0.00    +0.031 C 
ENDROOT
BRANCH   4  10
ATOM      9  O   UNL     1      34.777 -13.183 -21.651  0.00  0.00    -0.286 OA
ATOM     10  C   UNL     1      33.859 -13.237 -22.488  0.00  0.00    +0.201 C 
BRANCH  10  14
ATOM     11 CL   UNL     1      36.200 -18.654 -21.719  0.00  0.00    -0.081 Cl
ATOM     12  N   UNL     1      33.183 -15.333 -25.346  0.00  0.00    -0.297 N 
ATOM     13  N   UNL     1      34.160 -17.500 -24.957  0.00  0.00    -0.228 NA
ATOM     14  C   UNL     1      33.744 -14.280 -23.468  0.00  0.00    +0.056 C 
ATOM     15  C   UNL     1      34.254 -15.604 -23.405  0.00  0.00    +0.037 C 
ATOM     16  C   UNL     1      33.886 -16.235 -24.591  0.00  0.00    +0.132 C 
ATOM     17  C   UNL     1      33.090 -14.142 -24.673  0.00  0.00    +0.066 C 
ATOM     18  C   UNL     1      34.991 -16.355 -22.475  0.00  0.00    +0.016 C 
ATOM     19  C   UNL     1      35.302 -17.673 -22.805  0.00  0.00    +0.077 C 
ATOM     20  C   UNL     1      34.872 -18.176 -24.025  0.00  0.00    +0.112 C 
ATOM     21  H   UNL     1      32.801 -15.513 -26.236  0.00  0.00    +0.154 HD
ENDBRANCH  10  14
ENDBRANCH   4  10
BRANCH   3  22
ATOM     22  N   UNL     1      32.303  -8.773 -23.952  0.00  0.00    -0.217 N 
ATOM     23  H   UNL     1      32.387  -8.836 -24.930  0.00  0.00    +0.173 HD
BRANCH  22  24
ATOM     24  S   UNL     1      32.374  -7.247 -23.156  0.00  0.00    +0.054 S 
ATOM     25  O   UNL     1      33.046  -6.304 -24.030  0.00  0.00    -0.154 OA
ATOM     26  O   UNL     1      31.097  -6.915 -22.557  0.00  0.00    -0.154 OA
BRANCH  24  27
ATOM     27  C   UNL     1      33.509  -7.631 -21.842  0.00  0.00    +0.172 C 
BRANCH  27  28
ATOM     28  C   UNL     1      33.008  -7.107 -20.506  0.00  0.00    +0.027 C 
ATOM     29  C   UNL     1      32.577  -8.241 -19.590  0.00  0.00    +0.002 C 
ENDBRANCH  27  28
ENDBRANCH  24  27
ENDBRANCH  22  24
ENDBRANCH   3  22
TORSDOF 6
ENDMDL
MODEL 5
REMARK VINA RESULT:     -10.4      4.140      7.939
REMARK  Name = 24180719
REMARK  6 active torsions:
REMARK  status: ('A' for Active; 'I' for Inactive)
REMARK    1  A    between atoms: C_3  and  N_22
REMARK    2  A    between atoms: C_4  and  C_10
REMARK    3  A    between atoms: C_10  and  C_14
REMARK    4  A    between atoms: N_22  and  S_24
REMARK    5  A    between atoms: S_24  and  C_27
REMARK    6  A    between atoms: C_27  and  C_28
REMARK                            x       y       z     vdW  Elec       q    Type
REMARK                         _______ _______ _______ _____ _____    ______ ____
ROOT
ATOM      1  F   UNL     1      33.170 -19.382 -20.276  0.00  0.00    -0.203 F 
ATOM      2  F   UNL     1      37.842 -18.903 -20.968  0.00  0.00    -0.204 F 
ATOM      3  C   UNL     1      34.634 -21.123 -19.611  0.00  0.00    +0.092 C 
ATOM      4  C   UNL     1      35.498 -19.113 -20.636  0.00  0.00    +0.095 C 
ATOM      5  C   UNL     1      34.418 -19.867 -20.176  0.00  0.00    +0.160 C 
ATOM      6  C   UNL     1      35.930 -21.627 -19.506  0.00  0.00    +0.020 C 
ATOM      7  C   UNL     1      36.794 -19.617 -20.531  0.00  0.00    +0.145 C 
ATOM      8  C   UNL     1      37.010 -20.875 -19.966  0.00  0.00    +0.031 C 
ENDROOT
BRANCH   4  10
ATOM      9  O   UNL     1      35.496 -16.797 -20.496  0.00  0.00    -0.286 OA
ATOM     10  C   UNL     1      35.267 -17.767 -21.241  0.00  0.00    +0.201 C 
BRANCH  10  14
ATOM     11 CL   UNL     1      33.762 -12.524 -23.621  0.00  0.00    -0.081 Cl
ATOM     12  N   UNL     1      34.181 -18.184 -24.656  0.00  0.00    -0.297 N 
ATOM     13  N   UNL     1      33.592 -16.024 -25.544  0.00  0.00    -0.228 NA
ATOM     14  C   UNL     1      34.798 -17.632 -22.591  0.00  0.00    +0.056 C 
ATOM     15  C   UNL     1      34.409 -16.447 -23.271  0.00  0.00    +0.037 C 
ATOM     16  C   UNL     1      34.031 -16.826 -24.557  0.00  0.00    +0.132 C 
ATOM     17  C   UNL     1      34.647 -18.684 -23.467  0.00  0.00    +0.066 C 
ATOM     18  C   UNL     1      34.332 -15.083 -22.951  0.00  0.00    +0.016 C 
ATOM     19  C   UNL     1      33.883 -14.207 -23.938  0.00  0.00    +0.077 C 
ATOM     20  C   UNL     1      33.537 -14.722 -25.180  0.00  0.00    +0.112 C 
ATOM     21  H   UNL     1      33.986 -18.720 -25.459  0.00  0.00    +0.154 HD
ENDBRANCH  10  14
ENDBRANCH   4  10
BRANCH   3  22
ATOM     22  N   UNL     1      33.530 -21.897 -19.139  0.00  0.00    -0.217 N 
ATOM     23  H   UNL     1      32.633 -21.790 -19.530  0.00  0.00    +0.173 HD
BRANCH  22  24
ATOM     24  S   UNL     1      33.811 -23.022 -17.865  0.00  0.00    +0.054 S 
ATOM     25  O   UNL     1      33.754 -24.362 -18.417  0.00  0.00    -0.154 OA
ATOM     26  O   UNL     1      34.933 -22.608 -17.047  0.00  0.00    -0.154 OA
BRANCH  24  27
ATOM     27  C   UNL     1      32.327 -22.793 -16.911  0.00  0.00    +0.172 C 
BRANCH  27  28
ATOM     28  C   UNL     1      32.419 -23.498 -15.568  0.00  0.00    +0.027 C 
ATOM     29  C   UNL     1      31.700 -22.717 -14.480  0.00  0.00    +0.002 C 
ENDBRANCH  27  28
ENDBRANCH  24  27
ENDBRANCH  22  24
ENDBRANCH   3  22
TORSDOF 6
ENDMDL
MODEL 6
REMARK VINA RESULT:     -10.4      3.297      5.488
REMARK  Name = 24180719
REMARK  6 active torsions:
REMARK  status: ('A' for Active; 'I' for Inactive)
REMARK    1  A    between atoms: C_3  and  N_22
REMARK    2  A    between atoms: C_4  and  C_10
REMARK    3  A    between atoms: C_10  and  C_14
REMARK    4  A    between atoms: N_22  and  S_24
REMARK    5  A    between atoms: S_24  and  C_27
REMARK    6  A    between atoms: C_27  and  C_28
REMARK                            x       y       z     vdW  Elec       q    Type
REMARK                         _______ _______ _______ _____ _____    ______ ____
ROOT
ATOM      1  F   UNL     1      33.112 -21.633 -20.076  0.00  0.00    -0.203 F 
ATOM      2  F   UNL     1      36.438 -22.752 -16.879  0.00  0.00    -0.204 F 
ATOM      3  C   UNL     1      35.122 -20.380 -19.994  0.00  0.00    +0.092 C 
ATOM      4  C   UNL     1      34.754 -22.216 -18.467  0.00  0.00    +0.095 C 
ATOM      5  C   UNL     1      34.314 -21.412 -19.519  0.00  0.00    +0.160 C 
ATOM      6  C   UNL     1      36.371 -20.150 -19.416  0.00  0.00    +0.020 C 
ATOM      7  C   UNL     1      36.002 -21.986 -17.890  0.00  0.00    +0.145 C 
ATOM      8  C   UNL     1      36.811 -20.953 -18.365  0.00  0.00    +0.031 C 
ENDROOT
BRANCH   4  10
ATOM      9  O   UNL     1      33.788 -24.312 -18.706  0.00  0.00    -0.286 OA
ATOM     10  C   UNL     1      33.888 -23.322 -17.959  0.00  0.00    +0.201 C 
BRANCH  10  14
ATOM     11 CL   UNL     1      36.310 -25.202 -12.858  0.00  0.00    -0.081 Cl
ATOM     12  N   UNL     1      31.644 -22.741 -15.194  0.00  0.00    -0.297 N 
ATOM     13  N   UNL     1      32.695 -23.527 -13.174  0.00  0.00    -0.228 NA
ATOM     14  C   UNL     1      33.217 -23.216 -16.695  0.00  0.00    +0.056 C 
ATOM     15  C   UNL     1      33.683 -23.624 -15.416  0.00  0.00    +0.037 C 
ATOM     16  C   UNL     1      32.679 -23.313 -14.503  0.00  0.00    +0.132 C 
ATOM     17  C   UNL     1      31.960 -22.677 -16.527  0.00  0.00    +0.066 C 
ATOM     18  C   UNL     1      34.849 -24.226 -14.916  0.00  0.00    +0.016 C 
ATOM     19  C   UNL     1      34.917 -24.470 -13.545  0.00  0.00    +0.077 C 
ATOM     20  C   UNL     1      33.840 -24.109 -12.748  0.00  0.00    +0.112 C 
ATOM     21  H   UNL     1      30.802 -22.424 -14.795  0.00  0.00    +0.154 HD
ENDBRANCH  10  14
ENDBRANCH   4  10
BRANCH   3  22
ATOM     22  N   UNL     1      34.675 -19.556 -21.071  0.00  0.00    -0.217 N 
ATOM     23  H   UNL     1      33.842 -19.762 -21.554  0.00  0.00    +0.173 HD
BRANCH  22  24
ATOM     24  S   UNL     1      35.632 -18.191 -21.503  0.00  0.00    +0.054 S 
ATOM     25  O   UNL     1      35.282 -17.089 -20.625  0.00  0.00    -0.154 OA
ATOM     26  O   UNL     1      37.018 -18.569 -21.693  0.00  0.00    -0.154 OA
BRANCH  24  27
ATOM     27  C   UNL     1      34.945 -17.816 -23.100  0.00  0.00    +0.172 C 
BRANCH  27  28
ATOM     28  C   UNL     1      34.926 -16.319 -23.357  0.00  0.00    +0.027 C 
ATOM     29  C   UNL     1      34.180 -15.984 -24.638  0.00  0.00    +0.002 C 
ENDBRANCH  27  28
ENDBRANCH  24  27
ENDBRANCH  22  24
ENDBRANCH   3  22
TORSDOF 6
ENDMDL
MODEL 7
REMARK VINA RESULT:     -10.1      4.322      8.101
REMARK  Name = 24180719
REMARK  6 active torsions:
REMARK  status: ('A' for Active; 'I' for Inactive)
REMARK    1  A    between atoms: C_3  and  N_22
REMARK    2  A    between atoms: C_4  and  C_10
REMARK    3  A    between atoms: C_10  and  C_14
REMARK    4  A    between atoms: N_22  and  S_24
REMARK    5  A    between atoms: S_24  and  C_27
REMARK    6  A    between atoms: C_27  and  C_28
REMARK                            x       y       z     vdW  Elec       q    Type
REMARK                         _______ _______ _______ _____ _____    ______ ____
ROOT
ATOM      1  F   UNL     1      35.519 -14.784 -21.979  0.00  0.00    -0.203 F 
ATOM      2  F   UNL     1      32.422 -14.390 -25.556  0.00  0.00    -0.204 F 
ATOM      3  C   UNL     1      35.116 -16.648 -23.387  0.00  0.00    +0.092 C 
ATOM      4  C   UNL     1      33.966 -14.556 -23.757  0.00  0.00    +0.095 C 
ATOM      5  C   UNL     1      34.875 -15.322 -23.027  0.00  0.00    +0.160 C 
ATOM      6  C   UNL     1      34.448 -17.208 -24.475  0.00  0.00    +0.020 C 
ATOM      7  C   UNL     1      33.298 -15.116 -24.845  0.00  0.00    +0.145 C 
ATOM      8  C   UNL     1      33.539 -16.442 -25.205  0.00  0.00    +0.031 C 
ENDROOT
BRANCH   4  10
ATOM      9  O   UNL     1      34.201 -12.277 -24.126  0.00  0.00    -0.286 OA
ATOM     10  C   UNL     1      33.708 -13.135 -23.372  0.00  0.00    +0.201 C 
BRANCH  10  14
ATOM     11 CL   UNL     1      31.922  -7.600 -22.109  0.00  0.00    -0.081 Cl
ATOM     12  N   UNL     1      31.858 -13.070 -20.275  0.00  0.00    -0.297 N 
ATOM     13  N   UNL     1      31.174 -10.803 -19.837  0.00  0.00    -0.228 NA
ATOM     14  C   UNL     1      32.950 -12.812 -22.196  0.00  0.00    +0.056 C 
ATOM     15  C   UNL     1      32.468 -11.541 -21.784  0.00  0.00    +0.037 C 
ATOM     16  C   UNL     1      31.791 -11.737 -20.583  0.00  0.00    +0.132 C 
ATOM     17  C   UNL     1      32.560 -13.733 -21.249  0.00  0.00    +0.066 C 
ATOM     18  C   UNL     1      32.522 -10.233 -22.290  0.00  0.00    +0.016 C 
ATOM     19  C   UNL     1      31.899  -9.225 -21.555  0.00  0.00    +0.077 C 
ATOM     20  C   UNL     1      31.259  -9.562 -20.370  0.00  0.00    +0.112 C 
ATOM     21  H   UNL     1      31.463 -13.489 -19.476  0.00  0.00    +0.154 HD
ENDBRANCH  10  14
ENDBRANCH   4  10
BRANCH   3  22
ATOM     22  N   UNL     1      36.047 -17.435 -22.641  0.00  0.00    -0.217 N 
ATOM     23  H   UNL     1      36.936 -17.648 -23.006  0.00  0.00    +0.173 HD
BRANCH  22  24
ATOM     24  S   UNL     1      35.569 -18.002 -21.087  0.00  0.00    +0.054 S 
ATOM     25  O   UNL     1      36.752 -18.462 -20.383  0.00  0.00    -0.154 OA
ATOM     26  O   UNL     1      34.652 -17.074 -20.456  0.00  0.00    -0.154 OA
BRANCH  24  27
ATOM     27  C   UNL     1      34.648 -19.451 -21.549  0.00  0.00    +0.172 C 
BRANCH  27  28
ATOM     28  C   UNL     1      34.445 -20.380 -20.364  0.00  0.00    +0.027 C 
ATOM     29  C   UNL     1      32.988 -20.419 -19.932  0.00  0.00    +0.002 C 
ENDBRANCH  27  28
ENDBRANCH  24  27
ENDBRANCH  22  24
ENDBRANCH   3  22
TORSDOF 6
ENDMDL
MODEL 8
REMARK VINA RESULT:      -9.9      5.882      8.998
REMARK  Name = 24180719
REMARK  6 active torsions:
REMARK  status: ('A' for Active; 'I' for Inactive)
REMARK    1  A    between atoms: C_3  and  N_22
REMARK    2  A    between atoms: C_4  and  C_10
REMARK    3  A    between atoms: C_10  and  C_14
REMARK    4  A    between atoms: N_22  and  S_24
REMARK    5  A    between atoms: S_24  and  C_27
REMARK    6  A    between atoms: C_27  and  C_28
REMARK                            x       y       z     vdW  Elec       q    Type
REMARK                         _______ _______ _______ _____ _____    ______ ____
ROOT
ATOM      1  F   UNL     1      31.633 -22.331 -17.544  0.00  0.00    -0.203 F 
ATOM      2  F   UNL     1      35.683 -24.052 -15.764  0.00  0.00    -0.204 F 
ATOM      3  C   UNL     1      31.717 -23.008 -15.274  0.00  0.00    +0.092 C 
ATOM      4  C   UNL     1      33.670 -23.187 -16.685  0.00  0.00    +0.095 C 
ATOM      5  C   UNL     1      32.331 -22.836 -16.515  0.00  0.00    +0.160 C 
ATOM      6  C   UNL     1      32.441 -23.533 -14.204  0.00  0.00    +0.020 C 
ATOM      7  C   UNL     1      34.394 -23.711 -15.615  0.00  0.00    +0.145 C 
ATOM      8  C   UNL     1      33.780 -23.884 -14.374  0.00  0.00    +0.031 C 
ENDROOT
BRANCH   4  10
ATOM      9  O   UNL     1      33.966 -23.789 -18.906  0.00  0.00    -0.286 OA
ATOM     10  C   UNL     1      34.328 -23.002 -18.013  0.00  0.00    +0.201 C 
BRANCH  10  14
ATOM     11 CL   UNL     1      34.299 -19.353 -22.715  0.00  0.00    -0.081 Cl
ATOM     12  N   UNL     1      37.107 -20.705 -17.860  0.00  0.00    -0.297 N 
ATOM     13  N   UNL     1      37.023 -19.269 -19.791  0.00  0.00    -0.228 NA
ATOM     14  C   UNL     1      35.320 -21.983 -18.213  0.00  0.00    +0.056 C 
ATOM     15  C   UNL     1      35.424 -21.056 -19.284  0.00  0.00    +0.037 C 
ATOM     16  C   UNL     1      36.547 -20.274 -19.033  0.00  0.00    +0.132 C 
ATOM     17  C   UNL     1      36.369 -21.744 -17.352  0.00  0.00    +0.066 C 
ATOM     18  C   UNL     1      34.691 -20.781 -20.450  0.00  0.00    +0.016 C 
ATOM     19  C   UNL     1      35.141 -19.749 -21.272  0.00  0.00    +0.077 C 
ATOM     20  C   UNL     1      36.281 -19.048 -20.901  0.00  0.00    +0.112 C 
ATOM     21  H   UNL     1      37.915 -20.327 -17.443  0.00  0.00    +0.154 HD
ENDBRANCH  10  14
ENDBRANCH   4  10
BRANCH   3  22
ATOM     22  N   UNL     1      30.345 -22.650 -15.097  0.00  0.00    -0.217 N 
ATOM     23  H   UNL     1      30.090 -21.731 -14.851  0.00  0.00    +0.173 HD
BRANCH  22  24
ATOM     24  S   UNL     1      29.150 -23.869 -15.325  0.00  0.00    +0.054 S 
ATOM     25  O   UNL     1      29.796 -25.048 -15.870  0.00  0.00    -0.154 OA
ATOM     26  O   UNL     1      28.287 -23.972 -14.165  0.00  0.00    -0.154 OA
BRANCH  24  27
ATOM     27  C   UNL     1      28.206 -23.141 -16.644  0.00  0.00    +0.172 C 
BRANCH  27  28
ATOM     28  C   UNL     1      27.054 -22.308 -16.107  0.00  0.00    +0.027 C 
ATOM     29  C   UNL     1      26.297 -21.615 -17.228  0.00  0.00    +0.002 C 
ENDBRANCH  27  28
ENDBRANCH  24  27
ENDBRANCH  22  24
ENDBRANCH   3  22
TORSDOF 6
ENDMDL
MODEL 9
REMARK VINA RESULT:      -9.6      6.487      9.522
REMARK  Name = 24180719
REMARK  6 active torsions:
REMARK  status: ('A' for Active; 'I' for Inactive)
REMARK    1  A    between atoms: C_3  and  N_22
REMARK    2  A    between atoms: C_4  and  C_10
REMARK    3  A    between atoms: C_10  and  C_14
REMARK    4  A    between atoms: N_22  and  S_24
REMARK    5  A    between atoms: S_24  and  C_27
REMARK    6  A    between atoms: C_27  and  C_28
REMARK                            x       y       z     vdW  Elec       q    Type
REMARK                         _______ _______ _______ _____ _____    ______ ____
ROOT
ATOM      1  F   UNL     1      31.113  -7.829 -23.795  0.00  0.00    -0.203 F 
ATOM      2  F   UNL     1      35.467  -9.681 -23.413  0.00  0.00    -0.204 F 
ATOM      3  C   UNL     1      32.982  -6.386 -23.594  0.00  0.00    +0.092 C 
ATOM      4  C   UNL     1      33.275  -8.785 -23.606  0.00  0.00    +0.095 C 
ATOM      5  C   UNL     1      32.440  -7.669 -23.666  0.00  0.00    +0.160 C 
ATOM      6  C   UNL     1      34.361  -6.219 -23.460  0.00  0.00    +0.020 C 
ATOM      7  C   UNL     1      34.653  -8.617 -23.472  0.00  0.00    +0.145 C 
ATOM      8  C   UNL     1      35.196  -7.334 -23.400  0.00  0.00    +0.031 C 
ENDROOT
BRANCH   4  10
ATOM      9  O   UNL     1      32.598 -10.637 -24.828  0.00  0.00    -0.286 OA
ATOM     10  C   UNL     1      32.693 -10.159 -23.683  0.00  0.00    +0.201 C 
BRANCH  10  14
ATOM     11 CL   UNL     1      34.921 -15.435 -22.065  0.00  0.00    -0.081 Cl
ATOM     12  N   UNL     1      31.169 -11.298 -20.618  0.00  0.00    -0.297 N 
ATOM     13  N   UNL     1      32.121 -13.432 -20.034  0.00  0.00    -0.228 NA
ATOM     14  C   UNL     1      32.269 -10.851 -22.500  0.00  0.00    +0.056 C 
ATOM     15  C   UNL     1      32.719 -12.106 -22.008  0.00  0.00    +0.037 C 
ATOM     16  C   UNL     1      32.014 -12.354 -20.833  0.00  0.00    +0.132 C 
ATOM     17  C   UNL     1      31.316 -10.378 -21.625  0.00  0.00    +0.066 C 
ATOM     18  C   UNL     1      33.650 -13.072 -22.420  0.00  0.00    +0.016 C 
ATOM     19  C   UNL     1      33.801 -14.209 -21.627  0.00  0.00    +0.077 C 
ATOM     20  C   UNL     1      33.031 -14.329 -20.478  0.00  0.00    +0.112 C 
ATOM     21  H   UNL     1      30.551 -11.211 -19.857  0.00  0.00    +0.154 HD
ENDBRANCH  10  14
ENDBRANCH   4  10
BRANCH   3  22
ATOM     22  N   UNL     1      32.130  -5.242 -23.656  0.00  0.00    -0.217 N 
ATOM     23  H   UNL     1      32.024  -4.734 -24.493  0.00  0.00    +0.173 HD
BRANCH  22  24
ATOM     24  S   UNL     1      31.292  -4.774 -22.226  0.00  0.00    +0.054 S 
ATOM     25  O   UNL     1      31.316  -3.326 -22.134  0.00  0.00    -0.154 OA
ATOM     26  O   UNL     1      30.045  -5.500 -22.095  0.00  0.00    -0.154 OA
BRANCH  24  27
ATOM     27  C   UNL     1      32.413  -5.389 -20.990  0.00  0.00    +0.172 C 
BRANCH  27  28
ATOM     28  C   UNL     1      31.882  -6.656 -20.342  0.00  0.00    +0.027 C 
ATOM     29  C   UNL     1      33.008  -7.610 -19.979  0.00  0.00    +0.002 C 
ENDBRANCH  27  28
ENDBRANCH  24  27
ENDBRANCH  22  24
ENDBRANCH   3  22
TORSDOF 6
ENDMDL
