MODEL 1
REMARK VINA RESULT:     -12.9      0.000      0.000
REMARK  Name = 25023705
REMARK  6 active torsions:
REMARK  status: ('A' for Active; 'I' for Inactive)
REMARK    1  A    between atoms: C_1  and  C_8
REMARK    2  A    between atoms: C_1  and  C_20
REMARK    3  A    between atoms: C_20  and  N_22
REMARK    4  A    between atoms: C_23  and  C_25
REMARK    5  A    between atoms: C_30  and  O_31
REMARK    6  A    between atoms: O_31  and  C_32
REMARK                            x       y       z     vdW  Elec       q    Type
REMARK                         _______ _______ _______ _____ _____    ______ ____
ROOT
ATOM      1  C   UNL     1      32.603 -23.831 -14.617  0.00  0.00    +0.066 C 
ATOM      2  C   UNL     1      32.100 -22.374 -14.478  0.00  0.00    +0.009 C 
ATOM      3  C   UNL     1      31.507 -24.735 -14.001  0.00  0.00    +0.009 C 
ENDROOT
BRANCH   1   8
ATOM      4  N   UNL     1      35.028 -24.252 -14.716  0.00  0.00    -0.347 NA
ATOM      5  N   UNL     1      37.296 -24.666 -14.940  0.00  0.00    -0.266 NA
ATOM      6  N   UNL     1      38.778 -24.612 -13.044  0.00  0.00    -0.316 NA
ATOM      7  N   UNL     1      39.591 -25.088 -15.187  0.00  0.00    -0.283 N 
ATOM      8  C   UNL     1      33.973 -23.949 -13.922  0.00  0.00    +0.122 C 
ATOM      9  C   UNL     1      34.061 -23.747 -12.561  0.00  0.00    +0.026 C 
ATOM     10  C   UNL     1      35.314 -23.865 -11.985  0.00  0.00    +0.001 C 
ATOM     11  C   UNL     1      36.245 -24.367 -14.167  0.00  0.00    +0.137 C 
ATOM     12  C   UNL     1      36.418 -24.178 -12.791  0.00  0.00    +0.199 C 
ATOM     13  C   UNL     1      37.709 -24.313 -12.286  0.00  0.00    +0.187 C 
ATOM     14  C   UNL     1      38.502 -24.772 -14.346  0.00  0.00    +0.207 C 
ATOM     15  H   UNL     1      39.446 -25.217 -16.152  0.00  0.00    +0.156 HD
ATOM     16  H   UNL     1      40.496 -25.179 -14.808  0.00  0.00    +0.156 HD
ATOM     17  N   UNL     1      37.937 -24.130 -10.899  0.00  0.00    -0.334 N 
ATOM     18  H   UNL     1      38.847 -24.225 -10.534  0.00  0.00    +0.144 HD
ATOM     19  H   UNL     1      37.187 -23.910 -10.302  0.00  0.00    +0.144 HD
ENDBRANCH   1   8
BRANCH   1  20
ATOM     20  C   UNL     1      32.720 -24.161 -16.132  0.00  0.00    +0.096 C 
BRANCH  20  22
ATOM     21  O   UNL     1      33.775 -24.371 -18.794  0.00  0.00    -0.270 OA
ATOM     22  N   UNL     1      33.290 -23.096 -16.917  0.00  0.00    -0.300 N 
ATOM     23  C   UNL     1      33.777 -23.295 -18.203  0.00  0.00    +0.246 C 
ATOM     24  H   UNL     1      33.337 -22.193 -16.528  0.00  0.00    +0.150 HD
BRANCH  23  25
ATOM     25  C   UNL     1      34.359 -22.101 -18.870  0.00  0.00    +0.054 C 
ATOM     26  C   UNL     1      35.737 -21.892 -18.847  0.00  0.00    +0.008 C 
ATOM     27  C   UNL     1      33.524 -21.189 -19.518  0.00  0.00    +0.008 C 
ATOM     28  C   UNL     1      36.282 -20.770 -19.473  0.00  0.00    +0.038 C 
ATOM     29  C   UNL     1      34.070 -20.068 -20.144  0.00  0.00    +0.038 C 
ATOM     30  C   UNL     1      35.448 -19.858 -20.120  0.00  0.00    +0.145 C 
BRANCH  30  31
ATOM     31  O   UNL     1      35.980 -18.763 -20.729  0.00  0.00    -0.453 OA
BRANCH  31  32
ATOM     32  C   UNL     1      35.434 -18.371 -21.940  0.00  0.00    +0.145 C 
ATOM     33  C   UNL     1      34.957 -19.331 -22.832  0.00  0.00    +0.037 C 
ATOM     34  C   UNL     1      35.364 -17.017 -22.268  0.00  0.00    +0.037 C 
ATOM     35  C   UNL     1      34.408 -18.937 -24.053  0.00  0.00    +0.003 C 
ATOM     36  C   UNL     1      34.816 -16.623 -23.489  0.00  0.00    +0.003 C 
ATOM     37  C   UNL     1      34.338 -17.583 -24.381  0.00  0.00    +0.000 C 
ENDBRANCH  31  32
ENDBRANCH  30  31
ENDBRANCH  23  25
ENDBRANCH  20  22
ENDBRANCH   1  20
TORSDOF 6
ENDMDL
MODEL 2
REMARK VINA RESULT:     -11.8      5.028      8.384
REMARK  Name = 25023705
REMARK  6 active torsions:
REMARK  status: ('A' for Active; 'I' for Inactive)
REMARK    1  A    between atoms: C_1  and  C_8
REMARK    2  A    between atoms: C_1  and  C_20
REMARK    3  A    between atoms: C_20  and  N_22
REMARK    4  A    between atoms: C_23  and  C_25
REMARK    5  A    between atoms: C_30  and  O_31
REMARK    6  A    between atoms: O_31  and  C_32
REMARK                            x       y       z     vdW  Elec       q    Type
REMARK                         _______ _______ _______ _____ _____    ______ ____
ROOT
ATOM      1  C   UNL     1      35.454 -18.870 -21.848  0.00  0.00    +0.066 C 
ATOM      2  C   UNL     1      34.230 -18.526 -22.731  0.00  0.00    +0.009 C 
ATOM      3  C   UNL     1      36.530 -19.452 -22.797  0.00  0.00    +0.009 C 
ENDROOT
BRANCH   1   8
ATOM      4  N   UNL     1      35.960 -20.247 -19.869  0.00  0.00    -0.347 NA
ATOM      5  N   UNL     1      36.562 -21.498 -18.015  0.00  0.00    -0.266 NA
ATOM      6  N   UNL     1      34.958 -22.853 -16.837  0.00  0.00    -0.316 NA
ATOM      7  N   UNL     1      37.191 -22.760 -16.139  0.00  0.00    -0.283 N 
ATOM      8  C   UNL     1      35.005 -19.844 -20.741  0.00  0.00    +0.122 C 
ATOM      9  C   UNL     1      33.689 -20.252 -20.692  0.00  0.00    +0.026 C 
ATOM     10  C   UNL     1      33.338 -21.127 -19.679  0.00  0.00    +0.001 C 
ATOM     11  C   UNL     1      35.628 -21.093 -18.885  0.00  0.00    +0.137 C 
ATOM     12  C   UNL     1      34.312 -21.555 -18.766  0.00  0.00    +0.199 C 
ATOM     13  C   UNL     1      34.036 -22.434 -17.721  0.00  0.00    +0.187 C 
ATOM     14  C   UNL     1      36.184 -22.351 -17.041  0.00  0.00    +0.207 C 
ATOM     15  H   UNL     1      38.110 -22.423 -16.243  0.00  0.00    +0.156 HD
ATOM     16  H   UNL     1      36.973 -23.383 -15.408  0.00  0.00    +0.156 HD
ATOM     17  N   UNL     1      32.719 -22.929 -17.557  0.00  0.00    -0.334 N 
ATOM     18  H   UNL     1      32.515 -23.551 -16.821  0.00  0.00    +0.144 HD
ATOM     19  H   UNL     1      32.008 -22.652 -18.179  0.00  0.00    +0.144 HD
ENDBRANCH   1   8
BRANCH   1  20
ATOM     20  C   UNL     1      35.997 -17.548 -21.236  0.00  0.00    +0.096 C 
BRANCH  20  22
ATOM     21  O   UNL     1      35.548 -15.340 -23.014  0.00  0.00    -0.270 OA
ATOM     22  N   UNL     1      35.000 -16.519 -21.093  0.00  0.00    -0.300 N 
ATOM     23  C   UNL     1      34.857 -15.485 -22.009  0.00  0.00    +0.246 C 
ATOM     24  H   UNL     1      34.397 -16.550 -20.316  0.00  0.00    +0.150 HD
BRANCH  23  25
ATOM     25  C   UNL     1      33.799 -14.487 -21.705  0.00  0.00    +0.054 C 
ATOM     26  C   UNL     1      33.374 -14.300 -20.390  0.00  0.00    +0.008 C 
ATOM     27  C   UNL     1      33.230 -13.739 -22.737  0.00  0.00    +0.008 C 
ATOM     28  C   UNL     1      32.380 -13.364 -20.106  0.00  0.00    +0.038 C 
ATOM     29  C   UNL     1      32.235 -12.803 -22.451  0.00  0.00    +0.038 C 
ATOM     30  C   UNL     1      31.810 -12.616 -21.136  0.00  0.00    +0.145 C 
BRANCH  30  31
ATOM     31  O   UNL     1      30.839 -11.705 -20.859  0.00  0.00    -0.453 OA
BRANCH  31  32
ATOM     32  C   UNL     1      31.237 -10.426 -20.507  0.00  0.00    +0.145 C 
ATOM     33  C   UNL     1      31.604  -9.514 -21.496  0.00  0.00    +0.037 C 
ATOM     34  C   UNL     1      31.272 -10.051 -19.163  0.00  0.00    +0.037 C 
ATOM     35  C   UNL     1      32.007  -8.226 -21.142  0.00  0.00    +0.003 C 
ATOM     36  C   UNL     1      31.675  -8.763 -18.810  0.00  0.00    +0.003 C 
ATOM     37  C   UNL     1      32.042  -7.851 -19.799  0.00  0.00    +0.000 C 
ENDBRANCH  31  32
ENDBRANCH  30  31
ENDBRANCH  23  25
ENDBRANCH  20  22
ENDBRANCH   1  20
TORSDOF 6
ENDMDL
MODEL 3
REMARK VINA RESULT:     -11.8      9.075     14.021
REMARK  Name = 25023705
REMARK  6 active torsions:
REMARK  status: ('A' for Active; 'I' for Inactive)
REMARK    1  A    between atoms: C_1  and  C_8
REMARK    2  A    between atoms: C_1  and  C_20
REMARK    3  A    between atoms: C_20  and  N_22
REMARK    4  A    between atoms: C_23  and  C_25
REMARK    5  A    between atoms: C_30  and  O_31
REMARK    6  A    between atoms: O_31  and  C_32
REMARK                            x       y       z     vdW  Elec       q    Type
REMARK                         _______ _______ _______ _____ _____    ______ ____
ROOT
ATOM      1  C   UNL     1      31.794 -11.248 -21.160  0.00  0.00    +0.066 C 
ATOM      2  C   UNL     1      30.286 -11.571 -21.027  0.00  0.00    +0.009 C 
ATOM      3  C   UNL     1      32.485 -11.862 -19.918  0.00  0.00    +0.009 C 
ENDROOT
BRANCH   1   8
ATOM      4  N   UNL     1      32.134  -9.227 -22.528  0.00  0.00    -0.347 NA
ATOM      5  N   UNL     1      32.454  -7.406 -23.921  0.00  0.00    -0.266 NA
ATOM      6  N   UNL     1      32.606  -5.166 -23.050  0.00  0.00    -0.316 NA
ATOM      7  N   UNL     1      32.779  -5.572 -25.349  0.00  0.00    -0.283 N 
ATOM      8  C   UNL     1      31.964  -9.721 -21.277  0.00  0.00    +0.122 C 
ATOM      9  C   UNL     1      31.937  -8.948 -20.136  0.00  0.00    +0.026 C 
ATOM     10  C   UNL     1      32.094  -7.582 -20.296  0.00  0.00    +0.001 C 
ATOM     11  C   UNL     1      32.286  -7.906 -22.691  0.00  0.00    +0.137 C 
ATOM     12  C   UNL     1      32.271  -7.052 -21.583  0.00  0.00    +0.199 C 
ATOM     13  C   UNL     1      32.435  -5.690 -21.824  0.00  0.00    +0.187 C 
ATOM     14  C   UNL     1      32.604  -6.070 -24.040  0.00  0.00    +0.207 C 
ATOM     15  H   UNL     1      32.788  -6.192 -26.114  0.00  0.00    +0.156 HD
ATOM     16  H   UNL     1      32.894  -4.605 -25.497  0.00  0.00    +0.156 HD
ATOM     17  N   UNL     1      32.426  -4.784 -20.735  0.00  0.00    -0.334 N 
ATOM     18  H   UNL     1      32.542  -3.819 -20.897  0.00  0.00    +0.144 HD
ATOM     19  H   UNL     1      32.305  -5.118 -19.817  0.00  0.00    +0.144 HD
ENDBRANCH   1   8
BRANCH   1  20
ATOM     20  C   UNL     1      32.334 -11.965 -22.430  0.00  0.00    +0.096 C 
BRANCH  20  22
ATOM     21  O   UNL     1      33.745 -13.600 -24.321  0.00  0.00    -0.270 OA
ATOM     22  N   UNL     1      33.023 -13.199 -22.153  0.00  0.00    -0.300 N 
ATOM     23  C   UNL     1      33.681 -13.924 -23.138  0.00  0.00    +0.246 C 
ATOM     24  H   UNL     1      33.028 -13.542 -21.230  0.00  0.00    +0.150 HD
BRANCH  23  25
ATOM     25  C   UNL     1      34.321 -15.191 -22.696  0.00  0.00    +0.054 C 
ATOM     26  C   UNL     1      34.632 -15.382 -21.351  0.00  0.00    +0.008 C 
ATOM     27  C   UNL     1      34.611 -16.187 -23.630  0.00  0.00    +0.008 C 
ATOM     28  C   UNL     1      35.234 -16.571 -20.937  0.00  0.00    +0.038 C 
ATOM     29  C   UNL     1      35.212 -17.375 -23.215  0.00  0.00    +0.038 C 
ATOM     30  C   UNL     1      35.524 -17.567 -21.869  0.00  0.00    +0.145 C 
BRANCH  30  31
ATOM     31  O   UNL     1      36.113 -18.725 -21.466  0.00  0.00    -0.453 OA
BRANCH  31  32
ATOM     32  C   UNL     1      35.346 -19.617 -20.734  0.00  0.00    +0.145 C 
ATOM     33  C   UNL     1      35.962 -20.502 -19.849  0.00  0.00    +0.037 C 
ATOM     34  C   UNL     1      33.959 -19.630 -20.883  0.00  0.00    +0.037 C 
ATOM     35  C   UNL     1      35.190 -21.401 -19.113  0.00  0.00    +0.003 C 
ATOM     36  C   UNL     1      33.188 -20.529 -20.146  0.00  0.00    +0.003 C 
ATOM     37  C   UNL     1      33.803 -21.414 -19.261  0.00  0.00    +0.000 C 
ENDBRANCH  31  32
ENDBRANCH  30  31
ENDBRANCH  23  25
ENDBRANCH  20  22
ENDBRANCH   1  20
TORSDOF 6
ENDMDL
MODEL 4
REMARK VINA RESULT:     -11.8      2.836      5.410
REMARK  Name = 25023705
REMARK  6 active torsions:
REMARK  status: ('A' for Active; 'I' for Inactive)
REMARK    1  A    between atoms: C_1  and  C_8
REMARK    2  A    between atoms: C_1  and  C_20
REMARK    3  A    between atoms: C_20  and  N_22
REMARK    4  A    between atoms: C_23  and  C_25
REMARK    5  A    between atoms: C_30  and  O_31
REMARK    6  A    between atoms: O_31  and  C_32
REMARK                            x       y       z     vdW  Elec       q    Type
REMARK                         _______ _______ _______ _____ _____    ______ ____
ROOT
ATOM      1  C   UNL     1      35.250 -21.615 -19.131  0.00  0.00    +0.066 C 
ATOM      2  C   UNL     1      33.815 -21.039 -19.197  0.00  0.00    +0.009 C 
ATOM      3  C   UNL     1      35.322 -22.739 -20.193  0.00  0.00    +0.009 C 
ENDROOT
BRANCH   1   8
ATOM      4  N   UNL     1      34.520 -22.774 -17.084  0.00  0.00    -0.347 NA
ATOM      5  N   UNL     1      33.718 -23.890 -15.220  0.00  0.00    -0.266 NA
ATOM      6  N   UNL     1      35.056 -24.146 -13.234  0.00  0.00    -0.316 NA
ATOM      7  N   UNL     1      32.888 -25.024 -13.340  0.00  0.00    -0.283 N 
ATOM      8  C   UNL     1      35.523 -22.097 -17.693  0.00  0.00    +0.122 C 
ATOM      9  C   UNL     1      36.740 -21.823 -17.107  0.00  0.00    +0.026 C 
ATOM     10  C   UNL     1      36.934 -22.277 -15.814  0.00  0.00    +0.001 C 
ATOM     11  C   UNL     1      34.701 -23.218 -15.833  0.00  0.00    +0.137 C 
ATOM     12  C   UNL     1      35.909 -22.981 -15.167  0.00  0.00    +0.199 C 
ATOM     13  C   UNL     1      36.028 -23.469 -13.868  0.00  0.00    +0.187 C 
ATOM     14  C   UNL     1      33.942 -24.318 -13.960  0.00  0.00    +0.207 C 
ATOM     15  H   UNL     1      32.046 -25.179 -13.827  0.00  0.00    +0.156 HD
ATOM     16  H   UNL     1      32.995 -25.360 -12.421  0.00  0.00    +0.156 HD
ATOM     17  N   UNL     1      37.232 -23.256 -13.152  0.00  0.00    -0.334 N 
ATOM     18  H   UNL     1      37.325 -23.597 -12.233  0.00  0.00    +0.144 HD
ATOM     19  H   UNL     1      37.975 -22.765 -13.573  0.00  0.00    +0.144 HD
ENDBRANCH   1   8
BRANCH   1  20
ATOM     20  C   UNL     1      36.243 -20.489 -19.536  0.00  0.00    +0.096 C 
BRANCH  20  22
ATOM     21  O   UNL     1      37.676 -18.585 -21.138  0.00  0.00    -0.270 OA
ATOM     22  N   UNL     1      35.671 -19.492 -20.404  0.00  0.00    -0.300 N 
ATOM     23  C   UNL     1      36.448 -18.610 -21.144  0.00  0.00    +0.246 C 
ATOM     24  H   UNL     1      34.690 -19.433 -20.475  0.00  0.00    +0.150 HD
BRANCH  23  25
ATOM     25  C   UNL     1      35.705 -17.623 -21.970  0.00  0.00    +0.054 C 
ATOM     26  C   UNL     1      35.380 -16.375 -21.441  0.00  0.00    +0.008 C 
ATOM     27  C   UNL     1      35.332 -17.948 -23.275  0.00  0.00    +0.008 C 
ATOM     28  C   UNL     1      34.682 -15.450 -22.217  0.00  0.00    +0.038 C 
ATOM     29  C   UNL     1      34.634 -17.022 -24.051  0.00  0.00    +0.038 C 
ATOM     30  C   UNL     1      34.308 -15.774 -23.521  0.00  0.00    +0.145 C 
BRANCH  30  31
ATOM     31  O   UNL     1      33.625 -14.872 -24.278  0.00  0.00    -0.453 OA
BRANCH  31  32
ATOM     32  C   UNL     1      33.305 -13.656 -23.698  0.00  0.00    +0.145 C 
ATOM     33  C   UNL     1      33.993 -12.502 -24.073  0.00  0.00    +0.037 C 
ATOM     34  C   UNL     1      32.297 -13.585 -22.736  0.00  0.00    +0.037 C 
ATOM     35  C   UNL     1      33.673 -11.277 -23.489  0.00  0.00    +0.003 C 
ATOM     36  C   UNL     1      31.976 -12.360 -22.151  0.00  0.00    +0.003 C 
ATOM     37  C   UNL     1      32.664 -11.206 -22.527  0.00  0.00    +0.000 C 
ENDBRANCH  31  32
ENDBRANCH  30  31
ENDBRANCH  23  25
ENDBRANCH  20  22
ENDBRANCH   1  20
TORSDOF 6
ENDMDL
MODEL 5
REMARK VINA RESULT:     -11.6      1.138      2.097
REMARK  Name = 25023705
REMARK  6 active torsions:
REMARK  status: ('A' for Active; 'I' for Inactive)
REMARK    1  A    between atoms: C_1  and  C_8
REMARK    2  A    between atoms: C_1  and  C_20
REMARK    3  A    between atoms: C_20  and  N_22
REMARK    4  A    between atoms: C_23  and  C_25
REMARK    5  A    between atoms: C_30  and  O_31
REMARK    6  A    between atoms: O_31  and  C_32
REMARK                            x       y       z     vdW  Elec       q    Type
REMARK                         _______ _______ _______ _____ _____    ______ ____
ROOT
ATOM      1  C   UNL     1      32.694 -23.787 -15.146  0.00  0.00    +0.066 C 
ATOM      2  C   UNL     1      32.501 -22.267 -14.928  0.00  0.00    +0.009 C 
ATOM      3  C   UNL     1      31.390 -24.468 -14.664  0.00  0.00    +0.009 C 
ENDROOT
BRANCH   1   8
ATOM      4  N   UNL     1      33.992 -23.951 -13.059  0.00  0.00    -0.347 NA
ATOM      5  N   UNL     1      35.113 -24.043 -11.035  0.00  0.00    -0.266 NA
ATOM      6  N   UNL     1      37.278 -25.078 -10.841  0.00  0.00    -0.316 NA
ATOM      7  N   UNL     1      36.234 -24.127  -8.974  0.00  0.00    -0.283 N 
ATOM      8  C   UNL     1      33.954 -24.239 -14.382  0.00  0.00    +0.122 C 
ATOM      9  C   UNL     1      34.957 -24.897 -15.062  0.00  0.00    +0.026 C 
ATOM     10  C   UNL     1      36.067 -25.281 -14.330  0.00  0.00    +0.001 C 
ATOM     11  C   UNL     1      35.063 -24.321 -12.343  0.00  0.00    +0.137 C 
ATOM     12  C   UNL     1      36.125 -24.993 -12.959  0.00  0.00    +0.199 C 
ATOM     13  C   UNL     1      37.207 -25.347 -12.156  0.00  0.00    +0.187 C 
ATOM     14  C   UNL     1      36.210 -24.433 -10.352  0.00  0.00    +0.207 C 
ATOM     15  H   UNL     1      35.476 -23.653  -8.563  0.00  0.00    +0.156 HD
ATOM     16  H   UNL     1      37.010 -24.387  -8.426  0.00  0.00    +0.156 HD
ATOM     17  N   UNL     1      38.307 -26.029 -12.732  0.00  0.00    -0.334 N 
ATOM     18  H   UNL     1      39.076 -26.283 -12.172  0.00  0.00    +0.144 HD
ATOM     19  H   UNL     1      38.303 -26.249 -13.691  0.00  0.00    +0.144 HD
ENDBRANCH   1   8
BRANCH   1  20
ATOM     20  C   UNL     1      32.849 -24.042 -16.672  0.00  0.00    +0.096 C 
BRANCH  20  22
ATOM     21  O   UNL     1      33.951 -24.097 -19.323  0.00  0.00    -0.270 OA
ATOM     22  N   UNL     1      33.405 -22.927 -17.395  0.00  0.00    -0.300 N 
ATOM     23  C   UNL     1      33.917 -23.050 -18.680  0.00  0.00    +0.246 C 
ATOM     24  H   UNL     1      33.423 -22.043 -16.961  0.00  0.00    +0.150 HD
BRANCH  23  25
ATOM     25  C   UNL     1      34.480 -21.812 -19.279  0.00  0.00    +0.054 C 
ATOM     26  C   UNL     1      35.856 -21.593 -19.264  0.00  0.00    +0.008 C 
ATOM     27  C   UNL     1      33.628 -20.868 -19.855  0.00  0.00    +0.008 C 
ATOM     28  C   UNL     1      36.383 -20.430 -19.825  0.00  0.00    +0.038 C 
ATOM     29  C   UNL     1      34.155 -19.705 -20.416  0.00  0.00    +0.038 C 
ATOM     30  C   UNL     1      35.533 -19.486 -20.400  0.00  0.00    +0.145 C 
BRANCH  30  31
ATOM     31  O   UNL     1      36.046 -18.350 -20.946  0.00  0.00    -0.453 OA
BRANCH  31  32
ATOM     32  C   UNL     1      35.473 -17.881 -22.116  0.00  0.00    +0.145 C 
ATOM     33  C   UNL     1      35.004 -18.782 -23.072  0.00  0.00    +0.037 C 
ATOM     34  C   UNL     1      35.366 -16.508 -22.339  0.00  0.00    +0.037 C 
ATOM     35  C   UNL     1      34.427 -18.310 -24.251  0.00  0.00    +0.003 C 
ATOM     36  C   UNL     1      34.789 -16.036 -23.519  0.00  0.00    +0.003 C 
ATOM     37  C   UNL     1      34.320 -16.937 -24.475  0.00  0.00    +0.000 C 
ENDBRANCH  31  32
ENDBRANCH  30  31
ENDBRANCH  23  25
ENDBRANCH  20  22
ENDBRANCH   1  20
TORSDOF 6
ENDMDL
MODEL 6
REMARK VINA RESULT:     -11.6      8.986     14.125
REMARK  Name = 25023705
REMARK  6 active torsions:
REMARK  status: ('A' for Active; 'I' for Inactive)
REMARK    1  A    between atoms: C_1  and  C_8
REMARK    2  A    between atoms: C_1  and  C_20
REMARK    3  A    between atoms: C_20  and  N_22
REMARK    4  A    between atoms: C_23  and  C_25
REMARK    5  A    between atoms: C_30  and  O_31
REMARK    6  A    between atoms: O_31  and  C_32
REMARK                            x       y       z     vdW  Elec       q    Type
REMARK                         _______ _______ _______ _____ _____    ______ ____
ROOT
ATOM      1  C   UNL     1      31.725 -11.224 -21.255  0.00  0.00    +0.066 C 
ATOM      2  C   UNL     1      30.316 -11.041 -20.640  0.00  0.00    +0.009 C 
ATOM      3  C   UNL     1      32.630 -11.769 -20.123  0.00  0.00    +0.009 C 
ENDROOT
BRANCH   1   8
ATOM      4  N   UNL     1      31.619  -8.763 -21.305  0.00  0.00    -0.347 NA
ATOM      5  N   UNL     1      31.429  -6.456 -21.256  0.00  0.00    -0.266 NA
ATOM      6  N   UNL     1      32.735  -5.054 -22.715  0.00  0.00    -0.316 NA
ATOM      7  N   UNL     1      31.223  -4.119 -21.191  0.00  0.00    -0.283 N 
ATOM      8  C   UNL     1      32.192  -9.873 -21.831  0.00  0.00    +0.122 C 
ATOM      9  C   UNL     1      33.143  -9.856 -22.828  0.00  0.00    +0.026 C 
ATOM     10  C   UNL     1      33.528  -8.617 -23.311  0.00  0.00    +0.001 C 
ATOM     11  C   UNL     1      31.987  -7.560 -21.767  0.00  0.00    +0.137 C 
ATOM     12  C   UNL     1      32.947  -7.457 -22.780  0.00  0.00    +0.199 C 
ATOM     13  C   UNL     1      33.282  -6.176 -23.213  0.00  0.00    +0.187 C 
ATOM     14  C   UNL     1      31.828  -5.265 -21.750  0.00  0.00    +0.207 C 
ATOM     15  H   UNL     1      30.549  -4.216 -20.480  0.00  0.00    +0.156 HD
ATOM     16  H   UNL     1      31.475  -3.223 -21.514  0.00  0.00    +0.156 HD
ATOM     17  N   UNL     1      34.249  -6.018 -24.236  0.00  0.00    -0.334 N 
ATOM     18  H   UNL     1      34.491  -5.116 -24.549  0.00  0.00    +0.144 HD
ATOM     19  H   UNL     1      34.679  -6.809 -24.635  0.00  0.00    +0.144 HD
ENDBRANCH   1   8
BRANCH   1  20
ATOM     20  C   UNL     1      31.630 -12.300 -22.373  0.00  0.00    +0.096 C 
BRANCH  20  22
ATOM     21  O   UNL     1      33.859 -13.199 -23.943  0.00  0.00    -0.270 OA
ATOM     22  N   UNL     1      32.439 -13.467 -22.128  0.00  0.00    -0.300 N 
ATOM     23  C   UNL     1      33.503 -13.824 -22.948  0.00  0.00    +0.246 C 
ATOM     24  H   UNL     1      32.230 -14.033 -21.350  0.00  0.00    +0.150 HD
BRANCH  23  25
ATOM     25  C   UNL     1      34.221 -15.070 -22.575  0.00  0.00    +0.054 C 
ATOM     26  C   UNL     1      34.574 -15.992 -23.560  0.00  0.00    +0.008 C 
ATOM     27  C   UNL     1      34.542 -15.317 -21.240  0.00  0.00    +0.008 C 
ATOM     28  C   UNL     1      35.247 -17.162 -23.209  0.00  0.00    +0.038 C 
ATOM     29  C   UNL     1      35.216 -16.487 -20.890  0.00  0.00    +0.038 C 
ATOM     30  C   UNL     1      35.568 -17.409 -21.875  0.00  0.00    +0.145 C 
BRANCH  30  31
ATOM     31  O   UNL     1      36.223 -18.552 -21.533  0.00  0.00    -0.453 OA
BRANCH  31  32
ATOM     32  C   UNL     1      35.534 -19.489 -20.780  0.00  0.00    +0.145 C 
ATOM     33  C   UNL     1      36.228 -20.334 -19.915  0.00  0.00    +0.037 C 
ATOM     34  C   UNL     1      34.147 -19.588 -20.889  0.00  0.00    +0.037 C 
ATOM     35  C   UNL     1      35.535 -21.279 -19.157  0.00  0.00    +0.003 C 
ATOM     36  C   UNL     1      33.454 -20.533 -20.132  0.00  0.00    +0.003 C 
ATOM     37  C   UNL     1      34.148 -21.378 -19.267  0.00  0.00    +0.000 C 
ENDBRANCH  31  32
ENDBRANCH  30  31
ENDBRANCH  23  25
ENDBRANCH  20  22
ENDBRANCH   1  20
TORSDOF 6
ENDMDL
MODEL 7
REMARK VINA RESULT:     -11.4      2.632      5.206
REMARK  Name = 25023705
REMARK  6 active torsions:
REMARK  status: ('A' for Active; 'I' for Inactive)
REMARK    1  A    between atoms: C_1  and  C_8
REMARK    2  A    between atoms: C_1  and  C_20
REMARK    3  A    between atoms: C_20  and  N_22
REMARK    4  A    between atoms: C_23  and  C_25
REMARK    5  A    between atoms: C_30  and  O_31
REMARK    6  A    between atoms: O_31  and  C_32
REMARK                            x       y       z     vdW  Elec       q    Type
REMARK                         _______ _______ _______ _____ _____    ______ ____
ROOT
ATOM      1  C   UNL     1      34.610 -23.255 -15.330  0.00  0.00    +0.066 C 
ATOM      2  C   UNL     1      35.517 -23.994 -14.316  0.00  0.00    +0.009 C 
ATOM      3  C   UNL     1      34.886 -21.743 -15.144  0.00  0.00    +0.009 C 
ENDROOT
BRANCH   1   8
ATOM      4  N   UNL     1      32.210 -23.069 -15.851  0.00  0.00    -0.347 NA
ATOM      5  N   UNL     1      29.985 -22.806 -16.436  0.00  0.00    -0.266 NA
ATOM      6  N   UNL     1      28.236 -24.018 -15.308  0.00  0.00    -0.316 NA
ATOM      7  N   UNL     1      27.735 -22.526 -17.042  0.00  0.00    -0.283 N 
ATOM      8  C   UNL     1      33.146 -23.660 -15.070  0.00  0.00    +0.122 C 
ATOM      9  C   UNL     1      32.864 -24.578 -14.081  0.00  0.00    +0.026 C 
ATOM     10  C   UNL     1      31.533 -24.906 -13.888  0.00  0.00    +0.001 C 
ATOM     11  C   UNL     1      30.920 -23.382 -15.670  0.00  0.00    +0.137 C 
ATOM     12  C   UNL     1      30.549 -24.306 -14.686  0.00  0.00    +0.199 C 
ATOM     13  C   UNL     1      29.191 -24.585 -14.552  0.00  0.00    +0.187 C 
ATOM     14  C   UNL     1      28.698 -23.150 -16.219  0.00  0.00    +0.207 C 
ATOM     15  H   UNL     1      28.018 -21.879 -17.727  0.00  0.00    +0.156 HD
ATOM     16  H   UNL     1      26.779 -22.739 -16.929  0.00  0.00    +0.156 HD
ATOM     17  N   UNL     1      28.765 -25.513 -13.570  0.00  0.00    -0.334 N 
ATOM     18  H   UNL     1      27.807 -25.716 -13.468  0.00  0.00    +0.144 HD
ATOM     19  H   UNL     1      29.426 -25.955 -12.990  0.00  0.00    +0.144 HD
ENDBRANCH   1   8
BRANCH   1  20
ATOM     20  C   UNL     1      35.053 -23.665 -16.763  0.00  0.00    +0.096 C 
BRANCH  20  22
ATOM     21  O   UNL     1      33.559 -22.919 -19.099  0.00  0.00    -0.270 OA
ATOM     22  N   UNL     1      35.317 -22.547 -17.633  0.00  0.00    -0.300 N 
ATOM     23  C   UNL     1      34.535 -22.264 -18.745  0.00  0.00    +0.246 C 
ATOM     24  H   UNL     1      36.082 -21.961 -17.430  0.00  0.00    +0.150 HD
BRANCH  23  25
ATOM     25  C   UNL     1      34.956 -21.092 -19.556  0.00  0.00    +0.054 C 
ATOM     26  C   UNL     1      34.025 -20.422 -20.349  0.00  0.00    +0.008 C 
ATOM     27  C   UNL     1      36.284 -20.663 -19.523  0.00  0.00    +0.008 C 
ATOM     28  C   UNL     1      34.422 -19.323 -21.110  0.00  0.00    +0.038 C 
ATOM     29  C   UNL     1      36.679 -19.563 -20.284  0.00  0.00    +0.038 C 
ATOM     30  C   UNL     1      35.748 -18.894 -21.078  0.00  0.00    +0.145 C 
BRANCH  30  31
ATOM     31  O   UNL     1      36.135 -17.822 -21.823  0.00  0.00    -0.453 OA
BRANCH  31  32
ATOM     32  C   UNL     1      35.394 -16.658 -21.710  0.00  0.00    +0.145 C 
ATOM     33  C   UNL     1      35.012 -15.961 -22.856  0.00  0.00    +0.037 C 
ATOM     34  C   UNL     1      35.031 -16.181 -20.450  0.00  0.00    +0.037 C 
ATOM     35  C   UNL     1      34.266 -14.788 -22.743  0.00  0.00    +0.003 C 
ATOM     36  C   UNL     1      34.285 -15.008 -20.337  0.00  0.00    +0.003 C 
ATOM     37  C   UNL     1      33.903 -14.311 -21.483  0.00  0.00    +0.000 C 
ENDBRANCH  31  32
ENDBRANCH  30  31
ENDBRANCH  23  25
ENDBRANCH  20  22
ENDBRANCH   1  20
TORSDOF 6
ENDMDL
MODEL 8
REMARK VINA RESULT:     -11.4      2.724      5.217
REMARK  Name = 25023705
REMARK  6 active torsions:
REMARK  status: ('A' for Active; 'I' for Inactive)
REMARK    1  A    between atoms: C_1  and  C_8
REMARK    2  A    between atoms: C_1  and  C_20
REMARK    3  A    between atoms: C_20  and  N_22
REMARK    4  A    between atoms: C_23  and  C_25
REMARK    5  A    between atoms: C_30  and  O_31
REMARK    6  A    between atoms: O_31  and  C_32
REMARK                            x       y       z     vdW  Elec       q    Type
REMARK                         _______ _______ _______ _____ _____    ______ ____
ROOT
ATOM      1  C   UNL     1      34.549 -21.977 -18.909  0.00  0.00    +0.066 C 
ATOM      2  C   UNL     1      33.223 -21.205 -19.117  0.00  0.00    +0.009 C 
ATOM      3  C   UNL     1      34.517 -23.176 -19.888  0.00  0.00    +0.009 C 
ENDROOT
BRANCH   1   8
ATOM      4  N   UNL     1      33.562 -22.969 -16.882  0.00  0.00    -0.347 NA
ATOM      5  N   UNL     1      32.523 -23.925 -15.046  0.00  0.00    -0.266 NA
ATOM      6  N   UNL     1      33.649 -24.130 -12.928  0.00  0.00    -0.316 NA
ATOM      7  N   UNL     1      31.453 -24.897 -13.196  0.00  0.00    -0.283 N 
ATOM      8  C   UNL     1      34.656 -22.384 -17.426  0.00  0.00    +0.122 C 
ATOM      9  C   UNL     1      35.826 -22.141 -16.740  0.00  0.00    +0.026 C 
ATOM     10  C   UNL     1      35.870 -22.525 -15.412  0.00  0.00    +0.001 C 
ATOM     11  C   UNL     1      33.597 -23.346 -15.596  0.00  0.00    +0.137 C 
ATOM     12  C   UNL     1      34.748 -23.133 -14.830  0.00  0.00    +0.199 C 
ATOM     13  C   UNL     1      34.716 -23.547 -13.500  0.00  0.00    +0.187 C 
ATOM     14  C   UNL     1      32.601 -24.287 -13.748  0.00  0.00    +0.207 C 
ATOM     15  H   UNL     1      30.654 -25.036 -13.754  0.00  0.00    +0.156 HD
ATOM     16  H   UNL     1      31.453 -25.182 -12.253  0.00  0.00    +0.156 HD
ATOM     17  N   UNL     1      35.857 -23.354 -12.683  0.00  0.00    -0.334 N 
ATOM     18  H   UNL     1      35.843 -23.644 -11.742  0.00  0.00    +0.144 HD
ATOM     19  H   UNL     1      36.664 -22.931 -13.056  0.00  0.00    +0.144 HD
ENDBRANCH   1   8
BRANCH   1  20
ATOM     20  C   UNL     1      35.723 -21.041 -19.312  0.00  0.00    +0.096 C 
BRANCH  20  22
ATOM     21  O   UNL     1      37.387 -18.889 -20.228  0.00  0.00    -0.270 OA
ATOM     22  N   UNL     1      35.340 -19.979 -20.207  0.00  0.00    -0.300 N 
ATOM     23  C   UNL     1      36.219 -18.976 -20.595  0.00  0.00    +0.246 C 
ATOM     24  H   UNL     1      34.420 -19.963 -20.556  0.00  0.00    +0.150 HD
BRANCH  23  25
ATOM     25  C   UNL     1      35.662 -17.938 -21.501  0.00  0.00    +0.054 C 
ATOM     26  C   UNL     1      35.402 -16.657 -21.016  0.00  0.00    +0.008 C 
ATOM     27  C   UNL     1      35.400 -18.246 -22.836  0.00  0.00    +0.008 C 
ATOM     28  C   UNL     1      34.878 -15.683 -21.867  0.00  0.00    +0.038 C 
ATOM     29  C   UNL     1      34.876 -17.272 -23.686  0.00  0.00    +0.038 C 
ATOM     30  C   UNL     1      34.615 -15.991 -23.201  0.00  0.00    +0.145 C 
BRANCH  30  31
ATOM     31  O   UNL     1      34.102 -15.041 -24.030  0.00  0.00    -0.453 OA
BRANCH  31  32
ATOM     32  C   UNL     1      33.599 -13.887 -23.454  0.00  0.00    +0.145 C 
ATOM     33  C   UNL     1      32.730 -13.973 -22.367  0.00  0.00    +0.037 C 
ATOM     34  C   UNL     1      33.960 -12.639 -23.962  0.00  0.00    +0.037 C 
ATOM     35  C   UNL     1      32.221 -12.811 -21.786  0.00  0.00    +0.003 C 
ATOM     36  C   UNL     1      33.451 -11.476 -23.382  0.00  0.00    +0.003 C 
ATOM     37  C   UNL     1      32.582 -11.562 -22.295  0.00  0.00    +0.000 C 
ENDBRANCH  31  32
ENDBRANCH  30  31
ENDBRANCH  23  25
ENDBRANCH  20  22
ENDBRANCH   1  20
TORSDOF 6
ENDMDL
MODEL 9
REMARK VINA RESULT:     -11.1      2.675      5.049
REMARK  Name = 25023705
REMARK  6 active torsions:
REMARK  status: ('A' for Active; 'I' for Inactive)
REMARK    1  A    between atoms: C_1  and  C_8
REMARK    2  A    between atoms: C_1  and  C_20
REMARK    3  A    between atoms: C_20  and  N_22
REMARK    4  A    between atoms: C_23  and  C_25
REMARK    5  A    between atoms: C_30  and  O_31
REMARK    6  A    between atoms: O_31  and  C_32
REMARK                            x       y       z     vdW  Elec       q    Type
REMARK                         _______ _______ _______ _____ _____    ______ ____
ROOT
ATOM      1  C   UNL     1      34.391 -22.004 -19.136  0.00  0.00    +0.066 C 
ATOM      2  C   UNL     1      33.042 -21.387 -19.578  0.00  0.00    +0.009 C 
ATOM      3  C   UNL     1      34.702 -23.141 -20.140  0.00  0.00    +0.009 C 
ENDROOT
BRANCH   1   8
ATOM      4  N   UNL     1      35.407 -22.520 -16.952  0.00  0.00    -0.347 NA
ATOM      5  N   UNL     1      36.479 -22.968 -14.949  0.00  0.00    -0.266 NA
ATOM      6  N   UNL     1      35.270 -23.764 -13.025  0.00  0.00    -0.316 NA
ATOM      7  N   UNL     1      37.584 -23.417 -12.927  0.00  0.00    -0.283 N 
ATOM      8  C   UNL     1      34.262 -22.479 -17.676  0.00  0.00    +0.122 C 
ATOM      9  C   UNL     1      33.023 -22.832 -17.186  0.00  0.00    +0.026 C 
ATOM     10  C   UNL     1      32.961 -23.252 -15.869  0.00  0.00    +0.001 C 
ATOM     11  C   UNL     1      35.355 -22.924 -15.675  0.00  0.00    +0.137 C 
ATOM     12  C   UNL     1      34.135 -23.300 -15.103  0.00  0.00    +0.199 C 
ATOM     13  C   UNL     1      34.154 -23.712 -13.772  0.00  0.00    +0.187 C 
ATOM     14  C   UNL     1      36.382 -23.382 -13.668  0.00  0.00    +0.207 C 
ATOM     15  H   UNL     1      38.431 -23.149 -13.351  0.00  0.00    +0.156 HD
ATOM     16  H   UNL     1      37.573 -23.712 -11.987  0.00  0.00    +0.156 HD
ATOM     17  N   UNL     1      32.945 -24.102 -13.147  0.00  0.00    -0.334 N 
ATOM     18  H   UNL     1      32.949 -24.394 -12.206  0.00  0.00    +0.144 HD
ATOM     19  H   UNL     1      32.100 -24.082 -13.652  0.00  0.00    +0.144 HD
ENDBRANCH   1   8
BRANCH   1  20
ATOM     20  C   UNL     1      35.490 -20.913 -19.269  0.00  0.00    +0.096 C 
BRANCH  20  22
ATOM     21  O   UNL     1      37.235 -18.835 -20.206  0.00  0.00    -0.270 OA
ATOM     22  N   UNL     1      35.152 -19.855 -20.186  0.00  0.00    -0.300 N 
ATOM     23  C   UNL     1      36.067 -18.889 -20.583  0.00  0.00    +0.246 C 
ATOM     24  H   UNL     1      34.235 -19.814 -20.544  0.00  0.00    +0.150 HD
BRANCH  23  25
ATOM     25  C   UNL     1      35.555 -17.848 -21.512  0.00  0.00    +0.054 C 
ATOM     26  C   UNL     1      35.323 -18.162 -22.851  0.00  0.00    +0.008 C 
ATOM     27  C   UNL     1      35.307 -16.557 -21.044  0.00  0.00    +0.008 C 
ATOM     28  C   UNL     1      34.843 -17.185 -23.722  0.00  0.00    +0.038 C 
ATOM     29  C   UNL     1      34.826 -15.580 -21.916  0.00  0.00    +0.038 C 
ATOM     30  C   UNL     1      34.595 -15.894 -23.255  0.00  0.00    +0.145 C 
BRANCH  30  31
ATOM     31  O   UNL     1      34.129 -14.940 -24.106  0.00  0.00    -0.453 OA
BRANCH  31  32
ATOM     32  C   UNL     1      33.616 -13.778 -23.552  0.00  0.00    +0.145 C 
ATOM     33  C   UNL     1      34.138 -12.540 -23.925  0.00  0.00    +0.037 C 
ATOM     34  C   UNL     1      32.580 -13.847 -22.621  0.00  0.00    +0.037 C 
ATOM     35  C   UNL     1      33.623 -11.369 -23.367  0.00  0.00    +0.003 C 
ATOM     36  C   UNL     1      32.065 -12.677 -22.063  0.00  0.00    +0.003 C 
ATOM     37  C   UNL     1      32.587 -11.439 -22.436  0.00  0.00    +0.000 C 
ENDBRANCH  31  32
ENDBRANCH  30  31
ENDBRANCH  23  25
ENDBRANCH  20  22
ENDBRANCH   1  20
TORSDOF 6
ENDMDL
