MODEL 1
REMARK VINA RESULT:     -12.3      0.000      0.000
REMARK  Name = 24808489
REMARK  4 active torsions:
REMARK  status: ('A' for Active; 'I' for Inactive)
REMARK    1  A    between atoms: N_1  and  C_10
REMARK    2  A    between atoms: N_1  and  C_21
REMARK    3  A    between atoms: C_18  and  C_24
REMARK    4  A    between atoms: C_24  and  N_25
REMARK                            x       y       z     vdW  Elec       q    Type
REMARK                         _______ _______ _______ _____ _____    ______ ____
ROOT
ATOM      1  N   UNL     1      34.541 -22.406 -18.584  0.00  0.00    -0.311 N 
ATOM      2  H   UNL     1      35.179 -23.155 -18.581  0.00  0.00    +0.152 HD
ENDROOT
BRANCH   1  10
ATOM      3 BR   UNL     1      27.980 -22.825 -16.405  0.00  0.00    -0.049 Br
ATOM      4  O   UNL     1      35.764 -23.038 -16.451  0.00  0.00    -0.270 OA
ATOM      5  O   UNL     1      33.518 -24.048 -12.578  0.00  0.00    -0.270 OA
ATOM      6  N   UNL     1      34.603 -23.536 -14.537  0.00  0.00    -0.248 N 
ATOM      7  C   UNL     1      33.367 -22.942 -16.538  0.00  0.00    +0.068 C 
ATOM      8  C   UNL     1      32.108 -23.117 -15.782  0.00  0.00    +0.010 C 
ATOM      9  C   UNL     1      32.166 -23.495 -14.430  0.00  0.00    +0.054 C 
ATOM     10  C   UNL     1      33.432 -22.583 -17.833  0.00  0.00    +0.066 C 
ATOM     11  C   UNL     1      34.688 -23.167 -15.872  0.00  0.00    +0.253 C 
ATOM     12  C   UNL     1      30.837 -22.922 -16.351  0.00  0.00    +0.007 C 
ATOM     13  C   UNL     1      33.466 -23.719 -13.759  0.00  0.00    +0.252 C 
ATOM     14  C   UNL     1      30.993 -23.671 -13.678  0.00  0.00    +0.005 C 
ATOM     15  C   UNL     1      29.669 -23.098 -15.601  0.00  0.00    +0.035 C 
ATOM     16  C   UNL     1      29.747 -23.472 -14.266  0.00  0.00    +0.007 C 
ATOM     17  H   UNL     1      35.462 -23.690 -14.081  0.00  0.00    +0.158 HD
ENDBRANCH   1  10
BRANCH   1  21
ATOM     18  C   UNL     1      35.632 -19.098 -20.926  0.00  0.00    -0.043 C 
ATOM     19  C   UNL     1      36.606 -19.806 -20.223  0.00  0.00    -0.005 C 
ATOM     20  C   UNL     1      34.295 -19.488 -20.851  0.00  0.00    -0.005 C 
ATOM     21  C   UNL     1      34.907 -21.296 -19.369  0.00  0.00    +0.048 C 
ATOM     22  C   UNL     1      36.243 -20.905 -19.444  0.00  0.00    +0.014 C 
ATOM     23  C   UNL     1      33.932 -20.587 -20.073  0.00  0.00    +0.014 C 
BRANCH  18  24
ATOM     24  C   UNL     1      36.020 -17.922 -21.758  0.00  0.00    -0.050 C 
BRANCH  24  25
ATOM     25  N   UNL     1      35.002 -16.882 -21.759  0.00  0.00    +0.390 N 
ATOM     26  C   UNL     1      35.055 -16.048 -20.559  0.00  0.00    -0.077 C 
ATOM     27  C   UNL     1      35.156 -15.951 -22.876  0.00  0.00    -0.077 C 
ATOM     28  C   UNL     1      34.210 -14.842 -20.944  0.00  0.00    -0.025 C 
ATOM     29  C   UNL     1      34.274 -14.781 -22.467  0.00  0.00    -0.025 C 
ATOM     30  H   UNL     1      34.123 -17.398 -21.818  0.00  0.00    -0.079 HD
ENDBRANCH  24  25
ENDBRANCH  18  24
ENDBRANCH   1  21
TORSDOF 4
ENDMDL
MODEL 2
REMARK VINA RESULT:     -11.6      2.578      3.443
REMARK  Name = 24808489
REMARK  4 active torsions:
REMARK  status: ('A' for Active; 'I' for Inactive)
REMARK    1  A    between atoms: N_1  and  C_10
REMARK    2  A    between atoms: N_1  and  C_21
REMARK    3  A    between atoms: C_18  and  C_24
REMARK    4  A    between atoms: C_24  and  N_25
REMARK                            x       y       z     vdW  Elec       q    Type
REMARK                         _______ _______ _______ _____ _____    ______ ____
ROOT
ATOM      1  N   UNL     1      33.564 -22.411 -18.234  0.00  0.00    -0.311 N 
ATOM      2  H   UNL     1      32.670 -22.750 -18.465  0.00  0.00    +0.152 HD
ENDROOT
BRANCH   1  10
ATOM      3 BR   UNL     1      37.866 -24.733 -13.327  0.00  0.00    -0.049 Br
ATOM      4  O   UNL     1      31.368 -22.452 -16.962  0.00  0.00    -0.270 OA
ATOM      5  O   UNL     1      31.123 -23.835 -12.592  0.00  0.00    -0.270 OA
ATOM      6  N   UNL     1      31.290 -23.150 -14.779  0.00  0.00    -0.248 N 
ATOM      7  C   UNL     1      33.425 -23.137 -15.930  0.00  0.00    +0.068 C 
ATOM      8  C   UNL     1      34.065 -23.645 -14.698  0.00  0.00    +0.010 C 
ATOM      9  C   UNL     1      33.273 -23.882 -13.561  0.00  0.00    +0.054 C 
ATOM     10  C   UNL     1      34.081 -22.876 -17.075  0.00  0.00    +0.066 C 
ATOM     11  C   UNL     1      31.951 -22.875 -15.967  0.00  0.00    +0.253 C 
ATOM     12  C   UNL     1      35.442 -23.910 -14.600  0.00  0.00    +0.007 C 
ATOM     13  C   UNL     1      31.815 -23.628 -13.584  0.00  0.00    +0.252 C 
ATOM     14  C   UNL     1      33.843 -24.365 -12.371  0.00  0.00    +0.005 C 
ATOM     15  C   UNL     1      36.008 -24.391 -13.415  0.00  0.00    +0.035 C 
ATOM     16  C   UNL     1      35.210 -24.618 -12.302  0.00  0.00    +0.007 C 
ATOM     17  H   UNL     1      30.319 -22.983 -14.782  0.00  0.00    +0.158 HD
ENDBRANCH   1  10
BRANCH   1  21
ATOM     18  C   UNL     1      35.257 -19.721 -20.976  0.00  0.00    -0.043 C 
ATOM     19  C   UNL     1      33.870 -19.806 -20.847  0.00  0.00    -0.005 C 
ATOM     20  C   UNL     1      36.081 -20.531 -20.195  0.00  0.00    -0.005 C 
ATOM     21  C   UNL     1      34.132 -21.510 -19.154  0.00  0.00    +0.048 C 
ATOM     22  C   UNL     1      33.308 -20.700 -19.935  0.00  0.00    +0.014 C 
ATOM     23  C   UNL     1      35.519 -21.425 -19.284  0.00  0.00    +0.014 C 
BRANCH  18  24
ATOM     24  C   UNL     1      35.857 -18.766 -21.951  0.00  0.00    -0.050 C 
BRANCH  24  25
ATOM     25  N   UNL     1      34.998 -17.619 -22.205  0.00  0.00    +0.390 N 
ATOM     26  C   UNL     1      35.368 -16.455 -21.399  0.00  0.00    -0.077 C 
ATOM     27  C   UNL     1      35.074 -17.161 -23.592  0.00  0.00    -0.077 C 
ATOM     28  C   UNL     1      34.633 -15.315 -22.089  0.00  0.00    -0.025 C 
ATOM     29  C   UNL     1      34.437 -15.780 -23.529  0.00  0.00    -0.025 C 
ATOM     30  H   UNL     1      34.063 -17.954 -21.971  0.00  0.00    -0.079 HD
ENDBRANCH  24  25
ENDBRANCH  18  24
ENDBRANCH   1  21
TORSDOF 4
ENDMDL
MODEL 3
REMARK VINA RESULT:     -11.5      2.582      3.368
REMARK  Name = 24808489
REMARK  4 active torsions:
REMARK  status: ('A' for Active; 'I' for Inactive)
REMARK    1  A    between atoms: N_1  and  C_10
REMARK    2  A    between atoms: N_1  and  C_21
REMARK    3  A    between atoms: C_18  and  C_24
REMARK    4  A    between atoms: C_24  and  N_25
REMARK                            x       y       z     vdW  Elec       q    Type
REMARK                         _______ _______ _______ _____ _____    ______ ____
ROOT
ATOM      1  N   UNL     1      33.767 -22.280 -18.355  0.00  0.00    -0.311 N 
ATOM      2  H   UNL     1      32.862 -22.613 -18.552  0.00  0.00    +0.152 HD
ENDROOT
BRANCH   1  10
ATOM      3 BR   UNL     1      38.370 -24.730 -13.798  0.00  0.00    -0.049 Br
ATOM      4  O   UNL     1      31.630 -22.510 -17.004  0.00  0.00    -0.270 OA
ATOM      5  O   UNL     1      31.632 -24.200 -12.737  0.00  0.00    -0.270 OA
ATOM      6  N   UNL     1      31.676 -23.359 -14.874  0.00  0.00    -0.248 N 
ATOM      7  C   UNL     1      33.757 -23.167 -16.105  0.00  0.00    +0.068 C 
ATOM      8  C   UNL     1      34.470 -23.729 -14.937  0.00  0.00    +0.010 C 
ATOM      9  C   UNL     1      33.739 -24.080 -13.790  0.00  0.00    +0.054 C 
ATOM     10  C   UNL     1      34.352 -22.798 -17.253  0.00  0.00    +0.066 C 
ATOM     11  C   UNL     1      32.274 -22.973 -16.065  0.00  0.00    +0.253 C 
ATOM     12  C   UNL     1      35.861 -23.935 -14.914  0.00  0.00    +0.007 C 
ATOM     13  C   UNL     1      32.272 -23.893 -13.738  0.00  0.00    +0.252 C 
ATOM     14  C   UNL     1      34.380 -24.616 -12.661  0.00  0.00    +0.005 C 
ATOM     15  C   UNL     1      36.498 -24.469 -13.789  0.00  0.00    +0.035 C 
ATOM     16  C   UNL     1      35.758 -24.809 -12.664  0.00  0.00    +0.007 C 
ATOM     17  H   UNL     1      30.699 -23.238 -14.828  0.00  0.00    +0.158 HD
ENDBRANCH   1  10
BRANCH   1  21
ATOM     18  C   UNL     1      35.287 -19.446 -21.054  0.00  0.00    -0.043 C 
ATOM     19  C   UNL     1      36.138 -20.063 -20.137  0.00  0.00    -0.005 C 
ATOM     20  C   UNL     1      33.931 -19.771 -21.075  0.00  0.00    -0.005 C 
ATOM     21  C   UNL     1      34.276 -21.329 -19.260  0.00  0.00    +0.048 C 
ATOM     22  C   UNL     1      35.632 -21.004 -19.240  0.00  0.00    +0.014 C 
ATOM     23  C   UNL     1      33.425 -20.712 -20.178  0.00  0.00    +0.014 C 
BRANCH  18  24
ATOM     24  C   UNL     1      35.827 -18.440 -22.012  0.00  0.00    -0.050 C 
BRANCH  24  25
ATOM     25  N   UNL     1      34.984 -17.257 -22.110  0.00  0.00    +0.390 N 
ATOM     26  C   UNL     1      35.214 -16.316 -21.014  0.00  0.00    -0.077 C 
ATOM     27  C   UNL     1      35.237 -16.491 -23.329  0.00  0.00    -0.077 C 
ATOM     28  C   UNL     1      34.553 -15.040 -21.516  0.00  0.00    -0.025 C 
ATOM     29  C   UNL     1      34.565 -15.157 -23.037  0.00  0.00    -0.025 C 
ATOM     30  H   UNL     1      34.034 -17.629 -22.090  0.00  0.00    -0.079 HD
ENDBRANCH  24  25
ENDBRANCH  18  24
ENDBRANCH   1  21
TORSDOF 4
ENDMDL
MODEL 4
REMARK VINA RESULT:     -11.3      1.503      2.227
REMARK  Name = 24808489
REMARK  4 active torsions:
REMARK  status: ('A' for Active; 'I' for Inactive)
REMARK    1  A    between atoms: N_1  and  C_10
REMARK    2  A    between atoms: N_1  and  C_21
REMARK    3  A    between atoms: C_18  and  C_24
REMARK    4  A    between atoms: C_24  and  N_25
REMARK                            x       y       z     vdW  Elec       q    Type
REMARK                         _______ _______ _______ _____ _____    ______ ____
ROOT
ATOM      1  N   UNL     1      36.199 -21.641 -18.228  0.00  0.00    -0.311 N 
ATOM      2  H   UNL     1      37.126 -21.919 -18.051  0.00  0.00    +0.152 HD
ENDROOT
BRANCH   1  10
ATOM      3 BR   UNL     1      30.249 -23.843 -15.450  0.00  0.00    -0.049 Br
ATOM      4  O   UNL     1      37.803 -22.174 -16.334  0.00  0.00    -0.270 OA
ATOM      5  O   UNL     1      36.374 -24.080 -12.411  0.00  0.00    -0.270 OA
ATOM      6  N   UNL     1      37.047 -23.127 -14.390  0.00  0.00    -0.248 N 
ATOM      7  C   UNL     1      35.457 -22.648 -16.157  0.00  0.00    +0.068 C 
ATOM      8  C   UNL     1      34.381 -23.196 -15.303  0.00  0.00    +0.010 C 
ATOM      9  C   UNL     1      34.700 -23.683 -14.025  0.00  0.00    +0.054 C 
ATOM     10  C   UNL     1      35.268 -22.155 -17.394  0.00  0.00    +0.066 C 
ATOM     11  C   UNL     1      36.870 -22.615 -15.667  0.00  0.00    +0.253 C 
ATOM     12  C   UNL     1      33.035 -23.255 -15.706  0.00  0.00    +0.007 C 
ATOM     13  C   UNL     1      36.094 -23.656 -13.528  0.00  0.00    +0.252 C 
ATOM     14  C   UNL     1      33.707 -24.212 -13.183  0.00  0.00    +0.005 C 
ATOM     15  C   UNL     1      32.047 -23.781 -14.868  0.00  0.00    +0.035 C 
ATOM     16  C   UNL     1      32.383 -24.259 -13.608  0.00  0.00    +0.007 C 
ATOM     17  H   UNL     1      37.972 -23.115 -14.049  0.00  0.00    +0.158 HD
ENDBRANCH   1  10
BRANCH   1  21
ATOM     18  C   UNL     1      35.671 -19.022 -21.465  0.00  0.00    -0.043 C 
ATOM     19  C   UNL     1      34.613 -19.826 -21.038  0.00  0.00    -0.005 C 
ATOM     20  C   UNL     1      36.904 -19.089 -20.816  0.00  0.00    -0.005 C 
ATOM     21  C   UNL     1      36.022 -20.763 -19.314  0.00  0.00    +0.048 C 
ATOM     22  C   UNL     1      34.790 -20.696 -19.963  0.00  0.00    +0.014 C 
ATOM     23  C   UNL     1      37.080 -19.959 -19.741  0.00  0.00    +0.014 C 
BRANCH  18  24
ATOM     24  C   UNL     1      35.482 -18.092 -22.615  0.00  0.00    -0.050 C 
BRANCH  24  25
ATOM     25  N   UNL     1      35.517 -16.694 -22.211  0.00  0.00    +0.390 N 
ATOM     26  C   UNL     1      34.751 -15.833 -23.111  0.00  0.00    -0.077 C 
ATOM     27  C   UNL     1      34.929 -16.481 -20.889  0.00  0.00    -0.077 C 
ATOM     28  C   UNL     1      34.601 -14.548 -22.309  0.00  0.00    -0.025 C 
ATOM     29  C   UNL     1      34.721 -14.974 -20.849  0.00  0.00    -0.025 C 
ATOM     30  H   UNL     1      36.510 -16.459 -22.222  0.00  0.00    -0.079 HD
ENDBRANCH  24  25
ENDBRANCH  18  24
ENDBRANCH   1  21
TORSDOF 4
ENDMDL
MODEL 5
REMARK VINA RESULT:     -10.8      2.587      3.264
REMARK  Name = 24808489
REMARK  4 active torsions:
REMARK  status: ('A' for Active; 'I' for Inactive)
REMARK    1  A    between atoms: N_1  and  C_10
REMARK    2  A    between atoms: N_1  and  C_21
REMARK    3  A    between atoms: C_18  and  C_24
REMARK    4  A    between atoms: C_24  and  N_25
REMARK                            x       y       z     vdW  Elec       q    Type
REMARK                         _______ _______ _______ _____ _____    ______ ____
ROOT
ATOM      1  N   UNL     1      35.225 -21.998 -19.474  0.00  0.00    -0.311 N 
ATOM      2  H   UNL     1      35.003 -22.732 -20.090  0.00  0.00    +0.152 HD
ENDROOT
BRANCH   1  10
ATOM      3 BR   UNL     1      37.653 -23.536 -13.173  0.00  0.00    -0.049 Br
ATOM      4  O   UNL     1      32.732 -22.260 -19.071  0.00  0.00    -0.270 OA
ATOM      5  O   UNL     1      31.053 -23.469 -14.974  0.00  0.00    -0.270 OA
ATOM      6  N   UNL     1      31.935 -22.866 -17.008  0.00  0.00    -0.248 N 
ATOM      7  C   UNL     1      34.330 -22.633 -17.318  0.00  0.00    +0.068 C 
ATOM      8  C   UNL     1      34.524 -23.001 -15.899  0.00  0.00    +0.010 C 
ATOM      9  C   UNL     1      33.401 -23.286 -15.104  0.00  0.00    +0.054 C 
ATOM     10  C   UNL     1      35.328 -22.341 -18.171  0.00  0.00    +0.066 C 
ATOM     11  C   UNL     1      32.953 -22.562 -17.901  0.00  0.00    +0.253 C 
ATOM     12  C   UNL     1      35.791 -23.085 -15.294  0.00  0.00    +0.007 C 
ATOM     13  C   UNL     1      32.035 -23.220 -15.668  0.00  0.00    +0.252 C 
ATOM     14  C   UNL     1      33.544 -23.639 -13.752  0.00  0.00    +0.005 C 
ATOM     15  C   UNL     1      35.932 -23.436 -13.948  0.00  0.00    +0.035 C 
ATOM     16  C   UNL     1      34.810 -23.714 -13.178  0.00  0.00    +0.007 C 
ATOM     17  H   UNL     1      31.021 -22.823 -17.372  0.00  0.00    +0.158 HD
ENDBRANCH   1  10
BRANCH   1  21
ATOM     18  C   UNL     1      35.728 -18.227 -21.249  0.00  0.00    -0.043 C 
ATOM     19  C   UNL     1      36.798 -18.840 -20.596  0.00  0.00    -0.005 C 
ATOM     20  C   UNL     1      34.490 -18.867 -21.311  0.00  0.00    -0.005 C 
ATOM     21  C   UNL     1      35.393 -20.733 -20.069  0.00  0.00    +0.048 C 
ATOM     22  C   UNL     1      36.630 -20.092 -20.006  0.00  0.00    +0.014 C 
ATOM     23  C   UNL     1      34.323 -20.120 -20.721  0.00  0.00    +0.014 C 
BRANCH  18  24
ATOM     24  C   UNL     1      35.907 -16.888 -21.878  0.00  0.00    -0.050 C 
BRANCH  24  25
ATOM     25  N   UNL     1      34.751 -16.025 -21.686  0.00  0.00    +0.390 N 
ATOM     26  C   UNL     1      34.727 -15.411 -20.359  0.00  0.00    -0.077 C 
ATOM     27  C   UNL     1      34.730 -14.902 -22.624  0.00  0.00    -0.077 C 
ATOM     28  C   UNL     1      33.705 -14.295 -20.517  0.00  0.00    -0.025 C 
ATOM     29  C   UNL     1      33.705 -13.963 -22.007  0.00  0.00    -0.025 C 
ATOM     30  H   UNL     1      33.954 -16.645 -21.827  0.00  0.00    -0.079 HD
ENDBRANCH  24  25
ENDBRANCH  18  24
ENDBRANCH   1  21
TORSDOF 4
ENDMDL
MODEL 6
REMARK VINA RESULT:     -10.6      6.883     12.058
REMARK  Name = 24808489
REMARK  4 active torsions:
REMARK  status: ('A' for Active; 'I' for Inactive)
REMARK    1  A    between atoms: N_1  and  C_10
REMARK    2  A    between atoms: N_1  and  C_21
REMARK    3  A    between atoms: C_18  and  C_24
REMARK    4  A    between atoms: C_24  and  N_25
REMARK                            x       y       z     vdW  Elec       q    Type
REMARK                         _______ _______ _______ _____ _____    ______ ____
ROOT
ATOM      1  N   UNL     1      32.564 -13.039 -22.972  0.00  0.00    -0.311 N 
ATOM      2  H   UNL     1      31.623 -13.260 -23.154  0.00  0.00    +0.152 HD
ENDROOT
BRANCH   1  10
ATOM      3 BR   UNL     1      34.898  -6.663 -24.341  0.00  0.00    -0.049 Br
ATOM      4  O   UNL     1      31.405 -12.625 -20.752  0.00  0.00    -0.270 OA
ATOM      5  O   UNL     1      31.319  -8.473 -18.799  0.00  0.00    -0.270 OA
ATOM      6  N   UNL     1      31.385 -10.535 -19.811  0.00  0.00    -0.248 N 
ATOM      7  C   UNL     1      32.511 -10.854 -21.935  0.00  0.00    +0.068 C 
ATOM      8  C   UNL     1      32.863  -9.417 -21.936  0.00  0.00    +0.010 C 
ATOM      9  C   UNL     1      32.453  -8.610 -20.862  0.00  0.00    +0.054 C 
ATOM     10  C   UNL     1      32.850 -11.720 -22.907  0.00  0.00    +0.066 C 
ATOM     11  C   UNL     1      31.726 -11.441 -20.804  0.00  0.00    +0.253 C 
ATOM     12  C   UNL     1      33.597  -8.807 -22.969  0.00  0.00    +0.007 C 
ATOM     13  C   UNL     1      31.677  -9.178 -19.738  0.00  0.00    +0.252 C 
ATOM     14  C   UNL     1      32.767  -7.241 -20.826  0.00  0.00    +0.005 C 
ATOM     15  C   UNL     1      33.909  -7.444 -22.932  0.00  0.00    +0.035 C 
ATOM     16  C   UNL     1      33.494  -6.662 -21.862  0.00  0.00    +0.007 C 
ATOM     17  H   UNL     1      30.867 -10.902 -19.058  0.00  0.00    +0.158 HD
ENDBRANCH   1  10
BRANCH   1  21
ATOM     18  C   UNL     1      35.146 -16.315 -22.504  0.00  0.00    -0.043 C 
ATOM     19  C   UNL     1      34.590 -16.038 -23.753  0.00  0.00    -0.005 C 
ATOM     20  C   UNL     1      34.844 -15.503 -21.411  0.00  0.00    -0.005 C 
ATOM     21  C   UNL     1      33.430 -14.138 -22.815  0.00  0.00    +0.048 C 
ATOM     22  C   UNL     1      33.732 -14.949 -23.908  0.00  0.00    +0.014 C 
ATOM     23  C   UNL     1      33.986 -14.415 -21.566  0.00  0.00    +0.014 C 
BRANCH  18  24
ATOM     24  C   UNL     1      36.063 -17.479 -22.338  0.00  0.00    -0.050 C 
BRANCH  24  25
ATOM     25  N   UNL     1      35.694 -18.320 -21.209  0.00  0.00    +0.390 N 
ATOM     26  C   UNL     1      34.705 -19.335 -21.569  0.00  0.00    -0.077 C 
ATOM     27  C   UNL     1      36.832 -19.069 -20.676  0.00  0.00    -0.077 C 
ATOM     28  C   UNL     1      34.768 -20.304 -20.397  0.00  0.00    -0.025 C 
ATOM     29  C   UNL     1      36.165 -20.127 -19.809  0.00  0.00    -0.025 C 
ATOM     30  H   UNL     1      35.324 -17.662 -20.523  0.00  0.00    -0.079 HD
ENDBRANCH  24  25
ENDBRANCH  18  24
ENDBRANCH   1  21
TORSDOF 4
ENDMDL
MODEL 7
REMARK VINA RESULT:      -9.9      7.597     12.857
REMARK  Name = 24808489
REMARK  4 active torsions:
REMARK  status: ('A' for Active; 'I' for Inactive)
REMARK    1  A    between atoms: N_1  and  C_10
REMARK    2  A    between atoms: N_1  and  C_21
REMARK    3  A    between atoms: C_18  and  C_24
REMARK    4  A    between atoms: C_24  and  N_25
REMARK                            x       y       z     vdW  Elec       q    Type
REMARK                         _______ _______ _______ _____ _____    ______ ____
ROOT
ATOM      1  N   UNL     1      31.964 -12.142 -22.488  0.00  0.00    -0.311 N 
ATOM      2  H   UNL     1      31.081 -12.343 -22.102  0.00  0.00    +0.152 HD
ENDROOT
BRANCH   1  10
ATOM      3 BR   UNL     1      33.117  -6.161 -25.785  0.00  0.00    -0.049 Br
ATOM      4  O   UNL     1      31.960 -11.335 -20.081  0.00  0.00    -0.270 OA
ATOM      5  O   UNL     1      32.622  -6.923 -19.004  0.00  0.00    -0.270 OA
ATOM      6  N   UNL     1      32.294  -9.121 -19.587  0.00  0.00    -0.248 N 
ATOM      7  C   UNL     1      32.309  -9.819 -21.910  0.00  0.00    +0.068 C 
ATOM      8  C   UNL     1      32.559  -8.415 -22.304  0.00  0.00    +0.010 C 
ATOM      9  C   UNL     1      32.665  -7.431 -21.307  0.00  0.00    +0.054 C 
ATOM     10  C   UNL     1      32.191 -10.842 -22.775  0.00  0.00    +0.066 C 
ATOM     11  C   UNL     1      32.169 -10.187 -20.466  0.00  0.00    +0.253 C 
ATOM     12  C   UNL     1      32.700  -8.007 -23.642  0.00  0.00    +0.007 C 
ATOM     13  C   UNL     1      32.529  -7.782 -19.875  0.00  0.00    +0.252 C 
ATOM     14  C   UNL     1      32.901  -6.087 -21.640  0.00  0.00    +0.005 C 
ATOM     15  C   UNL     1      32.935  -6.669 -23.973  0.00  0.00    +0.035 C 
ATOM     16  C   UNL     1      33.036  -5.710 -22.973  0.00  0.00    +0.007 C 
ATOM     17  H   UNL     1      32.203  -9.342 -18.631  0.00  0.00    +0.158 HD
ENDBRANCH   1  10
BRANCH   1  21
ATOM     18  C   UNL     1      34.512 -15.436 -23.018  0.00  0.00    -0.043 C 
ATOM     19  C   UNL     1      33.785 -14.934 -24.099  0.00  0.00    -0.005 C 
ATOM     20  C   UNL     1      34.391 -14.843 -21.762  0.00  0.00    -0.005 C 
ATOM     21  C   UNL     1      32.818 -13.247 -22.665  0.00  0.00    +0.048 C 
ATOM     22  C   UNL     1      32.939 -13.840 -23.922  0.00  0.00    +0.014 C 
ATOM     23  C   UNL     1      33.544 -13.749 -21.585  0.00  0.00    +0.014 C 
BRANCH  18  24
ATOM     24  C   UNL     1      35.416 -16.606 -23.208  0.00  0.00    -0.050 C 
BRANCH  24  25
ATOM     25  N   UNL     1      35.162 -17.666 -22.243  0.00  0.00    +0.390 N 
ATOM     26  C   UNL     1      34.702 -18.900 -22.879  0.00  0.00    -0.077 C 
ATOM     27  C   UNL     1      36.363 -18.045 -21.501  0.00  0.00    -0.077 C 
ATOM     28  C   UNL     1      34.879 -19.937 -21.779  0.00  0.00    -0.025 C 
ATOM     29  C   UNL     1      35.969 -19.373 -20.872  0.00  0.00    -0.025 C 
ATOM     30  H   UNL     1      34.449 -17.274 -21.628  0.00  0.00    -0.079 HD
ENDBRANCH  24  25
ENDBRANCH  18  24
ENDBRANCH   1  21
TORSDOF 4
ENDMDL
MODEL 8
REMARK VINA RESULT:      -9.9      3.518      5.035
REMARK  Name = 24808489
REMARK  4 active torsions:
REMARK  status: ('A' for Active; 'I' for Inactive)
REMARK    1  A    between atoms: N_1  and  C_10
REMARK    2  A    between atoms: N_1  and  C_21
REMARK    3  A    between atoms: C_18  and  C_24
REMARK    4  A    between atoms: C_24  and  N_25
REMARK                            x       y       z     vdW  Elec       q    Type
REMARK                         _______ _______ _______ _____ _____    ______ ____
ROOT
ATOM      1  N   UNL     1      33.927 -23.630 -16.423  0.00  0.00    -0.311 N 
ATOM      2  H   UNL     1      33.092 -24.069 -16.144  0.00  0.00    +0.152 HD
ENDROOT
BRANCH   1  10
ATOM      3 BR   UNL     1      40.340 -25.527 -14.622  0.00  0.00    -0.049 Br
ATOM      4  O   UNL     1      32.853 -23.443 -14.130  0.00  0.00    -0.270 OA
ATOM      5  O   UNL     1      35.196 -24.306 -10.279  0.00  0.00    -0.270 OA
ATOM      6  N   UNL     1      34.060 -23.883 -12.231  0.00  0.00    -0.248 N 
ATOM      7  C   UNL     1      35.153 -24.080 -14.387  0.00  0.00    +0.068 C 
ATOM      8  C   UNL     1      36.400 -24.466 -13.692  0.00  0.00    +0.010 C 
ATOM      9  C   UNL     1      36.409 -24.542 -12.289  0.00  0.00    +0.054 C 
ATOM     10  C   UNL     1      35.029 -23.976 -15.722  0.00  0.00    +0.066 C 
ATOM     11  C   UNL     1      33.915 -23.771 -13.606  0.00  0.00    +0.253 C 
ATOM     12  C   UNL     1      37.595 -24.768 -14.369  0.00  0.00    +0.007 C 
ATOM     13  C   UNL     1      35.190 -24.240 -11.505  0.00  0.00    +0.252 C 
ATOM     14  C   UNL     1      37.573 -24.905 -11.591  0.00  0.00    +0.005 C 
ATOM     15  C   UNL     1      38.754 -25.130 -13.673  0.00  0.00    +0.035 C 
ATOM     16  C   UNL     1      38.742 -25.198 -12.286  0.00  0.00    +0.007 C 
ATOM     17  H   UNL     1      33.256 -23.682 -11.699  0.00  0.00    +0.158 HD
ENDBRANCH   1  10
BRANCH   1  21
ATOM     18  C   UNL     1      33.585 -20.939 -19.627  0.00  0.00    -0.043 C 
ATOM     19  C   UNL     1      34.828 -21.485 -19.303  0.00  0.00    -0.005 C 
ATOM     20  C   UNL     1      32.457 -21.287 -18.885  0.00  0.00    -0.005 C 
ATOM     21  C   UNL     1      33.812 -22.726 -17.497  0.00  0.00    +0.048 C 
ATOM     22  C   UNL     1      34.941 -22.379 -18.239  0.00  0.00    +0.014 C 
ATOM     23  C   UNL     1      32.569 -22.180 -17.820  0.00  0.00    +0.014 C 
BRANCH  18  24
ATOM     24  C   UNL     1      33.465 -19.983 -20.765  0.00  0.00    -0.050 C 
BRANCH  24  25
ATOM     25  N   UNL     1      34.756 -19.467 -21.195  0.00  0.00    +0.390 N 
ATOM     26  C   UNL     1      34.911 -19.492 -22.649  0.00  0.00    -0.077 C 
ATOM     27  C   UNL     1      34.952 -18.068 -20.816  0.00  0.00    -0.077 C 
ATOM     28  C   UNL     1      36.107 -18.580 -22.881  0.00  0.00    -0.025 C 
ATOM     29  C   UNL     1      36.135 -17.646 -21.674  0.00  0.00    -0.025 C 
ATOM     30  H   UNL     1      35.431 -20.078 -20.736  0.00  0.00    -0.079 HD
ENDBRANCH  24  25
ENDBRANCH  18  24
ENDBRANCH   1  21
TORSDOF 4
ENDMDL
MODEL 9
REMARK VINA RESULT:      -9.8      5.991     11.347
REMARK  Name = 24808489
REMARK  4 active torsions:
REMARK  status: ('A' for Active; 'I' for Inactive)
REMARK    1  A    between atoms: N_1  and  C_10
REMARK    2  A    between atoms: N_1  and  C_21
REMARK    3  A    between atoms: C_18  and  C_24
REMARK    4  A    between atoms: C_24  and  N_25
REMARK                            x       y       z     vdW  Elec       q    Type
REMARK                         _______ _______ _______ _____ _____    ______ ____
ROOT
ATOM      1  N   UNL     1      33.935 -14.191 -22.886  0.00  0.00    -0.311 N 
ATOM      2  H   UNL     1      33.923 -14.033 -23.857  0.00  0.00    +0.152 HD
ENDROOT
BRANCH   1  10
ATOM      3 BR   UNL     1      31.598 -10.400 -17.582  0.00  0.00    -0.049 Br
ATOM      4  O   UNL     1      33.675 -12.522 -24.781  0.00  0.00    -0.270 OA
ATOM      5  O   UNL     1      32.011  -8.302 -24.081  0.00  0.00    -0.270 OA
ATOM      6  N   UNL     1      32.839 -10.423 -24.388  0.00  0.00    -0.248 N 
ATOM      7  C   UNL     1      33.061 -11.964 -22.528  0.00  0.00    +0.068 C 
ATOM      8  C   UNL     1      32.520 -10.920 -21.631  0.00  0.00    +0.010 C 
ATOM      9  C   UNL     1      32.163  -9.672 -22.167  0.00  0.00    +0.054 C 
ATOM     10  C   UNL     1      33.435 -13.192 -22.127  0.00  0.00    +0.066 C 
ATOM     11  C   UNL     1      33.229 -11.694 -23.990  0.00  0.00    +0.253 C 
ATOM     12  C   UNL     1      32.340 -11.113 -20.249  0.00  0.00    +0.007 C 
ATOM     13  C   UNL     1      32.323  -9.392 -23.612  0.00  0.00    +0.252 C 
ATOM     14  C   UNL     1      31.646  -8.655 -21.348  0.00  0.00    +0.005 C 
ATOM     15  C   UNL     1      31.825 -10.100 -19.435  0.00  0.00    +0.035 C 
ATOM     16  C   UNL     1      31.478  -8.872 -19.984  0.00  0.00    +0.007 C 
ATOM     17  H   UNL     1      32.943 -10.225 -25.347  0.00  0.00    +0.158 HD
ENDBRANCH   1  10
BRANCH   1  21
ATOM     18  C   UNL     1      35.535 -17.876 -21.667  0.00  0.00    -0.043 C 
ATOM     19  C   UNL     1      35.275 -17.641 -23.017  0.00  0.00    -0.005 C 
ATOM     20  C   UNL     1      35.262 -16.887 -20.722  0.00  0.00    -0.005 C 
ATOM     21  C   UNL     1      34.471 -15.428 -22.477  0.00  0.00    +0.048 C 
ATOM     22  C   UNL     1      34.743 -16.416 -23.422  0.00  0.00    +0.014 C 
ATOM     23  C   UNL     1      34.731 -15.663 -21.126  0.00  0.00    +0.014 C 
BRANCH  18  24
ATOM     24  C   UNL     1      36.102 -19.185 -21.234  0.00  0.00    -0.050 C 
BRANCH  24  25
ATOM     25  N   UNL     1      35.320 -19.808 -20.177  0.00  0.00    +0.390 N 
ATOM     26  C   UNL     1      33.965 -20.147 -20.611  0.00  0.00    -0.077 C 
ATOM     27  C   UNL     1      35.901 -21.070 -19.722  0.00  0.00    -0.077 C 
ATOM     28  C   UNL     1      33.488 -21.102 -19.527  0.00  0.00    -0.025 C 
ATOM     29  C   UNL     1      34.761 -21.707 -18.941  0.00  0.00    -0.025 C 
ATOM     30  H   UNL     1      35.311 -19.109 -19.433  0.00  0.00    -0.079 HD
ENDBRANCH  24  25
ENDBRANCH  18  24
ENDBRANCH   1  21
TORSDOF 4
ENDMDL
