MODEL 1
REMARK VINA RESULT:     -12.0      0.000      0.000
REMARK  Name = 23729147
REMARK  5 active torsions:
REMARK  status: ('A' for Active; 'I' for Inactive)
REMARK    1  A    between atoms: O_1  and  C_6
REMARK    2  A    between atoms: O_1  and  C_18
REMARK    3  A    between atoms: C_18  and  C_20
REMARK    4  A    between atoms: N_19  and  C_26
REMARK    5  A    between atoms: C_26  and  C_28
REMARK                            x       y       z     vdW  Elec       q    Type
REMARK                         _______ _______ _______ _____ _____    ______ ____
ROOT
ATOM      1  O   UNL     1      35.172 -22.434 -17.440  0.00  0.00    -0.479 OA
ENDROOT
BRANCH   1   6
ATOM      2  N   UNL     1      35.759 -23.869 -12.849  0.00  0.00    -0.332 NA
ATOM      3  N   UNL     1      37.712 -23.218 -14.103  0.00  0.00    -0.317 NA
ATOM      4  N   UNL     1      37.551 -22.510 -16.319  0.00  0.00    -0.335 N 
ATOM      5  N   UNL     1      37.893 -23.927 -11.877  0.00  0.00    -0.283 N 
ATOM      6  C   UNL     1      34.698 -22.887 -16.233  0.00  0.00    +0.130 C 
ATOM      7  C   UNL     1      35.522 -23.151 -15.126  0.00  0.00    +0.177 C 
ATOM      8  C   UNL     1      33.324 -23.085 -16.141  0.00  0.00    +0.033 C 
ATOM      9  C   UNL     1      34.980 -23.615 -13.916  0.00  0.00    +0.137 C 
ATOM     10  C   UNL     1      36.903 -22.972 -15.151  0.00  0.00    +0.181 C 
ATOM     11  C   UNL     1      32.776 -23.545 -14.949  0.00  0.00    +0.005 C 
ATOM     12  C   UNL     1      33.602 -23.804 -13.851  0.00  0.00    +0.030 C 
ATOM     13  C   UNL     1      37.082 -23.657 -13.001  0.00  0.00    +0.197 C 
ATOM     14  H   UNL     1      38.528 -22.387 -16.325  0.00  0.00    +0.144 HD
ATOM     15  H   UNL     1      37.025 -22.308 -17.127  0.00  0.00    +0.144 HD
ATOM     16  H   UNL     1      37.486 -24.251 -11.042  0.00  0.00    +0.156 HD
ATOM     17  H   UNL     1      38.867 -23.789 -11.929  0.00  0.00    +0.156 HD
ENDBRANCH   1   6
BRANCH   1  18
ATOM     18  C   UNL     1      34.267 -22.442 -18.529  0.00  0.00    +0.205 C 
BRANCH  18  20
ATOM     19  N   UNL     1      35.575 -18.940 -20.694  0.00  0.00    +0.390 N 
ATOM     20  C   UNL     1      34.847 -21.580 -19.648  0.00  0.00    +0.040 C 
ATOM     21  C   UNL     1      36.089 -20.820 -19.171  0.00  0.00    -0.019 C 
ATOM     22  C   UNL     1      33.805 -20.589 -20.175  0.00  0.00    -0.019 C 
ATOM     23  C   UNL     1      36.617 -19.879 -20.255  0.00  0.00    -0.077 C 
ATOM     24  C   UNL     1      34.408 -19.654 -21.227  0.00  0.00    -0.077 C 
ATOM     25  H   UNL     1      35.272 -18.405 -19.881  0.00  0.00    -0.079 HD
BRANCH  19  26
ATOM     26  C   UNL     1      36.110 -18.015 -21.693  0.00  0.00    -0.048 C 
BRANCH  26  28
ATOM     27  F   UNL     1      35.339 -16.705 -24.086  0.00  0.00    -0.205 F 
ATOM     28  C   UNL     1      35.353 -16.713 -21.712  0.00  0.00    -0.016 C 
ATOM     29  C   UNL     1      35.006 -16.122 -22.927  0.00  0.00    +0.134 C 
ATOM     30  C   UNL     1      35.002 -16.097 -20.511  0.00  0.00    -0.004 C 
ATOM     31  C   UNL     1      34.306 -14.914 -22.940  0.00  0.00    +0.029 C 
ATOM     32  C   UNL     1      34.302 -14.891 -20.524  0.00  0.00    -0.000 C 
ATOM     33  C   UNL     1      33.955 -14.299 -21.739  0.00  0.00    +0.002 C 
ENDBRANCH  26  28
ENDBRANCH  19  26
ENDBRANCH  18  20
ENDBRANCH   1  18
TORSDOF 5
ENDMDL
MODEL 2
REMARK VINA RESULT:     -11.9      2.106      3.025
REMARK  Name = 23729147
REMARK  5 active torsions:
REMARK  status: ('A' for Active; 'I' for Inactive)
REMARK    1  A    between atoms: O_1  and  C_6
REMARK    2  A    between atoms: O_1  and  C_18
REMARK    3  A    between atoms: C_18  and  C_20
REMARK    4  A    between atoms: N_19  and  C_26
REMARK    5  A    between atoms: C_26  and  C_28
REMARK                            x       y       z     vdW  Elec       q    Type
REMARK                         _______ _______ _______ _____ _____    ______ ____
ROOT
ATOM      1  O   UNL     1      35.138 -22.336 -17.813  0.00  0.00    -0.479 OA
ENDROOT
BRANCH   1   6
ATOM      2  N   UNL     1      32.359 -23.761 -14.108  0.00  0.00    -0.332 NA
ATOM      3  N   UNL     1      31.282 -23.136 -16.171  0.00  0.00    -0.317 NA
ATOM      4  N   UNL     1      32.517 -22.434 -18.021  0.00  0.00    -0.335 N 
ATOM      5  N   UNL     1      30.025 -23.839 -14.323  0.00  0.00    -0.283 N 
ATOM      6  C   UNL     1      34.953 -22.782 -16.527  0.00  0.00    +0.130 C 
ATOM      7  C   UNL     1      33.690 -23.049 -15.972  0.00  0.00    +0.177 C 
ATOM      8  C   UNL     1      36.102 -22.966 -15.763  0.00  0.00    +0.033 C 
ATOM      9  C   UNL     1      33.563 -23.502 -14.649  0.00  0.00    +0.137 C 
ATOM     10  C   UNL     1      32.502 -22.887 -16.682  0.00  0.00    +0.181 C 
ATOM     11  C   UNL     1      35.988 -23.413 -14.452  0.00  0.00    +0.005 C 
ATOM     12  C   UNL     1      34.728 -23.678 -13.908  0.00  0.00    +0.030 C 
ATOM     13  C   UNL     1      31.284 -23.564 -14.899  0.00  0.00    +0.197 C 
ATOM     14  H   UNL     1      31.671 -22.324 -18.513  0.00  0.00    +0.144 HD
ATOM     15  H   UNL     1      33.372 -22.231 -18.464  0.00  0.00    +0.144 HD
ATOM     16  H   UNL     1      29.966 -24.155 -13.394  0.00  0.00    +0.156 HD
ATOM     17  H   UNL     1      29.204 -23.714 -14.854  0.00  0.00    +0.156 HD
ENDBRANCH   1   6
BRANCH   1  18
ATOM     18  C   UNL     1      36.394 -21.760 -18.119  0.00  0.00    +0.205 C 
BRANCH  18  20
ATOM     19  N   UNL     1      35.653 -18.666 -21.041  0.00  0.00    +0.390 N 
ATOM     20  C   UNL     1      36.290 -21.058 -19.471  0.00  0.00    +0.040 C 
ATOM     21  C   UNL     1      37.222 -19.844 -19.535  0.00  0.00    -0.019 C 
ATOM     22  C   UNL     1      34.850 -20.620 -19.754  0.00  0.00    -0.019 C 
ATOM     23  C   UNL     1      37.050 -19.078 -20.848  0.00  0.00    -0.077 C 
ATOM     24  C   UNL     1      34.756 -19.828 -21.061  0.00  0.00    -0.077 C 
ATOM     25  H   UNL     1      35.387 -18.076 -20.253  0.00  0.00    -0.079 HD
BRANCH  19  26
ATOM     26  C   UNL     1      35.515 -17.892 -22.275  0.00  0.00    -0.048 C 
BRANCH  26  28
ATOM     27  F   UNL     1      35.091 -15.979 -24.324  0.00  0.00    -0.205 F 
ATOM     28  C   UNL     1      35.089 -16.474 -22.001  0.00  0.00    -0.016 C 
ATOM     29  C   UNL     1      34.898 -15.583 -23.058  0.00  0.00    +0.134 C 
ATOM     30  C   UNL     1      34.886 -16.051 -20.688  0.00  0.00    -0.004 C 
ATOM     31  C   UNL     1      34.504 -14.269 -22.800  0.00  0.00    +0.029 C 
ATOM     32  C   UNL     1      34.492 -14.738 -20.430  0.00  0.00    -0.000 C 
ATOM     33  C   UNL     1      34.302 -13.847 -21.486  0.00  0.00    +0.002 C 
ENDBRANCH  26  28
ENDBRANCH  19  26
ENDBRANCH  18  20
ENDBRANCH   1  18
TORSDOF 5
ENDMDL
MODEL 3
REMARK VINA RESULT:     -11.5      4.997     10.636
REMARK  Name = 23729147
REMARK  5 active torsions:
REMARK  status: ('A' for Active; 'I' for Inactive)
REMARK    1  A    between atoms: O_1  and  C_6
REMARK    2  A    between atoms: O_1  and  C_18
REMARK    3  A    between atoms: C_18  and  C_20
REMARK    4  A    between atoms: N_19  and  C_26
REMARK    5  A    between atoms: C_26  and  C_28
REMARK                            x       y       z     vdW  Elec       q    Type
REMARK                         _______ _______ _______ _____ _____    ______ ____
ROOT
ATOM      1  O   UNL     1      33.315 -14.170 -22.712  0.00  0.00    -0.479 OA
ENDROOT
BRANCH   1   6
ATOM      2  N   UNL     1      31.762  -9.946 -20.914  0.00  0.00    -0.332 NA
ATOM      3  N   UNL     1      31.608 -11.908 -19.522  0.00  0.00    -0.317 NA
ATOM      4  N   UNL     1      32.324 -13.994 -20.281  0.00  0.00    -0.335 N 
ATOM      5  N   UNL     1      30.884  -9.820 -18.743  0.00  0.00    -0.283 N 
ATOM      6  C   UNL     1      33.080 -12.819 -22.799  0.00  0.00    +0.130 C 
ATOM      7  C   UNL     1      32.518 -12.061 -21.757  0.00  0.00    +0.177 C 
ATOM      8  C   UNL     1      33.429 -12.204 -23.997  0.00  0.00    +0.033 C 
ATOM      9  C   UNL     1      32.299 -10.681 -21.904  0.00  0.00    +0.137 C 
ATOM     10  C   UNL     1      32.148 -12.614 -20.534  0.00  0.00    +0.181 C 
ATOM     11  C   UNL     1      33.216 -10.839 -24.154  0.00  0.00    +0.005 C 
ATOM     12  C   UNL     1      32.658 -10.092 -23.113  0.00  0.00    +0.030 C 
ATOM     13  C   UNL     1      31.446 -10.599 -19.777  0.00  0.00    +0.197 C 
ATOM     14  H   UNL     1      32.058 -14.373 -19.412  0.00  0.00    +0.144 HD
ATOM     15  H   UNL     1      32.713 -14.576 -20.973  0.00  0.00    +0.144 HD
ATOM     16  H   UNL     1      30.742  -8.856 -18.874  0.00  0.00    +0.156 HD
ATOM     17  H   UNL     1      30.634 -10.243 -17.889  0.00  0.00    +0.156 HD
ENDBRANCH   1   6
BRANCH   1  18
ATOM     18  C   UNL     1      34.048 -14.763 -23.768  0.00  0.00    +0.205 C 
BRANCH  18  20
ATOM     19  N   UNL     1      35.194 -18.358 -21.665  0.00  0.00    +0.390 N 
ATOM     20  C   UNL     1      34.929 -15.866 -23.186  0.00  0.00    +0.040 C 
ATOM     21  C   UNL     1      34.562 -17.232 -23.775  0.00  0.00    -0.019 C 
ATOM     22  C   UNL     1      34.815 -15.913 -21.659  0.00  0.00    -0.019 C 
ATOM     23  C   UNL     1      35.371 -18.355 -23.124  0.00  0.00    -0.077 C 
ATOM     24  C   UNL     1      35.617 -17.080 -21.077  0.00  0.00    -0.077 C 
ATOM     25  H   UNL     1      34.201 -18.481 -21.469  0.00  0.00    -0.079 HD
BRANCH  19  26
ATOM     26  C   UNL     1      35.933 -19.468 -21.063  0.00  0.00    -0.048 C 
BRANCH  26  28
ATOM     27  F   UNL     1      36.914 -21.582 -19.449  0.00  0.00    -0.205 F 
ATOM     28  C   UNL     1      35.041 -20.346 -20.226  0.00  0.00    -0.016 C 
ATOM     29  C   UNL     1      35.591 -21.370 -19.455  0.00  0.00    +0.134 C 
ATOM     30  C   UNL     1      33.663 -20.134 -20.225  0.00  0.00    -0.004 C 
ATOM     31  C   UNL     1      34.761 -22.183 -18.681  0.00  0.00    +0.029 C 
ATOM     32  C   UNL     1      32.834 -20.946 -19.451  0.00  0.00    -0.000 C 
ATOM     33  C   UNL     1      33.382 -21.971 -18.680  0.00  0.00    +0.002 C 
ENDBRANCH  26  28
ENDBRANCH  19  26
ENDBRANCH  18  20
ENDBRANCH   1  18
TORSDOF 5
ENDMDL
MODEL 4
REMARK VINA RESULT:     -11.4      1.632      2.381
REMARK  Name = 23729147
REMARK  5 active torsions:
REMARK  status: ('A' for Active; 'I' for Inactive)
REMARK    1  A    between atoms: O_1  and  C_6
REMARK    2  A    between atoms: O_1  and  C_18
REMARK    3  A    between atoms: C_18  and  C_20
REMARK    4  A    between atoms: N_19  and  C_26
REMARK    5  A    between atoms: C_26  and  C_28
REMARK                            x       y       z     vdW  Elec       q    Type
REMARK                         _______ _______ _______ _____ _____    ______ ____
ROOT
ATOM      1  O   UNL     1      34.415 -23.359 -16.872  0.00  0.00    -0.479 OA
ENDROOT
BRANCH   1   6
ATOM      2  N   UNL     1      33.973 -24.247 -12.129  0.00  0.00    -0.332 NA
ATOM      3  N   UNL     1      36.165 -24.388 -13.119  0.00  0.00    -0.317 NA
ATOM      4  N   UNL     1      36.500 -23.981 -15.391  0.00  0.00    -0.335 N 
ATOM      5  N   UNL     1      35.849 -24.800 -10.834  0.00  0.00    -0.283 N 
ATOM      6  C   UNL     1      33.683 -23.477 -15.715  0.00  0.00    +0.130 C 
ATOM      7  C   UNL     1      34.245 -23.816 -14.473  0.00  0.00    +0.177 C 
ATOM      8  C   UNL     1      32.316 -23.242 -15.820  0.00  0.00    +0.033 C 
ATOM      9  C   UNL     1      33.445 -23.924 -13.323  0.00  0.00    +0.137 C 
ATOM     10  C   UNL     1      35.605 -24.062 -14.299  0.00  0.00    +0.181 C 
ATOM     11  C   UNL     1      31.514 -23.347 -14.690  0.00  0.00    +0.005 C 
ATOM     12  C   UNL     1      32.081 -23.684 -13.457  0.00  0.00    +0.030 C 
ATOM     13  C   UNL     1      35.304 -24.461 -12.092  0.00  0.00    +0.197 C 
ATOM     14  H   UNL     1      37.459 -24.157 -15.256  0.00  0.00    +0.144 HD
ATOM     15  H   UNL     1      36.164 -23.748 -16.287  0.00  0.00    +0.144 HD
ATOM     16  H   UNL     1      35.264 -24.868 -10.046  0.00  0.00    +0.156 HD
ATOM     17  H   UNL     1      36.816 -24.967 -10.746  0.00  0.00    +0.156 HD
ENDBRANCH   1   6
BRANCH   1  18
ATOM     18  C   UNL     1      33.715 -22.968 -18.038  0.00  0.00    +0.205 C 
BRANCH  18  20
ATOM     19  N   UNL     1      35.464 -20.043 -20.692  0.00  0.00    +0.390 N 
ATOM     20  C   UNL     1      34.296 -21.647 -18.534  0.00  0.00    +0.040 C 
ATOM     21  C   UNL     1      33.455 -21.069 -19.677  0.00  0.00    -0.019 C 
ATOM     22  C   UNL     1      35.746 -21.822 -18.995  0.00  0.00    -0.019 C 
ATOM     23  C   UNL     1      34.086 -19.796 -20.245  0.00  0.00    -0.077 C 
ATOM     24  C   UNL     1      36.302 -20.524 -19.586  0.00  0.00    -0.077 C 
ATOM     25  H   UNL     1      35.437 -20.771 -21.406  0.00  0.00    -0.079 HD
BRANCH  19  26
ATOM     26  C   UNL     1      36.035 -18.831 -21.279  0.00  0.00    -0.048 C 
BRANCH  26  28
ATOM     27  F   UNL     1      35.775 -16.128 -22.093  0.00  0.00    -0.205 F 
ATOM     28  C   UNL     1      35.304 -18.415 -22.528  0.00  0.00    -0.016 C 
ATOM     29  C   UNL     1      35.214 -17.065 -22.869  0.00  0.00    +0.134 C 
ATOM     30  C   UNL     1      34.716 -19.381 -23.342  0.00  0.00    -0.004 C 
ATOM     31  C   UNL     1      34.534 -16.683 -24.027  0.00  0.00    +0.029 C 
ATOM     32  C   UNL     1      34.037 -18.999 -24.499  0.00  0.00    -0.000 C 
ATOM     33  C   UNL     1      33.946 -17.650 -24.841  0.00  0.00    +0.002 C 
ENDBRANCH  26  28
ENDBRANCH  19  26
ENDBRANCH  18  20
ENDBRANCH   1  18
TORSDOF 5
ENDMDL
MODEL 5
REMARK VINA RESULT:     -11.3      5.057     11.191
REMARK  Name = 23729147
REMARK  5 active torsions:
REMARK  status: ('A' for Active; 'I' for Inactive)
REMARK    1  A    between atoms: O_1  and  C_6
REMARK    2  A    between atoms: O_1  and  C_18
REMARK    3  A    between atoms: C_18  and  C_20
REMARK    4  A    between atoms: N_19  and  C_26
REMARK    5  A    between atoms: C_26  and  C_28
REMARK                            x       y       z     vdW  Elec       q    Type
REMARK                         _______ _______ _______ _____ _____    ______ ____
ROOT
ATOM      1  O   UNL     1      34.378 -13.349 -22.566  0.00  0.00    -0.479 OA
ENDROOT
BRANCH   1   6
ATOM      2  N   UNL     1      31.290  -9.624 -22.284  0.00  0.00    -0.332 NA
ATOM      3  N   UNL     1      33.033  -9.542 -23.946  0.00  0.00    -0.317 NA
ATOM      4  N   UNL     1      34.576 -11.276 -24.175  0.00  0.00    -0.335 N 
ATOM      5  N   UNL     1      31.492  -7.790 -23.732  0.00  0.00    -0.283 N 
ATOM      6  C   UNL     1      33.298 -12.697 -22.021  0.00  0.00    +0.130 C 
ATOM      7  C   UNL     1      32.844 -11.443 -22.464  0.00  0.00    +0.177 C 
ATOM      8  C   UNL     1      32.645 -13.344 -20.976  0.00  0.00    +0.033 C 
ATOM      9  C   UNL     1      31.733 -10.824 -21.867  0.00  0.00    +0.137 C 
ATOM     10  C   UNL     1      33.450 -10.744 -23.505  0.00  0.00    +0.181 C 
ATOM     11  C   UNL     1      31.546 -12.740 -20.377  0.00  0.00    +0.005 C 
ATOM     12  C   UNL     1      31.100 -11.493 -20.824  0.00  0.00    +0.030 C 
ATOM     13  C   UNL     1      31.964  -9.049 -23.301  0.00  0.00    +0.197 C 
ATOM     14  H   UNL     1      34.996 -10.772 -24.909  0.00  0.00    +0.144 HD
ATOM     15  H   UNL     1      34.939 -12.152 -23.908  0.00  0.00    +0.144 HD
ATOM     16  H   UNL     1      30.711  -7.381 -23.295  0.00  0.00    +0.156 HD
ATOM     17  H   UNL     1      31.943  -7.323 -24.472  0.00  0.00    +0.156 HD
ENDBRANCH   1   6
BRANCH   1  18
ATOM     18  C   UNL     1      34.105 -14.480 -23.372  0.00  0.00    +0.205 C 
BRANCH  18  20
ATOM     19  N   UNL     1      35.191 -18.302 -21.676  0.00  0.00    +0.390 N 
ATOM     20  C   UNL     1      34.970 -15.641 -22.886  0.00  0.00    +0.040 C 
ATOM     21  C   UNL     1      34.653 -16.925 -23.659  0.00  0.00    -0.019 C 
ATOM     22  C   UNL     1      34.777 -15.880 -21.385  0.00  0.00    -0.019 C 
ATOM     23  C   UNL     1      35.443 -18.115 -23.111  0.00  0.00    -0.077 C 
ATOM     24  C   UNL     1      35.563 -17.105 -20.911  0.00  0.00    -0.077 C 
ATOM     25  H   UNL     1      34.191 -18.456 -21.550  0.00  0.00    -0.079 HD
BRANCH  19  26
ATOM     26  C   UNL     1      35.912 -19.473 -21.178  0.00  0.00    -0.048 C 
BRANCH  26  28
ATOM     27  F   UNL     1      36.942 -21.535 -19.527  0.00  0.00    -0.205 F 
ATOM     28  C   UNL     1      35.044 -20.336 -20.302  0.00  0.00    -0.016 C 
ATOM     29  C   UNL     1      35.617 -21.334 -19.514  0.00  0.00    +0.134 C 
ATOM     30  C   UNL     1      33.664 -20.137 -20.281  0.00  0.00    -0.004 C 
ATOM     31  C   UNL     1      34.808 -22.133 -18.704  0.00  0.00    +0.029 C 
ATOM     32  C   UNL     1      32.856 -20.935 -19.472  0.00  0.00    -0.000 C 
ATOM     33  C   UNL     1      33.428 -21.933 -18.683  0.00  0.00    +0.002 C 
ENDBRANCH  26  28
ENDBRANCH  19  26
ENDBRANCH  18  20
ENDBRANCH   1  18
TORSDOF 5
ENDMDL
MODEL 6
REMARK VINA RESULT:     -11.3      3.559      9.736
REMARK  Name = 23729147
REMARK  5 active torsions:
REMARK  status: ('A' for Active; 'I' for Inactive)
REMARK    1  A    between atoms: O_1  and  C_6
REMARK    2  A    between atoms: O_1  and  C_18
REMARK    3  A    between atoms: C_18  and  C_20
REMARK    4  A    between atoms: N_19  and  C_26
REMARK    5  A    between atoms: C_26  and  C_28
REMARK                            x       y       z     vdW  Elec       q    Type
REMARK                         _______ _______ _______ _____ _____    ______ ____
ROOT
ATOM      1  O   UNL     1      35.244 -17.666 -20.902  0.00  0.00    -0.479 OA
ENDROOT
BRANCH   1   6
ATOM      2  N   UNL     1      33.875 -13.961 -23.710  0.00  0.00    -0.332 NA
ATOM      3  N   UNL     1      34.107 -13.577 -21.342  0.00  0.00    -0.317 NA
ATOM      4  N   UNL     1      34.760 -15.285 -19.894  0.00  0.00    -0.335 N 
ATOM      5  N   UNL     1      33.450 -11.850 -22.782  0.00  0.00    -0.283 N 
ATOM      6  C   UNL     1      34.928 -17.107 -22.117  0.00  0.00    +0.130 C 
ATOM      7  C   UNL     1      34.551 -15.763 -22.277  0.00  0.00    +0.177 C 
ATOM      8  C   UNL     1      34.994 -17.948 -23.223  0.00  0.00    +0.033 C 
ATOM      9  C   UNL     1      34.236 -15.247 -23.545  0.00  0.00    +0.137 C 
ATOM     10  C   UNL     1      34.466 -14.869 -21.213  0.00  0.00    +0.181 C 
ATOM     11  C   UNL     1      34.684 -17.449 -24.483  0.00  0.00    +0.005 C 
ATOM     12  C   UNL     1      34.311 -16.110 -24.634  0.00  0.00    +0.030 C 
ATOM     13  C   UNL     1      33.830 -13.197 -22.600  0.00  0.00    +0.197 C 
ATOM     14  H   UNL     1      34.696 -14.644 -19.149  0.00  0.00    +0.144 HD
ATOM     15  H   UNL     1      35.030 -16.216 -19.719  0.00  0.00    +0.144 HD
ATOM     16  H   UNL     1      33.236 -11.516 -23.682  0.00  0.00    +0.156 HD
ATOM     17  H   UNL     1      33.401 -11.244 -22.007  0.00  0.00    +0.156 HD
ENDBRANCH   1   6
BRANCH   1  18
ATOM     18  C   UNL     1      36.263 -18.649 -20.894  0.00  0.00    +0.205 C 
BRANCH  18  20
ATOM     19  N   UNL     1      34.286 -21.813 -18.716  0.00  0.00    +0.390 N 
ATOM     20  C   UNL     1      35.627 -20.004 -20.594  0.00  0.00    +0.040 C 
ATOM     21  C   UNL     1      34.151 -19.848 -20.213  0.00  0.00    -0.019 C 
ATOM     22  C   UNL     1      36.377 -20.727 -19.471  0.00  0.00    -0.019 C 
ATOM     23  C   UNL     1      33.533 -21.189 -19.813  0.00  0.00    -0.077 C 
ATOM     24  C   UNL     1      35.686 -22.041 -19.096  0.00  0.00    -0.077 C 
ATOM     25  H   UNL     1      34.276 -21.171 -17.923  0.00  0.00    -0.079 HD
BRANCH  19  26
ATOM     26  C   UNL     1      33.654 -23.068 -18.312  0.00  0.00    -0.048 C 
BRANCH  26  28
ATOM     27  F   UNL     1      35.412 -23.283 -16.098  0.00  0.00    -0.205 F 
ATOM     28  C   UNL     1      33.185 -23.025 -16.881  0.00  0.00    -0.016 C 
ATOM     29  C   UNL     1      34.106 -23.137 -15.839  0.00  0.00    +0.134 C 
ATOM     30  C   UNL     1      31.828 -22.873 -16.600  0.00  0.00    -0.004 C 
ATOM     31  C   UNL     1      33.667 -23.097 -14.514  0.00  0.00    +0.029 C 
ATOM     32  C   UNL     1      31.390 -22.833 -15.277  0.00  0.00    -0.000 C 
ATOM     33  C   UNL     1      32.310 -22.946 -14.234  0.00  0.00    +0.002 C 
ENDBRANCH  26  28
ENDBRANCH  19  26
ENDBRANCH  18  20
ENDBRANCH   1  18
TORSDOF 5
ENDMDL
MODEL 7
REMARK VINA RESULT:     -11.1      3.317      5.422
REMARK  Name = 23729147
REMARK  5 active torsions:
REMARK  status: ('A' for Active; 'I' for Inactive)
REMARK    1  A    between atoms: O_1  and  C_6
REMARK    2  A    between atoms: O_1  and  C_18
REMARK    3  A    between atoms: C_18  and  C_20
REMARK    4  A    between atoms: N_19  and  C_26
REMARK    5  A    between atoms: C_26  and  C_28
REMARK                            x       y       z     vdW  Elec       q    Type
REMARK                         _______ _______ _______ _____ _____    ______ ____
ROOT
ATOM      1  O   UNL     1      34.520 -19.361 -21.404  0.00  0.00    -0.479 OA
ENDROOT
BRANCH   1   6
ATOM      2  N   UNL     1      34.840 -22.490 -17.716  0.00  0.00    -0.332 NA
ATOM      3  N   UNL     1      32.667 -22.054 -18.662  0.00  0.00    -0.317 NA
ATOM      4  N   UNL     1      32.391 -20.568 -20.438  0.00  0.00    -0.335 N 
ATOM      5  N   UNL     1      32.924 -23.550 -16.877  0.00  0.00    -0.283 N 
ATOM      6  C   UNL     1      35.225 -20.060 -20.453  0.00  0.00    +0.130 C 
ATOM      7  C   UNL     1      34.628 -20.949 -19.543  0.00  0.00    +0.177 C 
ATOM      8  C   UNL     1      36.600 -19.849 -20.420  0.00  0.00    +0.033 C 
ATOM      9  C   UNL     1      35.401 -21.636 -18.591  0.00  0.00    +0.137 C 
ATOM     10  C   UNL     1      33.260 -21.207 -19.523  0.00  0.00    +0.181 C 
ATOM     11  C   UNL     1      37.374 -20.522 -19.482  0.00  0.00    +0.005 C 
ATOM     12  C   UNL     1      36.773 -21.405 -18.581  0.00  0.00    +0.030 C 
ATOM     13  C   UNL     1      33.504 -22.652 -17.799  0.00  0.00    +0.197 C 
ATOM     14  H   UNL     1      31.425 -20.758 -20.415  0.00  0.00    +0.144 HD
ATOM     15  H   UNL     1      32.751 -19.935 -21.100  0.00  0.00    +0.144 HD
ATOM     16  H   UNL     1      33.490 -24.017 -16.221  0.00  0.00    +0.156 HD
ATOM     17  H   UNL     1      31.952 -23.710 -16.891  0.00  0.00    +0.156 HD
ENDBRANCH   1   6
BRANCH   1  18
ATOM     18  C   UNL     1      35.089 -19.285 -22.697  0.00  0.00    +0.205 C 
BRANCH  18  20
ATOM     19  N   UNL     1      34.081 -15.128 -23.298  0.00  0.00    +0.390 N 
ATOM     20  C   UNL     1      35.235 -17.814 -23.078  0.00  0.00    +0.040 C 
ATOM     21  C   UNL     1      35.024 -16.907 -21.861  0.00  0.00    -0.019 C 
ATOM     22  C   UNL     1      34.248 -17.432 -24.185  0.00  0.00    -0.019 C 
ATOM     23  C   UNL     1      35.070 -15.429 -22.253  0.00  0.00    -0.077 C 
ATOM     24  C   UNL     1      34.319 -15.936 -24.502  0.00  0.00    -0.077 C 
ATOM     25  H   UNL     1      33.158 -15.367 -22.936  0.00  0.00    -0.079 HD
BRANCH  19  26
ATOM     26  C   UNL     1      34.102 -13.703 -23.626  0.00  0.00    -0.048 C 
BRANCH  26  28
ATOM     27  F   UNL     1      33.388 -11.010 -24.153  0.00  0.00    -0.205 F 
ATOM     28  C   UNL     1      33.166 -12.913 -22.749  0.00  0.00    -0.016 C 
ATOM     29  C   UNL     1      32.858 -11.590 -23.067  0.00  0.00    +0.134 C 
ATOM     30  C   UNL     1      32.610 -13.506 -21.617  0.00  0.00    -0.004 C 
ATOM     31  C   UNL     1      31.991 -10.860 -22.251  0.00  0.00    +0.029 C 
ATOM     32  C   UNL     1      31.744 -12.777 -20.802  0.00  0.00    -0.000 C 
ATOM     33  C   UNL     1      31.435 -11.454 -21.118  0.00  0.00    +0.002 C 
ENDBRANCH  26  28
ENDBRANCH  19  26
ENDBRANCH  18  20
ENDBRANCH   1  18
TORSDOF 5
ENDMDL
MODEL 8
REMARK VINA RESULT:     -11.0      2.468      3.615
REMARK  Name = 23729147
REMARK  5 active torsions:
REMARK  status: ('A' for Active; 'I' for Inactive)
REMARK    1  A    between atoms: O_1  and  C_6
REMARK    2  A    between atoms: O_1  and  C_18
REMARK    3  A    between atoms: C_18  and  C_20
REMARK    4  A    between atoms: N_19  and  C_26
REMARK    5  A    between atoms: C_26  and  C_28
REMARK                            x       y       z     vdW  Elec       q    Type
REMARK                         _______ _______ _______ _____ _____    ______ ____
ROOT
ATOM      1  O   UNL     1      32.710 -22.464 -17.520  0.00  0.00    -0.479 OA
ENDROOT
BRANCH   1   6
ATOM      2  N   UNL     1      32.237 -24.466 -13.132  0.00  0.00    -0.332 NA
ATOM      3  N   UNL     1      30.240 -23.824 -14.318  0.00  0.00    -0.317 NA
ATOM      4  N   UNL     1      30.344 -22.852 -16.435  0.00  0.00    -0.335 N 
ATOM      5  N   UNL     1      30.115 -24.799 -12.191  0.00  0.00    -0.283 N 
ATOM      6  C   UNL     1      33.218 -23.020 -16.371  0.00  0.00    +0.130 C 
ATOM      7  C   UNL     1      32.417 -23.471 -15.308  0.00  0.00    +0.177 C 
ATOM      8  C   UNL     1      34.603 -23.124 -16.292  0.00  0.00    +0.033 C 
ATOM      9  C   UNL     1      32.994 -24.031 -14.155  0.00  0.00    +0.137 C 
ATOM     10  C   UNL     1      31.027 -23.398 -15.324  0.00  0.00    +0.181 C 
ATOM     11  C   UNL     1      35.185 -23.674 -15.156  0.00  0.00    +0.005 C 
ATOM     12  C   UNL     1      34.382 -24.122 -14.103  0.00  0.00    +0.030 C 
ATOM     13  C   UNL     1      30.902 -24.339 -13.269  0.00  0.00    +0.197 C 
ATOM     14  H   UNL     1      29.361 -22.805 -16.435  0.00  0.00    +0.144 HD
ATOM     15  H   UNL     1      30.852 -22.519 -17.211  0.00  0.00    +0.144 HD
ATOM     16  H   UNL     1      30.546 -25.186 -11.396  0.00  0.00    +0.156 HD
ATOM     17  H   UNL     1      29.133 -24.733 -12.235  0.00  0.00    +0.156 HD
ENDBRANCH   1   6
BRANCH   1  18
ATOM     18  C   UNL     1      33.448 -22.665 -18.711  0.00  0.00    +0.205 C 
BRANCH  18  20
ATOM     19  N   UNL     1      35.540 -19.671 -21.018  0.00  0.00    +0.390 N 
ATOM     20  C   UNL     1      34.177 -21.368 -19.054  0.00  0.00    +0.040 C 
ATOM     21  C   UNL     1      33.419 -20.576 -20.123  0.00  0.00    -0.019 C 
ATOM     22  C   UNL     1      35.604 -21.650 -19.534  0.00  0.00    -0.019 C 
ATOM     23  C   UNL     1      34.193 -19.325 -20.544  0.00  0.00    -0.077 C 
ATOM     24  C   UNL     1      36.307 -20.364 -19.975  0.00  0.00    -0.077 C 
ATOM     25  H   UNL     1      35.441 -20.307 -21.810  0.00  0.00    -0.079 HD
BRANCH  19  26
ATOM     26  C   UNL     1      36.248 -18.472 -21.465  0.00  0.00    -0.048 C 
BRANCH  26  28
ATOM     27  F   UNL     1      35.033 -19.748 -23.685  0.00  0.00    -0.205 F 
ATOM     28  C   UNL     1      35.477 -17.726 -22.522  0.00  0.00    -0.016 C 
ATOM     29  C   UNL     1      34.904 -18.418 -23.589  0.00  0.00    +0.134 C 
ATOM     30  C   UNL     1      35.338 -16.342 -22.432  0.00  0.00    -0.004 C 
ATOM     31  C   UNL     1      34.192 -17.723 -24.568  0.00  0.00    +0.029 C 
ATOM     32  C   UNL     1      34.625 -15.648 -23.409  0.00  0.00    -0.000 C 
ATOM     33  C   UNL     1      34.053 -16.338 -24.478  0.00  0.00    +0.002 C 
ENDBRANCH  26  28
ENDBRANCH  19  26
ENDBRANCH  18  20
ENDBRANCH   1  18
TORSDOF 5
ENDMDL
MODEL 9
REMARK VINA RESULT:     -10.9      7.040     12.499
REMARK  Name = 23729147
REMARK  5 active torsions:
REMARK  status: ('A' for Active; 'I' for Inactive)
REMARK    1  A    between atoms: O_1  and  C_6
REMARK    2  A    between atoms: O_1  and  C_18
REMARK    3  A    between atoms: C_18  and  C_20
REMARK    4  A    between atoms: N_19  and  C_26
REMARK    5  A    between atoms: C_26  and  C_28
REMARK                            x       y       z     vdW  Elec       q    Type
REMARK                         _______ _______ _______ _____ _____    ______ ____
ROOT
ATOM      1  O   UNL     1      31.102 -10.607 -21.722  0.00  0.00    -0.479 OA
ENDROOT
BRANCH   1   6
ATOM      2  N   UNL     1      34.080  -6.790 -21.928  0.00  0.00    -0.332 NA
ATOM      3  N   UNL     1      33.694  -8.050 -23.945  0.00  0.00    -0.317 NA
ATOM      4  N   UNL     1      32.282  -9.906 -23.967  0.00  0.00    -0.335 N 
ATOM      5  N   UNL     1      35.118  -6.189 -23.943  0.00  0.00    -0.283 N 
ATOM      6  C   UNL     1      31.757  -9.538 -21.160  0.00  0.00    +0.130 C 
ATOM      7  C   UNL     1      32.614  -8.688 -21.879  0.00  0.00    +0.177 C 
ATOM      8  C   UNL     1      31.535  -9.319 -19.804  0.00  0.00    +0.033 C 
ATOM      9  C   UNL     1      33.258  -7.610 -21.249  0.00  0.00    +0.137 C 
ATOM     10  C   UNL     1      32.878  -8.852 -23.236  0.00  0.00    +0.181 C 
ATOM     11  C   UNL     1      32.168  -8.256 -19.170  0.00  0.00    +0.005 C 
ATOM     12  C   UNL     1      33.018  -7.414 -19.892  0.00  0.00    +0.030 C 
ATOM     13  C   UNL     1      34.253  -7.054 -23.239  0.00  0.00    +0.197 C 
ATOM     14  H   UNL     1      32.475 -10.011 -24.926  0.00  0.00    +0.144 HD
ATOM     15  H   UNL     1      31.671 -10.534 -23.517  0.00  0.00    +0.144 HD
ATOM     16  H   UNL     1      35.555  -5.442 -23.476  0.00  0.00    +0.156 HD
ATOM     17  H   UNL     1      35.282  -6.332 -24.904  0.00  0.00    +0.156 HD
ENDBRANCH   1   6
BRANCH   1  18
ATOM     18  C   UNL     1      31.236 -11.857 -21.071  0.00  0.00    +0.205 C 
BRANCH  18  20
ATOM     19  N   UNL     1      34.095 -14.850 -22.308  0.00  0.00    +0.390 N 
ATOM     20  C   UNL     1      32.558 -12.487 -21.500  0.00  0.00    +0.040 C 
ATOM     21  C   UNL     1      32.449 -13.101 -22.899  0.00  0.00    -0.019 C 
ATOM     22  C   UNL     1      33.008 -13.557 -20.500  0.00  0.00    -0.019 C 
ATOM     23  C   UNL     1      33.739 -13.822 -23.295  0.00  0.00    -0.077 C 
ATOM     24  C   UNL     1      34.281 -14.264 -20.974  0.00  0.00    -0.077 C 
ATOM     25  H   UNL     1      33.323 -15.515 -22.254  0.00  0.00    -0.079 HD
BRANCH  19  26
ATOM     26  C   UNL     1      35.301 -15.564 -22.726  0.00  0.00    -0.048 C 
BRANCH  26  28
ATOM     27  F   UNL     1      34.362 -17.328 -24.737  0.00  0.00    -0.205 F 
ATOM     28  C   UNL     1      35.171 -17.051 -22.522  0.00  0.00    -0.016 C 
ATOM     29  C   UNL     1      34.701 -17.861 -23.556  0.00  0.00    +0.134 C 
ATOM     30  C   UNL     1      35.521 -17.616 -21.297  0.00  0.00    -0.004 C 
ATOM     31  C   UNL     1      34.581 -19.238 -23.362  0.00  0.00    +0.029 C 
ATOM     32  C   UNL     1      35.402 -18.992 -21.103  0.00  0.00    -0.000 C 
ATOM     33  C   UNL     1      34.931 -19.803 -22.136  0.00  0.00    +0.002 C 
ENDBRANCH  26  28
ENDBRANCH  19  26
ENDBRANCH  18  20
ENDBRANCH   1  18
TORSDOF 5
ENDMDL
