MODEL 1
REMARK VINA RESULT:     -11.5      0.000      0.000
REMARK  Name = 25093369
REMARK  5 active torsions:
REMARK  status: ('A' for Active; 'I' for Inactive)
REMARK    1  A    between atoms: C_1  and  C_3
REMARK    2  A    between atoms: C_1  and  C_17
REMARK    3  A    between atoms: C_4  and  C_9
REMARK    4  A    between atoms: C_7  and  O_15
REMARK    5  A    between atoms: C_18  and  C_23
REMARK                            x       y       z     vdW  Elec       q    Type
REMARK                         _______ _______ _______ _____ _____    ______ ____
ROOT
ATOM      1  C   UNL     1      32.862 -24.076 -13.577  0.00  0.00    +0.086 C 
ATOM      2  C   UNL     1      31.997 -25.274 -13.139  0.00  0.00    +0.019 C 
ENDROOT
BRANCH   1   3
ATOM      3  C   UNL     1      32.399 -23.475 -14.861  0.00  0.00    -0.007 C 
ATOM      4  C   UNL     1      32.898 -22.469 -17.000  0.00  0.00    +0.003 C 
ATOM      5  C   UNL     1      33.332 -23.032 -15.800  0.00  0.00    -0.003 C 
ATOM      6  C   UNL     1      31.034 -23.354 -15.122  0.00  0.00    +0.034 C 
ATOM      7  C   UNL     1      30.602 -22.791 -16.322  0.00  0.00    +0.138 C 
ATOM      8  C   UNL     1      31.534 -22.349 -17.261  0.00  0.00    +0.037 C 
BRANCH   4   9
ATOM      9  C   UNL     1      33.864 -22.011 -17.975  0.00  0.00    +0.000 C 
ATOM     10  C   UNL     1      33.434 -21.370 -19.136  0.00  0.00    +0.000 C 
ATOM     11  C   UNL     1      35.227 -22.210 -17.753  0.00  0.00    +0.000 C 
ATOM     12  C   UNL     1      34.364 -20.928 -20.075  0.00  0.00    +0.000 C 
ATOM     13  C   UNL     1      36.159 -21.768 -18.692  0.00  0.00    +0.000 C 
ATOM     14  C   UNL     1      35.727 -21.126 -19.853  0.00  0.00    +0.000 C 
ENDBRANCH   4   9
BRANCH   7  15
ATOM     15  O   UNL     1      29.269 -22.675 -16.578  0.00  0.00    -0.471 OA
ATOM     16  C   UNL     1      28.429 -23.742 -16.142  0.00  0.00    +0.252 C 
ENDBRANCH   7  15
ENDBRANCH   1   3
BRANCH   1  17
ATOM     17  C   UNL     1      34.290 -24.482 -13.625  0.00  0.00    -0.087 C 
ATOM     18  C   UNL     1      35.440 -24.827 -13.649  0.00  0.00    -0.076 C 
BRANCH  18  23
ATOM     19  N   UNL     1      39.099 -24.884 -13.032  0.00  0.00    -0.336 NA
ATOM     20  N   UNL     1      38.510 -26.796 -14.376  0.00  0.00    -0.317 NA
ATOM     21  N   UNL     1      36.265 -27.167 -15.018  0.00  0.00    -0.334 N 
ATOM     22  N   UNL     1      40.734 -26.415 -13.731  0.00  0.00    -0.283 N 
ATOM     23  C   UNL     1      36.808 -25.244 -13.675  0.00  0.00    +0.179 C 
ATOM     24  C   UNL     1      37.798 -24.528 -13.034  0.00  0.00    +0.120 C 
ATOM     25  C   UNL     1      37.226 -26.380 -14.337  0.00  0.00    +0.186 C 
ATOM     26  C   UNL     1      37.478 -23.276 -12.281  0.00  0.00    +0.064 C 
ATOM     27  C   UNL     1      39.381 -26.011 -13.712  0.00  0.00    +0.196 C 
ATOM     28  H   UNL     1      36.543 -27.982 -15.495  0.00  0.00    +0.144 HD
ATOM     29  H   UNL     1      35.317 -26.899 -15.013  0.00  0.00    +0.144 HD
ATOM     30  H   UNL     1      41.414 -25.879 -13.263  0.00  0.00    +0.156 HD
ATOM     31  H   UNL     1      40.997 -27.232 -14.214  0.00  0.00    +0.156 HD
ENDBRANCH  18  23
ENDBRANCH   1  17
TORSDOF 5
ENDMDL
MODEL 2
REMARK VINA RESULT:     -10.2     11.465     14.437
REMARK  Name = 25093369
REMARK  5 active torsions:
REMARK  status: ('A' for Active; 'I' for Inactive)
REMARK    1  A    between atoms: C_1  and  C_3
REMARK    2  A    between atoms: C_1  and  C_17
REMARK    3  A    between atoms: C_4  and  C_9
REMARK    4  A    between atoms: C_7  and  O_15
REMARK    5  A    between atoms: C_18  and  C_23
REMARK                            x       y       z     vdW  Elec       q    Type
REMARK                         _______ _______ _______ _____ _____    ______ ____
ROOT
ATOM      1  C   UNL     1      33.479 -11.711 -23.799  0.00  0.00    +0.086 C 
ATOM      2  C   UNL     1      34.700 -10.989 -24.399  0.00  0.00    +0.019 C 
ENDROOT
BRANCH   1   3
ATOM      3  C   UNL     1      32.791 -10.901 -22.753  0.00  0.00    -0.007 C 
ATOM      4  C   UNL     1      31.822  -8.810 -22.027  0.00  0.00    +0.003 C 
ATOM      5  C   UNL     1      32.464  -9.568 -23.006  0.00  0.00    -0.003 C 
ATOM      6  C   UNL     1      32.477 -11.475 -21.521  0.00  0.00    +0.034 C 
ATOM      7  C   UNL     1      31.835 -10.716 -20.542  0.00  0.00    +0.138 C 
ATOM      8  C   UNL     1      31.508  -9.384 -20.795  0.00  0.00    +0.037 C 
BRANCH   4   9
ATOM      9  C   UNL     1      31.482  -7.429 -22.288  0.00  0.00    +0.000 C 
ATOM     10  C   UNL     1      31.503  -6.496 -21.252  0.00  0.00    +0.000 C 
ATOM     11  C   UNL     1      31.133  -7.029 -23.579  0.00  0.00    +0.000 C 
ATOM     12  C   UNL     1      31.175  -5.164 -21.504  0.00  0.00    +0.000 C 
ATOM     13  C   UNL     1      30.805  -5.697 -23.832  0.00  0.00    +0.000 C 
ATOM     14  C   UNL     1      30.826  -4.765 -22.795  0.00  0.00    +0.000 C 
ENDBRANCH   4   9
BRANCH   7  15
ATOM     15  O   UNL     1      31.527 -11.277 -19.340  0.00  0.00    -0.471 OA
ATOM     16  C   UNL     1      31.599 -10.434 -18.193  0.00  0.00    +0.252 C 
ENDBRANCH   7  15
ENDBRANCH   1   3
BRANCH   1  17
ATOM     17  C   UNL     1      33.885 -13.050 -23.302  0.00  0.00    -0.087 C 
ATOM     18  C   UNL     1      34.231 -14.132 -22.912  0.00  0.00    -0.076 C 
BRANCH  18  23
ATOM     19  N   UNL     1      35.193 -16.895 -20.628  0.00  0.00    -0.336 NA
ATOM     20  N   UNL     1      35.331 -17.685 -22.900  0.00  0.00    -0.317 NA
ATOM     21  N   UNL     1      34.803 -16.251 -24.706  0.00  0.00    -0.334 N 
ATOM     22  N   UNL     1      35.852 -19.096 -21.100  0.00  0.00    -0.283 N 
ATOM     23  C   UNL     1      34.651 -15.420 -22.451  0.00  0.00    +0.179 C 
ATOM     24  C   UNL     1      34.800 -15.696 -21.107  0.00  0.00    +0.120 C 
ATOM     25  C   UNL     1      34.934 -16.461 -23.310  0.00  0.00    +0.186 C 
ATOM     26  C   UNL     1      34.526 -14.654 -20.071  0.00  0.00    +0.064 C 
ATOM     27  C   UNL     1      35.438 -17.829 -21.566  0.00  0.00    +0.196 C 
ATOM     28  H   UNL     1      34.999 -16.982 -25.335  0.00  0.00    +0.144 HD
ATOM     29  H   UNL     1      34.515 -15.372 -25.046  0.00  0.00    +0.144 HD
ATOM     30  H   UNL     1      35.948 -19.259 -20.134  0.00  0.00    +0.156 HD
ATOM     31  H   UNL     1      36.045 -19.818 -21.742  0.00  0.00    +0.156 HD
ENDBRANCH  18  23
ENDBRANCH   1  17
TORSDOF 5
ENDMDL
MODEL 3
REMARK VINA RESULT:     -10.1     11.403     14.464
REMARK  Name = 25093369
REMARK  5 active torsions:
REMARK  status: ('A' for Active; 'I' for Inactive)
REMARK    1  A    between atoms: C_1  and  C_3
REMARK    2  A    between atoms: C_1  and  C_17
REMARK    3  A    between atoms: C_4  and  C_9
REMARK    4  A    between atoms: C_7  and  O_15
REMARK    5  A    between atoms: C_18  and  C_23
REMARK                            x       y       z     vdW  Elec       q    Type
REMARK                         _______ _______ _______ _____ _____    ______ ____
ROOT
ATOM      1  C   UNL     1      33.462 -11.733 -23.728  0.00  0.00    +0.086 C 
ATOM      2  C   UNL     1      34.678 -11.021 -24.352  0.00  0.00    +0.019 C 
ENDROOT
BRANCH   1   3
ATOM      3  C   UNL     1      32.774 -10.898 -22.702  0.00  0.00    -0.007 C 
ATOM      4  C   UNL     1      31.818  -8.785 -22.022  0.00  0.00    +0.003 C 
ATOM      5  C   UNL     1      32.460  -9.567 -22.982  0.00  0.00    -0.003 C 
ATOM      6  C   UNL     1      32.444 -11.446 -21.462  0.00  0.00    +0.034 C 
ATOM      7  C   UNL     1      31.802 -10.664 -20.503  0.00  0.00    +0.138 C 
ATOM      8  C   UNL     1      31.488  -9.334 -20.783  0.00  0.00    +0.037 C 
BRANCH   4   9
ATOM      9  C   UNL     1      31.492  -7.407 -22.312  0.00  0.00    +0.000 C 
ATOM     10  C   UNL     1      31.173  -7.022 -23.614  0.00  0.00    +0.000 C 
ATOM     11  C   UNL     1      31.495  -6.459 -21.288  0.00  0.00    +0.000 C 
ATOM     12  C   UNL     1      30.859  -5.694 -23.894  0.00  0.00    +0.000 C 
ATOM     13  C   UNL     1      31.180  -5.129 -21.566  0.00  0.00    +0.000 C 
ATOM     14  C   UNL     1      30.862  -4.746 -22.869  0.00  0.00    +0.000 C 
ENDBRANCH   4   9
BRANCH   7  15
ATOM     15  O   UNL     1      31.479 -11.200 -19.294  0.00  0.00    -0.471 OA
ATOM     16  C   UNL     1      31.560 -10.339 -18.159  0.00  0.00    +0.252 C 
ENDBRANCH   7  15
ENDBRANCH   1   3
BRANCH   1  17
ATOM     17  C   UNL     1      33.877 -13.056 -23.194  0.00  0.00    -0.087 C 
ATOM     18  C   UNL     1      34.230 -14.125 -22.776  0.00  0.00    -0.076 C 
BRANCH  18  23
ATOM     19  N   UNL     1      35.330 -17.669 -22.706  0.00  0.00    -0.336 NA
ATOM     20  N   UNL     1      35.235 -16.842 -20.445  0.00  0.00    -0.317 NA
ATOM     21  N   UNL     1      34.576 -14.613 -20.006  0.00  0.00    -0.334 N 
ATOM     22  N   UNL     1      35.886 -19.051 -20.894  0.00  0.00    -0.283 N 
ATOM     23  C   UNL     1      34.658 -15.397 -22.282  0.00  0.00    +0.179 C 
ATOM     24  C   UNL     1      34.924 -16.453 -23.129  0.00  0.00    +0.120 C 
ATOM     25  C   UNL     1      34.832 -15.651 -20.937  0.00  0.00    +0.186 C 
ATOM     26  C   UNL     1      34.775 -16.309 -24.609  0.00  0.00    +0.064 C 
ATOM     27  C   UNL     1      35.462 -17.792 -21.372  0.00  0.00    +0.196 C 
ATOM     28  H   UNL     1      34.695 -14.775 -19.043  0.00  0.00    +0.144 HD
ATOM     29  H   UNL     1      34.282 -13.729 -20.325  0.00  0.00    +0.144 HD
ATOM     30  H   UNL     1      36.067 -19.783 -21.527  0.00  0.00    +0.156 HD
ATOM     31  H   UNL     1      35.999 -19.198 -19.926  0.00  0.00    +0.156 HD
ENDBRANCH  18  23
ENDBRANCH   1  17
TORSDOF 5
ENDMDL
MODEL 4
REMARK VINA RESULT:     -10.0      4.192      6.858
REMARK  Name = 25093369
REMARK  5 active torsions:
REMARK  status: ('A' for Active; 'I' for Inactive)
REMARK    1  A    between atoms: C_1  and  C_3
REMARK    2  A    between atoms: C_1  and  C_17
REMARK    3  A    between atoms: C_4  and  C_9
REMARK    4  A    between atoms: C_7  and  O_15
REMARK    5  A    between atoms: C_18  and  C_23
REMARK                            x       y       z     vdW  Elec       q    Type
REMARK                         _______ _______ _______ _____ _____    ______ ____
ROOT
ATOM      1  C   UNL     1      34.593 -24.497 -13.462  0.00  0.00    +0.086 C 
ATOM      2  C   UNL     1      34.705 -23.933 -12.032  0.00  0.00    +0.019 C 
ENDROOT
BRANCH   1   3
ATOM      3  C   UNL     1      35.659 -23.980 -14.367  0.00  0.00    -0.007 C 
ATOM      4  C   UNL     1      36.310 -22.783 -16.362  0.00  0.00    +0.003 C 
ATOM      5  C   UNL     1      35.313 -23.266 -15.515  0.00  0.00    -0.003 C 
ATOM      6  C   UNL     1      37.001 -24.210 -14.066  0.00  0.00    +0.034 C 
ATOM      7  C   UNL     1      37.998 -23.727 -14.914  0.00  0.00    +0.138 C 
ATOM      8  C   UNL     1      37.653 -23.013 -16.061  0.00  0.00    +0.037 C 
BRANCH   4   9
ATOM      9  C   UNL     1      35.953 -22.042 -17.552  0.00  0.00    +0.000 C 
ATOM     10  C   UNL     1      34.712 -22.244 -18.154  0.00  0.00    +0.000 C 
ATOM     11  C   UNL     1      36.851 -21.125 -18.098  0.00  0.00    +0.000 C 
ATOM     12  C   UNL     1      34.367 -21.530 -19.301  0.00  0.00    +0.000 C 
ATOM     13  C   UNL     1      36.507 -20.410 -19.245  0.00  0.00    +0.000 C 
ATOM     14  C   UNL     1      35.265 -20.612 -19.847  0.00  0.00    +0.000 C 
ENDBRANCH   4   9
BRANCH   7  15
ATOM     15  O   UNL     1      39.308 -23.951 -14.619  0.00  0.00    -0.471 OA
ATOM     16  C   UNL     1      39.690 -25.296 -14.336  0.00  0.00    +0.252 C 
ENDBRANCH   7  15
ENDBRANCH   1   3
BRANCH   1  17
ATOM     17  C   UNL     1      33.228 -24.245 -13.992  0.00  0.00    -0.087 C 
ATOM     18  C   UNL     1      32.131 -24.021 -14.426  0.00  0.00    -0.076 C 
BRANCH  18  23
ATOM     19  N   UNL     1      29.433 -22.692 -16.600  0.00  0.00    -0.336 NA
ATOM     20  N   UNL     1      28.434 -23.990 -14.832  0.00  0.00    -0.317 NA
ATOM     21  N   UNL     1      29.787 -25.035 -13.197  0.00  0.00    -0.334 N 
ATOM     22  N   UNL     1      27.105 -22.948 -16.461  0.00  0.00    -0.283 N 
ATOM     23  C   UNL     1      30.827 -23.747 -14.947  0.00  0.00    +0.179 C 
ATOM     24  C   UNL     1      30.643 -22.975 -16.075  0.00  0.00    +0.120 C 
ATOM     25  C   UNL     1      29.676 -24.233 -14.360  0.00  0.00    +0.186 C 
ATOM     26  C   UNL     1      31.808 -22.388 -16.805  0.00  0.00    +0.064 C 
ATOM     27  C   UNL     1      28.388 -23.224 -15.938  0.00  0.00    +0.196 C 
ATOM     28  H   UNL     1      28.978 -25.391 -12.765  0.00  0.00    +0.144 HD
ATOM     29  H   UNL     1      30.675 -25.236 -12.821  0.00  0.00    +0.144 HD
ATOM     30  H   UNL     1      27.011 -22.393 -17.268  0.00  0.00    +0.156 HD
ATOM     31  H   UNL     1      26.304 -23.311 -16.016  0.00  0.00    +0.156 HD
ENDBRANCH  18  23
ENDBRANCH   1  17
TORSDOF 5
ENDMDL
MODEL 5
REMARK VINA RESULT:     -10.0      2.618      4.213
REMARK  Name = 25093369
REMARK  5 active torsions:
REMARK  status: ('A' for Active; 'I' for Inactive)
REMARK    1  A    between atoms: C_1  and  C_3
REMARK    2  A    between atoms: C_1  and  C_17
REMARK    3  A    between atoms: C_4  and  C_9
REMARK    4  A    between atoms: C_7  and  O_15
REMARK    5  A    between atoms: C_18  and  C_23
REMARK                            x       y       z     vdW  Elec       q    Type
REMARK                         _______ _______ _______ _____ _____    ______ ____
ROOT
ATOM      1  C   UNL     1      37.418 -22.202 -16.310  0.00  0.00    +0.086 C 
ATOM      2  C   UNL     1      38.218 -20.901 -16.107  0.00  0.00    +0.019 C 
ENDROOT
BRANCH   1   3
ATOM      3  C   UNL     1      36.269 -22.028 -17.245  0.00  0.00    -0.007 C 
ATOM      4  C   UNL     1      35.317 -21.022 -19.225  0.00  0.00    +0.003 C 
ATOM      5  C   UNL     1      36.392 -21.186 -18.352  0.00  0.00    -0.003 C 
ATOM      6  C   UNL     1      35.072 -22.705 -17.012  0.00  0.00    +0.034 C 
ATOM      7  C   UNL     1      33.998 -22.540 -17.886  0.00  0.00    +0.138 C 
ATOM      8  C   UNL     1      34.120 -21.699 -18.992  0.00  0.00    +0.037 C 
BRANCH   4   9
ATOM      9  C   UNL     1      35.443 -20.151 -20.372  0.00  0.00    +0.000 C 
ATOM     10  C   UNL     1      34.428 -20.102 -21.327  0.00  0.00    +0.000 C 
ATOM     11  C   UNL     1      36.582 -19.359 -20.524  0.00  0.00    +0.000 C 
ATOM     12  C   UNL     1      34.549 -19.262 -22.433  0.00  0.00    +0.000 C 
ATOM     13  C   UNL     1      36.704 -18.518 -21.631  0.00  0.00    +0.000 C 
ATOM     14  C   UNL     1      35.688 -18.470 -22.585  0.00  0.00    +0.000 C 
ENDBRANCH   4   9
BRANCH   7  15
ATOM     15  O   UNL     1      32.830 -23.203 -17.659  0.00  0.00    -0.471 OA
ATOM     16  C   UNL     1      32.326 -23.192 -16.325  0.00  0.00    +0.252 C 
ENDBRANCH   7  15
ENDBRANCH   1   3
BRANCH   1  17
ATOM     17  C   UNL     1      36.998 -22.741 -14.992  0.00  0.00    -0.087 C 
ATOM     18  C   UNL     1      36.679 -23.174 -13.917  0.00  0.00    -0.076 C 
BRANCH  18  23
ATOM     19  N   UNL     1      36.734 -23.885 -10.276  0.00  0.00    -0.336 NA
ATOM     20  N   UNL     1      34.810 -24.964 -11.246  0.00  0.00    -0.317 NA
ATOM     21  N   UNL     1      34.371 -24.780 -13.563  0.00  0.00    -0.334 N 
ATOM     22  N   UNL     1      35.259 -25.138  -8.950  0.00  0.00    -0.283 N 
ATOM     23  C   UNL     1      36.305 -23.686 -12.635  0.00  0.00    +0.179 C 
ATOM     24  C   UNL     1      37.050 -23.424 -11.504  0.00  0.00    +0.120 C 
ATOM     25  C   UNL     1      35.185 -24.469 -12.446  0.00  0.00    +0.186 C 
ATOM     26  C   UNL     1      38.288 -22.588 -11.573  0.00  0.00    +0.064 C 
ATOM     27  C   UNL     1      35.619 -24.638 -10.220  0.00  0.00    +0.196 C 
ATOM     28  H   UNL     1      33.567 -25.336 -13.448  0.00  0.00    +0.144 HD
ATOM     29  H   UNL     1      34.609 -24.437 -14.456  0.00  0.00    +0.144 HD
ATOM     30  H   UNL     1      35.814 -24.931  -8.164  0.00  0.00    +0.156 HD
ATOM     31  H   UNL     1      34.452 -25.694  -8.851  0.00  0.00    +0.156 HD
ENDBRANCH  18  23
ENDBRANCH   1  17
TORSDOF 5
ENDMDL
MODEL 6
REMARK VINA RESULT:      -9.7      4.060      7.103
REMARK  Name = 25093369
REMARK  5 active torsions:
REMARK  status: ('A' for Active; 'I' for Inactive)
REMARK    1  A    between atoms: C_1  and  C_3
REMARK    2  A    between atoms: C_1  and  C_17
REMARK    3  A    between atoms: C_4  and  C_9
REMARK    4  A    between atoms: C_7  and  O_15
REMARK    5  A    between atoms: C_18  and  C_23
REMARK                            x       y       z     vdW  Elec       q    Type
REMARK                         _______ _______ _______ _____ _____    ______ ____
ROOT
ATOM      1  C   UNL     1      36.893 -22.828 -14.927  0.00  0.00    +0.086 C 
ATOM      2  C   UNL     1      38.030 -23.843 -15.148  0.00  0.00    +0.019 C 
ENDROOT
BRANCH   1   3
ATOM      3  C   UNL     1      35.758 -23.400 -14.146  0.00  0.00    -0.007 C 
ATOM      4  C   UNL     1      33.406 -23.914 -13.944  0.00  0.00    +0.003 C 
ATOM      5  C   UNL     1      34.467 -23.380 -14.675  0.00  0.00    -0.003 C 
ATOM      6  C   UNL     1      35.989 -23.953 -12.886  0.00  0.00    +0.034 C 
ATOM      7  C   UNL     1      34.927 -24.487 -12.156  0.00  0.00    +0.138 C 
ATOM      8  C   UNL     1      33.637 -24.468 -12.684  0.00  0.00    +0.037 C 
BRANCH   4   9
ATOM      9  C   UNL     1      32.068 -23.895 -14.491  0.00  0.00    +0.000 C 
ATOM     10  C   UNL     1      31.728 -22.967 -15.475  0.00  0.00    +0.000 C 
ATOM     11  C   UNL     1      31.115 -24.807 -14.035  0.00  0.00    +0.000 C 
ATOM     12  C   UNL     1      30.439 -22.949 -16.003  0.00  0.00    +0.000 C 
ATOM     13  C   UNL     1      29.824 -24.789 -14.563  0.00  0.00    +0.000 C 
ATOM     14  C   UNL     1      29.486 -23.860 -15.547  0.00  0.00    +0.000 C 
ENDBRANCH   4   9
BRANCH   7  15
ATOM     15  O   UNL     1      35.153 -25.029 -10.927  0.00  0.00    -0.471 OA
ATOM     16  C   UNL     1      35.948 -24.270 -10.019  0.00  0.00    +0.252 C 
ENDBRANCH   7  15
ENDBRANCH   1   3
BRANCH   1  17
ATOM     17  C   UNL     1      36.457 -22.274 -16.235  0.00  0.00    -0.087 C 
ATOM     18  C   UNL     1      36.103 -21.807 -17.283  0.00  0.00    -0.076 C 
BRANCH  18  23
ATOM     19  N   UNL     1      34.092 -21.147 -20.332  0.00  0.00    -0.336 NA
ATOM     20  N   UNL     1      36.027 -19.711 -20.354  0.00  0.00    -0.317 NA
ATOM     21  N   UNL     1      37.603 -19.790 -18.592  0.00  0.00    -0.334 N 
ATOM     22  N   UNL     1      34.456 -19.644 -22.096  0.00  0.00    -0.283 N 
ATOM     23  C   UNL     1      35.683 -21.242 -18.529  0.00  0.00    +0.179 C 
ATOM     24  C   UNL     1      34.526 -21.652 -19.158  0.00  0.00    +0.120 C 
ATOM     25  C   UNL     1      36.402 -20.260 -19.179  0.00  0.00    +0.186 C 
ATOM     26  C   UNL     1      33.656 -22.710 -18.558  0.00  0.00    +0.064 C 
ATOM     27  C   UNL     1      34.880 -20.195 -20.867  0.00  0.00    +0.196 C 
ATOM     28  H   UNL     1      38.129 -19.089 -19.040  0.00  0.00    +0.144 HD
ATOM     29  H   UNL     1      37.911 -20.163 -17.734  0.00  0.00    +0.144 HD
ATOM     30  H   UNL     1      33.625 -19.961 -22.517  0.00  0.00    +0.156 HD
ATOM     31  H   UNL     1      34.994 -18.944 -22.533  0.00  0.00    +0.156 HD
ENDBRANCH  18  23
ENDBRANCH   1  17
TORSDOF 5
ENDMDL
MODEL 7
REMARK VINA RESULT:      -9.6      4.117      6.668
REMARK  Name = 25093369
REMARK  5 active torsions:
REMARK  status: ('A' for Active; 'I' for Inactive)
REMARK    1  A    between atoms: C_1  and  C_3
REMARK    2  A    between atoms: C_1  and  C_17
REMARK    3  A    between atoms: C_4  and  C_9
REMARK    4  A    between atoms: C_7  and  O_15
REMARK    5  A    between atoms: C_18  and  C_23
REMARK                            x       y       z     vdW  Elec       q    Type
REMARK                         _______ _______ _______ _____ _____    ______ ____
ROOT
ATOM      1  C   UNL     1      32.179 -23.216 -17.065  0.00  0.00    +0.086 C 
ATOM      2  C   UNL     1      30.903 -22.426 -16.719  0.00  0.00    +0.019 C 
ENDROOT
BRANCH   1   3
ATOM      3  C   UNL     1      32.876 -23.737 -15.853  0.00  0.00    -0.007 C 
ATOM      4  C   UNL     1      34.917 -24.350 -14.715  0.00  0.00    +0.003 C 
ATOM      5  C   UNL     1      34.266 -23.863 -15.847  0.00  0.00    -0.003 C 
ATOM      6  C   UNL     1      32.138 -24.099 -14.726  0.00  0.00    +0.034 C 
ATOM      7  C   UNL     1      32.789 -24.587 -13.594  0.00  0.00    +0.138 C 
ATOM      8  C   UNL     1      34.178 -24.713 -13.588  0.00  0.00    +0.037 C 
BRANCH   4   9
ATOM      9  C   UNL     1      36.357 -24.480 -14.707  0.00  0.00    +0.000 C 
ATOM     10  C   UNL     1      37.158 -23.405 -15.090  0.00  0.00    +0.000 C 
ATOM     11  C   UNL     1      36.947 -25.683 -14.316  0.00  0.00    +0.000 C 
ATOM     12  C   UNL     1      38.546 -23.529 -15.083  0.00  0.00    +0.000 C 
ATOM     13  C   UNL     1      38.336 -25.809 -14.308  0.00  0.00    +0.000 C 
ATOM     14  C   UNL     1      39.136 -24.732 -14.692  0.00  0.00    +0.000 C 
ENDBRANCH   4   9
BRANCH   7  15
ATOM     15  O   UNL     1      32.069 -24.939 -12.493  0.00  0.00    -0.471 OA
ATOM     16  C   UNL     1      30.650 -24.825 -12.583  0.00  0.00    +0.252 C 
ENDBRANCH   7  15
ENDBRANCH   1   3
BRANCH   1  17
ATOM     17  C   UNL     1      33.068 -22.383 -17.914  0.00  0.00    -0.087 C 
ATOM     18  C   UNL     1      33.773 -21.692 -18.598  0.00  0.00    -0.076 C 
BRANCH  18  23
ATOM     19  N   UNL     1      36.797 -20.011 -19.943  0.00  0.00    -0.336 NA
ATOM     20  N   UNL     1      34.883 -19.305 -21.225  0.00  0.00    -0.317 NA
ATOM     21  N   UNL     1      32.725 -20.129 -20.717  0.00  0.00    -0.334 N 
ATOM     22  N   UNL     1      37.029 -18.496 -21.718  0.00  0.00    -0.283 N 
ATOM     23  C   UNL     1      34.610 -20.862 -19.409  0.00  0.00    +0.179 C 
ATOM     24  C   UNL     1      35.971 -20.779 -19.202  0.00  0.00    +0.120 C 
ATOM     25  C   UNL     1      34.115 -20.096 -20.445  0.00  0.00    +0.186 C 
ATOM     26  C   UNL     1      36.632 -21.560 -18.111  0.00  0.00    +0.064 C 
ATOM     27  C   UNL     1      36.195 -19.311 -20.922  0.00  0.00    +0.196 C 
ATOM     28  H   UNL     1      32.354 -19.590 -21.452  0.00  0.00    +0.144 HD
ATOM     29  H   UNL     1      32.130 -20.694 -20.172  0.00  0.00    +0.144 HD
ATOM     30  H   UNL     1      37.997 -18.461 -21.541  0.00  0.00    +0.156 HD
ATOM     31  H   UNL     1      36.643 -17.961 -22.449  0.00  0.00    +0.156 HD
ENDBRANCH  18  23
ENDBRANCH   1  17
TORSDOF 5
ENDMDL
MODEL 8
REMARK VINA RESULT:      -9.5      4.444      7.623
REMARK  Name = 25093369
REMARK  5 active torsions:
REMARK  status: ('A' for Active; 'I' for Inactive)
REMARK    1  A    between atoms: C_1  and  C_3
REMARK    2  A    between atoms: C_1  and  C_17
REMARK    3  A    between atoms: C_4  and  C_9
REMARK    4  A    between atoms: C_7  and  O_15
REMARK    5  A    between atoms: C_18  and  C_23
REMARK                            x       y       z     vdW  Elec       q    Type
REMARK                         _______ _______ _______ _____ _____    ______ ____
ROOT
ATOM      1  C   UNL     1      37.152 -21.971 -15.946  0.00  0.00    +0.086 C 
ATOM      2  C   UNL     1      38.560 -22.562 -16.155  0.00  0.00    +0.019 C 
ENDROOT
BRANCH   1   3
ATOM      3  C   UNL     1      36.220 -22.931 -15.289  0.00  0.00    -0.007 C 
ATOM      4  C   UNL     1      33.969 -23.629 -14.755  0.00  0.00    +0.003 C 
ATOM      5  C   UNL     1      34.841 -22.731 -15.370  0.00  0.00    -0.003 C 
ATOM      6  C   UNL     1      36.726 -24.028 -14.592  0.00  0.00    +0.034 C 
ATOM      7  C   UNL     1      35.853 -24.926 -13.977  0.00  0.00    +0.138 C 
ATOM      8  C   UNL     1      34.475 -24.726 -14.058  0.00  0.00    +0.037 C 
BRANCH   4   9
ATOM      9  C   UNL     1      32.540 -23.423 -14.839  0.00  0.00    +0.000 C 
ATOM     10  C   UNL     1      31.744 -23.576 -13.704  0.00  0.00    +0.000 C 
ATOM     11  C   UNL     1      31.957 -23.070 -16.056  0.00  0.00    +0.000 C 
ATOM     12  C   UNL     1      30.367 -23.377 -13.785  0.00  0.00    +0.000 C 
ATOM     13  C   UNL     1      30.579 -22.870 -16.138  0.00  0.00    +0.000 C 
ATOM     14  C   UNL     1      29.784 -23.024 -15.002  0.00  0.00    +0.000 C 
ENDBRANCH   4   9
BRANCH   7  15
ATOM     15  O   UNL     1      36.348 -25.998 -13.298  0.00  0.00    -0.471 OA
ATOM     16  C   UNL     1      37.305 -26.810 -13.976  0.00  0.00    +0.252 C 
ENDBRANCH   7  15
ENDBRANCH   1   3
BRANCH   1  17
ATOM     17  C   UNL     1      36.626 -21.466 -17.240  0.00  0.00    -0.087 C 
ATOM     18  C   UNL     1      36.188 -21.044 -18.276  0.00  0.00    -0.076 C 
BRANCH  18  23
ATOM     19  N   UNL     1      33.848 -20.366 -21.076  0.00  0.00    -0.336 NA
ATOM     20  N   UNL     1      35.928 -19.231 -21.512  0.00  0.00    -0.317 NA
ATOM     21  N   UNL     1      37.725 -19.383 -19.982  0.00  0.00    -0.334 N 
ATOM     22  N   UNL     1      34.137 -19.088 -23.022  0.00  0.00    -0.283 N 
ATOM     23  C   UNL     1      35.664 -20.534 -19.506  0.00  0.00    +0.179 C 
ATOM     24  C   UNL     1      34.383 -20.825 -19.925  0.00  0.00    +0.120 C 
ATOM     25  C   UNL     1      36.399 -19.725 -20.347  0.00  0.00    +0.186 C 
ATOM     26  C   UNL     1      33.482 -21.692 -19.104  0.00  0.00    +0.064 C 
ATOM     27  C   UNL     1      34.664 -19.586 -21.810  0.00  0.00    +0.196 C 
ATOM     28  H   UNL     1      38.265 -18.806 -20.569  0.00  0.00    +0.144 HD
ATOM     29  H   UNL     1      38.106 -19.722 -19.139  0.00  0.00    +0.144 HD
ATOM     30  H   UNL     1      33.218 -19.316 -23.290  0.00  0.00    +0.156 HD
ATOM     31  H   UNL     1      34.690 -18.512 -23.599  0.00  0.00    +0.156 HD
ENDBRANCH  18  23
ENDBRANCH   1  17
TORSDOF 5
ENDMDL
MODEL 9
REMARK VINA RESULT:      -9.4     13.156     15.959
REMARK  Name = 25093369
REMARK  5 active torsions:
REMARK  status: ('A' for Active; 'I' for Inactive)
REMARK    1  A    between atoms: C_1  and  C_3
REMARK    2  A    between atoms: C_1  and  C_17
REMARK    3  A    between atoms: C_4  and  C_9
REMARK    4  A    between atoms: C_7  and  O_15
REMARK    5  A    between atoms: C_18  and  C_23
REMARK                            x       y       z     vdW  Elec       q    Type
REMARK                         _______ _______ _______ _____ _____    ______ ____
ROOT
ATOM      1  C   UNL     1      31.830 -10.106 -23.251  0.00  0.00    +0.086 C 
ATOM      2  C   UNL     1      32.519  -9.657 -24.554  0.00  0.00    +0.019 C 
ENDROOT
BRANCH   1   3
ATOM      3  C   UNL     1      31.837  -9.043 -22.205  0.00  0.00    -0.007 C 
ATOM      4  C   UNL     1      31.676  -6.712 -21.589  0.00  0.00    +0.003 C 
ATOM      5  C   UNL     1      31.669  -7.706 -22.567  0.00  0.00    -0.003 C 
ATOM      6  C   UNL     1      32.015  -9.385 -20.864  0.00  0.00    +0.034 C 
ATOM      7  C   UNL     1      32.023  -8.391 -19.886  0.00  0.00    +0.138 C 
ATOM      8  C   UNL     1      31.854  -7.055 -20.249  0.00  0.00    +0.037 C 
BRANCH   4   9
ATOM      9  C   UNL     1      31.501  -5.326 -21.964  0.00  0.00    +0.000 C 
ATOM     10  C   UNL     1      32.212  -4.798 -23.040  0.00  0.00    +0.000 C 
ATOM     11  C   UNL     1      30.618  -4.517 -21.248  0.00  0.00    +0.000 C 
ATOM     12  C   UNL     1      32.042  -3.462 -23.402  0.00  0.00    +0.000 C 
ATOM     13  C   UNL     1      30.447  -3.180 -21.609  0.00  0.00    +0.000 C 
ATOM     14  C   UNL     1      31.159  -2.653 -22.686  0.00  0.00    +0.000 C 
ENDBRANCH   4   9
BRANCH   7  15
ATOM     15  O   UNL     1      32.194  -8.726 -18.578  0.00  0.00    -0.471 OA
ATOM     16  C   UNL     1      31.796 -10.038 -18.186  0.00  0.00    +0.252 C 
ENDBRANCH   7  15
ENDBRANCH   1   3
BRANCH   1  17
ATOM     17  C   UNL     1      32.440 -11.373 -22.774  0.00  0.00    -0.087 C 
ATOM     18  C   UNL     1      32.952 -12.391 -22.394  0.00  0.00    -0.076 C 
BRANCH  18  23
ATOM     19  N   UNL     1      34.015 -15.162 -20.166  0.00  0.00    -0.336 NA
ATOM     20  N   UNL     1      34.912 -15.551 -22.368  0.00  0.00    -0.317 NA
ATOM     21  N   UNL     1      34.486 -14.027 -24.126  0.00  0.00    -0.334 N 
ATOM     22  N   UNL     1      35.327 -17.054 -20.615  0.00  0.00    -0.283 N 
ATOM     23  C   UNL     1      33.570 -13.599 -21.941  0.00  0.00    +0.179 C 
ATOM     24  C   UNL     1      33.451 -14.030 -20.636  0.00  0.00    +0.120 C 
ATOM     25  C   UNL     1      34.320 -14.407 -22.771  0.00  0.00    +0.186 C 
ATOM     26  C   UNL     1      32.665 -13.245 -19.635  0.00  0.00    +0.064 C 
ATOM     27  C   UNL     1      34.722 -15.863 -21.072  0.00  0.00    +0.196 C 
ATOM     28  H   UNL     1      35.017 -14.591 -24.734  0.00  0.00    +0.144 HD
ATOM     29  H   UNL     1      34.069 -13.200 -24.460  0.00  0.00    +0.144 HD
ATOM     30  H   UNL     1      35.221 -17.331 -19.676  0.00  0.00    +0.156 HD
ATOM     31  H   UNL     1      35.856 -17.607 -21.235  0.00  0.00    +0.156 HD
ENDBRANCH  18  23
ENDBRANCH   1  17
TORSDOF 5
ENDMDL
