MODEL 1
REMARK VINA RESULT:     -12.3      0.000      0.000
REMARK  Name = 24878044
REMARK  6 active torsions:
REMARK  status: ('A' for Active; 'I' for Inactive)
REMARK    1  A    between atoms: N_2  and  C_6
REMARK    2  A    between atoms: C_3  and  C_18
REMARK    3  A    between atoms: C_7  and  S_12
REMARK    4  A    between atoms: S_12  and  N_15
REMARK    5  A    between atoms: C_18  and  S_19
REMARK    6  A    between atoms: S_19  and  C_31
REMARK                            x       y       z     vdW  Elec       q    Type
REMARK                         _______ _______ _______ _____ _____    ______ ____
ROOT
ATOM      1  O   UNL     1      34.244 -19.258 -23.999  0.00  0.00    -0.274 OA
ATOM      2  N   UNL     1      34.880 -18.324 -21.938  0.00  0.00    -0.283 N 
ATOM      3  C   UNL     1      34.643 -18.324 -23.308  0.00  0.00    +0.238 C 
ATOM      4  H   UNL     1      35.213 -17.481 -21.554  0.00  0.00    +0.155 HD
ENDROOT
BRANCH   2   6
ATOM      5 CL   UNL     1      37.387 -19.397 -20.578  0.00  0.00    -0.081 Cl
ATOM      6  C   UNL     1      34.696 -19.396 -21.033  0.00  0.00    +0.061 C 
ATOM      7  C   UNL     1      34.264 -21.506 -19.261  0.00  0.00    +0.123 C 
ATOM      8  C   UNL     1      35.771 -19.966 -20.353  0.00  0.00    +0.072 C 
ATOM      9  C   UNL     1      33.404 -19.881 -20.827  0.00  0.00    +0.017 C 
ATOM     10  C   UNL     1      35.555 -21.021 -19.466  0.00  0.00    +0.033 C 
ATOM     11  C   UNL     1      33.187 -20.936 -19.941  0.00  0.00    +0.021 C 
BRANCH   7  12
ATOM     12  S   UNL     1      33.992 -22.827 -18.152  0.00  0.00    +0.057 S 
ATOM     13  O   UNL     1      33.939 -24.065 -18.916  0.00  0.00    -0.153 OA
ATOM     14  O   UNL     1      34.928 -22.700 -17.043  0.00  0.00    -0.153 OA
BRANCH  12  15
ATOM     15  N   UNL     1      32.421 -22.461 -17.588  0.00  0.00    -0.203 NA
ATOM     16  H   UNL     1      31.820 -22.234 -18.380  0.00  0.00    +0.144 HD
ATOM     17  H   UNL     1      32.464 -21.663 -16.954  0.00  0.00    +0.144 HD
ENDBRANCH  12  15
ENDBRANCH   7  12
ENDBRANCH   2   6
BRANCH   3  18
ATOM     18  C   UNL     1      34.959 -16.983 -23.938  0.00  0.00    +0.152 C 
BRANCH  18  19
ATOM     19  S   UNL     1      35.130 -15.750 -22.629  0.00  0.00    -0.047 S 
BRANCH  19  31
ATOM     20  O   UNL     1      33.476 -14.568 -24.258  0.00  0.00    -0.262 OA
ATOM     21  N   UNL     1      33.411 -13.734 -22.062  0.00  0.00    -0.250 N 
ATOM     22  C   UNL     1      32.122 -13.705 -19.933  0.00  0.00    +0.027 C 
ATOM     23  C   UNL     1      32.049 -12.193 -19.942  0.00  0.00    +0.029 C 
ATOM     24  C   UNL     1      33.384 -14.158 -20.646  0.00  0.00    +0.099 C 
ATOM     25  C   UNL     1      32.274 -11.647 -21.327  0.00  0.00    -0.009 C 
ATOM     26  C   UNL     1      32.934 -12.389 -22.333  0.00  0.00    +0.051 C 
ATOM     27  C   UNL     1      31.838 -10.333 -21.583  0.00  0.00    -0.007 C 
ATOM     28  C   UNL     1      33.146 -11.758 -23.573  0.00  0.00    +0.014 C 
ATOM     29  C   UNL     1      32.039  -9.745 -22.826  0.00  0.00    -0.022 C 
ATOM     30  C   UNL     1      32.697 -10.457 -23.818  0.00  0.00    -0.003 C 
ATOM     31  C   UNL     1      33.867 -14.585 -23.095  0.00  0.00    +0.280 C 
ATOM     32  C   UNL     1      31.538  -8.367 -23.095  0.00  0.00    +0.031 C 
ENDBRANCH  19  31
ENDBRANCH  18  19
ENDBRANCH   3  18
TORSDOF 6
ENDMDL
MODEL 2
REMARK VINA RESULT:     -11.6      0.990      2.201
REMARK  Name = 24878044
REMARK  6 active torsions:
REMARK  status: ('A' for Active; 'I' for Inactive)
REMARK    1  A    between atoms: N_2  and  C_6
REMARK    2  A    between atoms: C_3  and  C_18
REMARK    3  A    between atoms: C_7  and  S_12
REMARK    4  A    between atoms: S_12  and  N_15
REMARK    5  A    between atoms: C_18  and  S_19
REMARK    6  A    between atoms: S_19  and  C_31
REMARK                            x       y       z     vdW  Elec       q    Type
REMARK                         _______ _______ _______ _____ _____    ______ ____
ROOT
ATOM      1  O   UNL     1      34.535 -18.889 -23.921  0.00  0.00    -0.274 OA
ATOM      2  N   UNL     1      35.156 -18.103 -21.795  0.00  0.00    -0.283 N 
ATOM      3  C   UNL     1      34.955 -18.015 -23.168  0.00  0.00    +0.238 C 
ATOM      4  H   UNL     1      35.515 -17.299 -21.355  0.00  0.00    +0.155 HD
ENDROOT
BRANCH   2   6
ATOM      5 CL   UNL     1      37.581 -19.388 -20.471  0.00  0.00    -0.081 Cl
ATOM      6  C   UNL     1      34.902 -19.216 -20.957  0.00  0.00    +0.061 C 
ATOM      7  C   UNL     1      34.331 -21.401 -19.321  0.00  0.00    +0.123 C 
ATOM      8  C   UNL     1      35.935 -19.882 -20.300  0.00  0.00    +0.072 C 
ATOM      9  C   UNL     1      33.583 -19.642 -20.797  0.00  0.00    +0.017 C 
ATOM     10  C   UNL     1      35.649 -20.975 -19.481  0.00  0.00    +0.033 C 
ATOM     11  C   UNL     1      33.297 -20.735 -19.978  0.00  0.00    +0.021 C 
BRANCH   7  12
ATOM     12  S   UNL     1      33.973 -22.769 -18.296  0.00  0.00    +0.057 S 
ATOM     13  O   UNL     1      33.916 -23.963 -19.127  0.00  0.00    -0.153 OA
ATOM     14  O   UNL     1      34.864 -22.730 -17.145  0.00  0.00    -0.153 OA
BRANCH  12  15
ATOM     15  N   UNL     1      32.391 -22.382 -17.778  0.00  0.00    -0.203 NA
ATOM     16  H   UNL     1      32.433 -21.622 -17.099  0.00  0.00    +0.144 HD
ATOM     17  H   UNL     1      31.965 -23.201 -17.346  0.00  0.00    +0.144 HD
ENDBRANCH  12  15
ENDBRANCH   7  12
ENDBRANCH   2   6
BRANCH   3  18
ATOM     18  C   UNL     1      35.346 -16.656 -23.711  0.00  0.00    +0.152 C 
BRANCH  18  19
ATOM     19  S   UNL     1      33.848 -15.681 -23.973  0.00  0.00    -0.047 S 
BRANCH  19  31
ATOM     20  O   UNL     1      34.477 -14.896 -21.570  0.00  0.00    -0.262 OA
ATOM     21  N   UNL     1      33.393 -13.254 -22.856  0.00  0.00    -0.250 N 
ATOM     22  C   UNL     1      33.703 -11.159 -24.163  0.00  0.00    +0.027 C 
ATOM     23  C   UNL     1      32.669 -10.430 -23.330  0.00  0.00    +0.029 C 
ATOM     24  C   UNL     1      33.372 -12.641 -24.201  0.00  0.00    +0.099 C 
ATOM     25  C   UNL     1      32.464 -11.110 -22.003  0.00  0.00    -0.009 C 
ATOM     26  C   UNL     1      32.806 -12.465 -21.787  0.00  0.00    +0.051 C 
ATOM     27  C   UNL     1      31.870 -10.354 -20.974  0.00  0.00    -0.007 C 
ATOM     28  C   UNL     1      32.515 -13.016 -20.525  0.00  0.00    +0.014 C 
ATOM     29  C   UNL     1      31.617 -10.919 -19.730  0.00  0.00    -0.022 C 
ATOM     30  C   UNL     1      31.935 -12.251 -19.508  0.00  0.00    -0.003 C 
ATOM     31  C   UNL     1      33.953 -14.531 -22.617  0.00  0.00    +0.280 C 
ATOM     32  C   UNL     1      31.023 -10.096 -18.638  0.00  0.00    +0.031 C 
ENDBRANCH  19  31
ENDBRANCH  18  19
ENDBRANCH   3  18
TORSDOF 6
ENDMDL
MODEL 3
REMARK VINA RESULT:     -10.6      3.226      9.718
REMARK  Name = 24878044
REMARK  6 active torsions:
REMARK  status: ('A' for Active; 'I' for Inactive)
REMARK    1  A    between atoms: N_2  and  C_6
REMARK    2  A    between atoms: C_3  and  C_18
REMARK    3  A    between atoms: C_7  and  S_12
REMARK    4  A    between atoms: S_12  and  N_15
REMARK    5  A    between atoms: C_18  and  S_19
REMARK    6  A    between atoms: S_19  and  C_31
REMARK                            x       y       z     vdW  Elec       q    Type
REMARK                         _______ _______ _______ _____ _____    ______ ____
ROOT
ATOM      1  O   UNL     1      32.747 -14.583 -25.622  0.00  0.00    -0.274 OA
ATOM      2  N   UNL     1      33.715 -14.288 -23.501  0.00  0.00    -0.283 N 
ATOM      3  C   UNL     1      33.432 -14.970 -24.679  0.00  0.00    +0.238 C 
ATOM      4  H   UNL     1      34.275 -14.765 -22.846  0.00  0.00    +0.155 HD
ENDROOT
BRANCH   2   6
ATOM      5 CL   UNL     1      32.218 -14.040 -20.859  0.00  0.00    -0.081 Cl
ATOM      6  C   UNL     1      33.292 -12.988 -23.136  0.00  0.00    +0.061 C 
ATOM      7  C   UNL     1      32.488 -10.400 -22.475  0.00  0.00    +0.123 C 
ATOM      8  C   UNL     1      32.599 -12.755 -21.949  0.00  0.00    +0.072 C 
ATOM      9  C   UNL     1      33.583 -11.926 -23.994  0.00  0.00    +0.017 C 
ATOM     10  C   UNL     1      32.197 -11.461 -21.618  0.00  0.00    +0.033 C 
ATOM     11  C   UNL     1      33.181 -10.632 -23.663  0.00  0.00    +0.021 C 
BRANCH   7  12
ATOM     12  S   UNL     1      31.984  -8.780 -22.062  0.00  0.00    +0.057 S 
ATOM     13  O   UNL     1      30.875  -8.409 -22.929  0.00  0.00    -0.153 OA
ATOM     14  O   UNL     1      31.833  -8.697 -20.616  0.00  0.00    -0.153 OA
BRANCH  12  15
ATOM     15  N   UNL     1      33.365  -7.884 -22.522  0.00  0.00    -0.203 NA
ATOM     16  H   UNL     1      33.256  -7.561 -23.484  0.00  0.00    +0.144 HD
ATOM     17  H   UNL     1      34.193  -8.474 -22.452  0.00  0.00    +0.144 HD
ENDBRANCH  12  15
ENDBRANCH   7  12
ENDBRANCH   2   6
BRANCH   3  18
ATOM     18  C   UNL     1      34.065 -16.345 -24.704  0.00  0.00    +0.152 C 
BRANCH  18  19
ATOM     19  S   UNL     1      35.113 -16.532 -23.245  0.00  0.00    -0.047 S 
BRANCH  19  31
ATOM     20  O   UNL     1      33.932 -18.845 -23.439  0.00  0.00    -0.262 OA
ATOM     21  N   UNL     1      35.470 -18.706 -21.667  0.00  0.00    -0.250 N 
ATOM     22  C   UNL     1      37.738 -19.367 -20.883  0.00  0.00    +0.027 C 
ATOM     23  C   UNL     1      37.171 -20.013 -19.637  0.00  0.00    +0.029 C 
ATOM     24  C   UNL     1      36.829 -18.234 -21.327  0.00  0.00    +0.099 C 
ATOM     25  C   UNL     1      35.714 -20.347 -19.813  0.00  0.00    -0.009 C 
ATOM     26  C   UNL     1      34.905 -19.710 -20.783  0.00  0.00    +0.051 C 
ATOM     27  C   UNL     1      35.158 -21.300 -18.939  0.00  0.00    -0.007 C 
ATOM     28  C   UNL     1      33.541 -20.055 -20.820  0.00  0.00    +0.014 C 
ATOM     29  C   UNL     1      33.812 -21.639 -19.016  0.00  0.00    -0.022 C 
ATOM     30  C   UNL     1      33.004 -21.012 -19.954  0.00  0.00    -0.003 C 
ATOM     31  C   UNL     1      34.760 -18.216 -22.788  0.00  0.00    +0.280 C 
ATOM     32  C   UNL     1      33.246 -22.677 -18.109  0.00  0.00    +0.031 C 
ENDBRANCH  19  31
ENDBRANCH  18  19
ENDBRANCH   3  18
TORSDOF 6
ENDMDL
MODEL 4
REMARK VINA RESULT:     -10.6      2.462      3.433
REMARK  Name = 24878044
REMARK  6 active torsions:
REMARK  status: ('A' for Active; 'I' for Inactive)
REMARK    1  A    between atoms: N_2  and  C_6
REMARK    2  A    between atoms: C_3  and  C_18
REMARK    3  A    between atoms: C_7  and  S_12
REMARK    4  A    between atoms: S_12  and  N_15
REMARK    5  A    between atoms: C_18  and  S_19
REMARK    6  A    between atoms: S_19  and  C_31
REMARK                            x       y       z     vdW  Elec       q    Type
REMARK                         _______ _______ _______ _____ _____    ______ ____
ROOT
ATOM      1  O   UNL     1      37.480 -19.005 -19.826  0.00  0.00    -0.274 OA
ATOM      2  N   UNL     1      35.518 -20.065 -20.566  0.00  0.00    -0.283 N 
ATOM      3  C   UNL     1      36.615 -19.217 -20.671  0.00  0.00    +0.238 C 
ATOM      4  H   UNL     1      34.918 -20.099 -21.346  0.00  0.00    +0.155 HD
ENDROOT
BRANCH   2   6
ATOM      5 CL   UNL     1      32.556 -20.709 -20.248  0.00  0.00    -0.081 Cl
ATOM      6  C   UNL     1      35.165 -20.885 -19.468  0.00  0.00    +0.061 C 
ATOM      7  C   UNL     1      34.540 -22.506 -17.286  0.00  0.00    +0.123 C 
ATOM      8  C   UNL     1      33.840 -21.245 -19.224  0.00  0.00    +0.072 C 
ATOM      9  C   UNL     1      36.178 -21.336 -18.620  0.00  0.00    +0.017 C 
ATOM     10  C   UNL     1      33.528 -22.056 -18.133  0.00  0.00    +0.033 C 
ATOM     11  C   UNL     1      35.865 -22.146 -17.529  0.00  0.00    +0.021 C 
BRANCH   7  12
ATOM     12  S   UNL     1      34.148 -23.521 -15.919  0.00  0.00    +0.057 S 
ATOM     13  O   UNL     1      32.712 -23.756 -15.918  0.00  0.00    -0.153 OA
ATOM     14  O   UNL     1      35.067 -24.650 -15.904  0.00  0.00    -0.153 OA
BRANCH  12  15
ATOM     15  N   UNL     1      34.537 -22.480 -14.620  0.00  0.00    -0.203 NA
ATOM     16  H   UNL     1      35.337 -21.901 -14.876  0.00  0.00    +0.144 HD
ATOM     17  H   UNL     1      34.768 -23.035 -13.797  0.00  0.00    +0.144 HD
ENDBRANCH  12  15
ENDBRANCH   7  12
ENDBRANCH   2   6
BRANCH   3  18
ATOM     18  C   UNL     1      36.654 -18.503 -22.005  0.00  0.00    +0.152 C 
BRANCH  18  19
ATOM     19  S   UNL     1      34.974 -18.012 -22.453  0.00  0.00    -0.047 S 
BRANCH  19  31
ATOM     20  O   UNL     1      35.380 -16.244 -20.584  0.00  0.00    -0.262 OA
ATOM     21  N   UNL     1      34.195 -15.417 -22.437  0.00  0.00    -0.250 N 
ATOM     22  C   UNL     1      34.345 -14.017 -24.490  0.00  0.00    +0.027 C 
ATOM     23  C   UNL     1      33.194 -13.145 -24.037  0.00  0.00    +0.029 C 
ATOM     24  C   UNL     1      34.181 -15.413 -23.916  0.00  0.00    +0.099 C 
ATOM     25  C   UNL     1      32.991 -13.242 -22.548  0.00  0.00    -0.009 C 
ATOM     26  C   UNL     1      33.468 -14.338 -21.792  0.00  0.00    +0.051 C 
ATOM     27  C   UNL     1      32.263 -12.211 -21.925  0.00  0.00    -0.007 C 
ATOM     28  C   UNL     1      33.169 -14.357 -20.417  0.00  0.00    +0.014 C 
ATOM     29  C   UNL     1      32.005 -12.245 -20.560  0.00  0.00    -0.022 C 
ATOM     30  C   UNL     1      32.454 -13.321 -19.808  0.00  0.00    -0.003 C 
ATOM     31  C   UNL     1      34.878 -16.406 -21.692  0.00  0.00    +0.280 C 
ATOM     32  C   UNL     1      31.265 -11.128 -19.908  0.00  0.00    +0.031 C 
ENDBRANCH  19  31
ENDBRANCH  18  19
ENDBRANCH   3  18
TORSDOF 6
ENDMDL
MODEL 5
REMARK VINA RESULT:     -10.4      3.594      6.113
REMARK  Name = 24878044
REMARK  6 active torsions:
REMARK  status: ('A' for Active; 'I' for Inactive)
REMARK    1  A    between atoms: N_2  and  C_6
REMARK    2  A    between atoms: C_3  and  C_18
REMARK    3  A    between atoms: C_7  and  S_12
REMARK    4  A    between atoms: S_12  and  N_15
REMARK    5  A    between atoms: C_18  and  S_19
REMARK    6  A    between atoms: S_19  and  C_31
REMARK                            x       y       z     vdW  Elec       q    Type
REMARK                         _______ _______ _______ _____ _____    ______ ____
ROOT
ATOM      1  O   UNL     1      31.563 -13.653 -20.549  0.00  0.00    -0.274 OA
ATOM      2  N   UNL     1      33.565 -13.243 -21.710  0.00  0.00    -0.283 N 
ATOM      3  C   UNL     1      32.359 -12.902 -21.108  0.00  0.00    +0.238 C 
ATOM      4  H   UNL     1      34.069 -12.504 -22.122  0.00  0.00    +0.155 HD
ENDROOT
BRANCH   2   6
ATOM      5 CL   UNL     1      33.763 -14.458 -24.497  0.00  0.00    -0.081 Cl
ATOM      6  C   UNL     1      34.152 -14.528 -21.797  0.00  0.00    +0.061 C 
ATOM      7  C   UNL     1      35.318 -17.060 -21.898  0.00  0.00    +0.123 C 
ATOM      8  C   UNL     1      34.295 -15.181 -23.021  0.00  0.00    +0.072 C 
ATOM      9  C   UNL     1      34.592 -15.141 -20.623  0.00  0.00    +0.017 C 
ATOM     10  C   UNL     1      34.878 -16.447 -23.071  0.00  0.00    +0.033 C 
ATOM     11  C   UNL     1      35.176 -16.407 -20.674  0.00  0.00    +0.021 C 
BRANCH   7  12
ATOM     12  S   UNL     1      36.048 -18.644 -21.961  0.00  0.00    +0.057 S 
ATOM     13  O   UNL     1      35.492 -19.362 -23.099  0.00  0.00    -0.153 OA
ATOM     14  O   UNL     1      37.492 -18.494 -21.836  0.00  0.00    -0.153 OA
BRANCH  12  15
ATOM     15  N   UNL     1      35.442 -19.339 -20.522  0.00  0.00    -0.203 NA
ATOM     16  H   UNL     1      34.862 -20.146 -20.752  0.00  0.00    +0.144 HD
ATOM     17  H   UNL     1      34.883 -18.649 -20.020  0.00  0.00    +0.144 HD
ENDBRANCH  12  15
ENDBRANCH   7  12
ENDBRANCH   2   6
BRANCH   3  18
ATOM     18  C   UNL     1      32.068 -11.421 -21.219  0.00  0.00    +0.152 C 
BRANCH  18  19
ATOM     19  S   UNL     1      32.577 -10.847 -22.854  0.00  0.00    -0.047 S 
BRANCH  19  31
ATOM     20  O   UNL     1      31.164  -8.767 -22.175  0.00  0.00    -0.262 OA
ATOM     21  N   UNL     1      33.141  -8.241 -23.332  0.00  0.00    -0.250 N 
ATOM     22  C   UNL     1      35.460  -7.365 -23.107  0.00  0.00    +0.027 C 
ATOM     23  C   UNL     1      35.201  -6.281 -24.132  0.00  0.00    +0.029 C 
ATOM     24  C   UNL     1      34.581  -8.567 -23.405  0.00  0.00    +0.099 C 
ATOM     25  C   UNL     1      33.727  -6.018 -24.284  0.00  0.00    -0.009 C 
ATOM     26  C   UNL     1      32.748  -6.966 -23.905  0.00  0.00    +0.051 C 
ATOM     27  C   UNL     1      33.344  -4.794 -24.865  0.00  0.00    -0.007 C 
ATOM     28  C   UNL     1      31.400  -6.640 -24.148  0.00  0.00    +0.014 C 
ATOM     29  C   UNL     1      32.004  -4.490 -25.070  0.00  0.00    -0.022 C 
ATOM     30  C   UNL     1      31.033  -5.416 -24.716  0.00  0.00    -0.003 C 
ATOM     31  C   UNL     1      32.199  -9.112 -22.737  0.00  0.00    +0.280 C 
ATOM     32  C   UNL     1      31.612  -3.175 -25.651  0.00  0.00    +0.031 C 
ENDBRANCH  19  31
ENDBRANCH  18  19
ENDBRANCH   3  18
TORSDOF 6
ENDMDL
MODEL 6
REMARK VINA RESULT:     -10.4      4.441      6.780
REMARK  Name = 24878044
REMARK  6 active torsions:
REMARK  status: ('A' for Active; 'I' for Inactive)
REMARK    1  A    between atoms: N_2  and  C_6
REMARK    2  A    between atoms: C_3  and  C_18
REMARK    3  A    between atoms: C_7  and  S_12
REMARK    4  A    between atoms: S_12  and  N_15
REMARK    5  A    between atoms: C_18  and  S_19
REMARK    6  A    between atoms: S_19  and  C_31
REMARK                            x       y       z     vdW  Elec       q    Type
REMARK                         _______ _______ _______ _____ _____    ______ ____
ROOT
ATOM      1  O   UNL     1      35.135 -22.659 -17.760  0.00  0.00    -0.274 OA
ATOM      2  N   UNL     1      37.027 -22.032 -16.514  0.00  0.00    -0.283 N 
ATOM      3  C   UNL     1      36.187 -22.040 -17.622  0.00  0.00    +0.238 C 
ATOM      4  H   UNL     1      37.840 -21.483 -16.588  0.00  0.00    +0.155 HD
ENDROOT
BRANCH   2   6
ATOM      5 CL   UNL     1      39.361 -23.741 -15.558  0.00  0.00    -0.081 Cl
ATOM      6  C   UNL     1      36.845 -22.721 -15.291  0.00  0.00    +0.061 C 
ATOM      7  C   UNL     1      36.421 -24.051 -12.876  0.00  0.00    +0.123 C 
ATOM      8  C   UNL     1      37.845 -23.532 -14.757  0.00  0.00    +0.072 C 
ATOM      9  C   UNL     1      35.631 -22.575 -14.617  0.00  0.00    +0.017 C 
ATOM     10  C   UNL     1      37.634 -24.197 -13.549  0.00  0.00    +0.033 C 
ATOM     11  C   UNL     1      35.420 -23.240 -13.409  0.00  0.00    +0.021 C 
BRANCH   7  12
ATOM     12  S   UNL     1      36.155 -24.883 -11.364  0.00  0.00    +0.057 S 
ATOM     13  O   UNL     1      36.963 -24.241 -10.337  0.00  0.00    -0.153 OA
ATOM     14  O   UNL     1      34.721 -25.036 -11.166  0.00  0.00    -0.153 OA
BRANCH  12  15
ATOM     15  N   UNL     1      36.827 -26.415 -11.714  0.00  0.00    -0.203 NA
ATOM     16  H   UNL     1      36.419 -26.776 -12.577  0.00  0.00    +0.144 HD
ATOM     17  H   UNL     1      36.627 -27.058 -10.948  0.00  0.00    +0.144 HD
ENDBRANCH  12  15
ENDBRANCH   7  12
ENDBRANCH   2   6
BRANCH   3  18
ATOM     18  C   UNL     1      36.722 -21.175 -18.744  0.00  0.00    +0.152 C 
BRANCH  18  19
ATOM     19  S   UNL     1      35.394 -20.873 -19.931  0.00  0.00    -0.047 S 
BRANCH  19  31
ATOM     20  O   UNL     1      36.785 -18.674 -20.052  0.00  0.00    -0.262 OA
ATOM     21  N   UNL     1      35.224 -18.912 -21.793  0.00  0.00    -0.250 N 
ATOM     22  C   UNL     1      34.932 -19.452 -24.205  0.00  0.00    +0.027 C 
ATOM     23  C   UNL     1      34.220 -18.141 -24.461  0.00  0.00    +0.029 C 
ATOM     24  C   UNL     1      34.695 -19.887 -22.770  0.00  0.00    +0.099 C 
ATOM     25  C   UNL     1      34.536 -17.132 -23.389  0.00  0.00    -0.009 C 
ATOM     26  C   UNL     1      35.009 -17.512 -22.112  0.00  0.00    +0.051 C 
ATOM     27  C   UNL     1      34.302 -15.776 -23.687  0.00  0.00    -0.007 C 
ATOM     28  C   UNL     1      35.214 -16.491 -21.165  0.00  0.00    +0.014 C 
ATOM     29  C   UNL     1      34.538 -14.787 -22.740  0.00  0.00    -0.022 C 
ATOM     30  C   UNL     1      34.989 -15.146 -21.478  0.00  0.00    -0.003 C 
ATOM     31  C   UNL     1      35.905 -19.313 -20.619  0.00  0.00    +0.280 C 
ATOM     32  C   UNL     1      34.321 -13.353 -23.082  0.00  0.00    +0.031 C 
ENDBRANCH  19  31
ENDBRANCH  18  19
ENDBRANCH   3  18
TORSDOF 6
ENDMDL
MODEL 7
REMARK VINA RESULT:     -10.3      4.010     10.973
REMARK  Name = 24878044
REMARK  6 active torsions:
REMARK  status: ('A' for Active; 'I' for Inactive)
REMARK    1  A    between atoms: N_2  and  C_6
REMARK    2  A    between atoms: C_3  and  C_18
REMARK    3  A    between atoms: C_7  and  S_12
REMARK    4  A    between atoms: S_12  and  N_15
REMARK    5  A    between atoms: C_18  and  S_19
REMARK    6  A    between atoms: S_19  and  C_31
REMARK                            x       y       z     vdW  Elec       q    Type
REMARK                         _______ _______ _______ _____ _____    ______ ____
ROOT
ATOM      1  O   UNL     1      34.088 -19.918 -20.618  0.00  0.00    -0.274 OA
ATOM      2  N   UNL     1      35.887 -18.417 -20.807  0.00  0.00    -0.283 N 
ATOM      3  C   UNL     1      35.267 -19.611 -20.456  0.00  0.00    +0.238 C 
ATOM      4  H   UNL     1      36.843 -18.342 -20.587  0.00  0.00    +0.155 HD
ENDROOT
BRANCH   2   6
ATOM      5 CL   UNL     1      35.265 -18.717 -23.775  0.00  0.00    -0.081 Cl
ATOM      6  C   UNL     1      35.301 -17.297 -21.445  0.00  0.00    +0.061 C 
ATOM      7  C   UNL     1      34.148 -15.056 -22.641  0.00  0.00    +0.123 C 
ATOM      8  C   UNL     1      34.973 -17.321 -22.800  0.00  0.00    +0.072 C 
ATOM      9  C   UNL     1      35.052 -16.152 -20.688  0.00  0.00    +0.017 C 
ATOM     10  C   UNL     1      34.396 -16.201 -23.398  0.00  0.00    +0.033 C 
ATOM     11  C   UNL     1      34.475 -15.032 -21.285  0.00  0.00    +0.021 C 
BRANCH   7  12
ATOM     12  S   UNL     1      33.426 -13.653 -23.389  0.00  0.00    +0.057 S 
ATOM     13  O   UNL     1      32.219 -13.309 -22.651  0.00  0.00    -0.153 OA
ATOM     14  O   UNL     1      34.463 -12.651 -23.590  0.00  0.00    -0.153 OA
BRANCH  12  15
ATOM     15  N   UNL     1      32.977 -14.291 -24.910  0.00  0.00    -0.203 NA
ATOM     16  H   UNL     1      33.594 -15.069 -25.148  0.00  0.00    +0.144 HD
ATOM     17  H   UNL     1      33.057 -13.564 -25.621  0.00  0.00    +0.144 HD
ENDBRANCH  12  15
ENDBRANCH   7  12
ENDBRANCH   2   6
BRANCH   3  18
ATOM     18  C   UNL     1      36.226 -20.572 -19.788  0.00  0.00    +0.152 C 
BRANCH  18  19
ATOM     19  S   UNL     1      35.278 -21.915 -19.039  0.00  0.00    -0.047 S 
BRANCH  19  31
ATOM     20  O   UNL     1      36.929 -21.231 -17.144  0.00  0.00    -0.262 OA
ATOM     21  N   UNL     1      35.265 -22.743 -16.459  0.00  0.00    -0.250 N 
ATOM     22  C   UNL     1      33.132 -22.989 -15.199  0.00  0.00    +0.027 C 
ATOM     23  C   UNL     1      33.725 -24.064 -14.312  0.00  0.00    +0.029 C 
ATOM     24  C   UNL     1      33.815 -23.015 -16.555  0.00  0.00    +0.099 C 
ATOM     25  C   UNL     1      35.229 -23.999 -14.312  0.00  0.00    -0.009 C 
ATOM     26  C   UNL     1      35.958 -23.371 -15.348  0.00  0.00    +0.051 C 
ATOM     27  C   UNL     1      35.904 -24.632 -13.250  0.00  0.00    -0.007 C 
ATOM     28  C   UNL     1      37.363 -23.423 -15.278  0.00  0.00    +0.014 C 
ATOM     29  C   UNL     1      37.292 -24.645 -13.195  0.00  0.00    -0.022 C 
ATOM     30  C   UNL     1      38.020 -24.045 -14.212  0.00  0.00    -0.003 C 
ATOM     31  C   UNL     1      35.940 -21.915 -17.386  0.00  0.00    +0.280 C 
ATOM     32  C   UNL     1      37.992 -25.286 -12.046  0.00  0.00    +0.031 C 
ENDBRANCH  19  31
ENDBRANCH  18  19
ENDBRANCH   3  18
TORSDOF 6
ENDMDL
MODEL 8
REMARK VINA RESULT:     -10.2      5.683     11.701
REMARK  Name = 24878044
REMARK  6 active torsions:
REMARK  status: ('A' for Active; 'I' for Inactive)
REMARK    1  A    between atoms: N_2  and  C_6
REMARK    2  A    between atoms: C_3  and  C_18
REMARK    3  A    between atoms: C_7  and  S_12
REMARK    4  A    between atoms: S_12  and  N_15
REMARK    5  A    between atoms: C_18  and  S_19
REMARK    6  A    between atoms: S_19  and  C_31
REMARK                            x       y       z     vdW  Elec       q    Type
REMARK                         _______ _______ _______ _____ _____    ______ ____
ROOT
ATOM      1  O   UNL     1      33.833 -24.346 -18.782  0.00  0.00    -0.274 OA
ATOM      2  N   UNL     1      33.861 -22.223 -17.774  0.00  0.00    -0.283 N 
ATOM      3  C   UNL     1      33.699 -23.603 -17.813  0.00  0.00    +0.238 C 
ATOM      4  H   UNL     1      33.698 -21.790 -16.905  0.00  0.00    +0.155 HD
ENDROOT
BRANCH   2   6
ATOM      5 CL   UNL     1      36.850 -21.804 -18.191  0.00  0.00    -0.081 Cl
ATOM      6  C   UNL     1      34.235 -21.370 -18.839  0.00  0.00    +0.061 C 
ATOM      7  C   UNL     1      34.904 -19.679 -20.954  0.00  0.00    +0.123 C 
ATOM      8  C   UNL     1      35.574 -21.105 -19.123  0.00  0.00    +0.072 C 
ATOM      9  C   UNL     1      33.230 -20.788 -19.612  0.00  0.00    +0.017 C 
ATOM     10  C   UNL     1      35.909 -20.260 -20.181  0.00  0.00    +0.033 C 
ATOM     11  C   UNL     1      33.564 -19.943 -20.670  0.00  0.00    +0.021 C 
BRANCH   7  12
ATOM     12  S   UNL     1      35.322 -18.620 -22.279  0.00  0.00    +0.057 S 
ATOM     13  O   UNL     1      34.917 -19.258 -23.523  0.00  0.00    -0.153 OA
ATOM     14  O   UNL     1      34.849 -17.279 -21.966  0.00  0.00    -0.153 OA
BRANCH  12  15
ATOM     15  N   UNL     1      37.028 -18.636 -22.181  0.00  0.00    -0.203 NA
ATOM     16  H   UNL     1      37.367 -19.589 -22.315  0.00  0.00    +0.144 HD
ATOM     17  H   UNL     1      37.320 -18.296 -21.265  0.00  0.00    +0.144 HD
ENDBRANCH  12  15
ENDBRANCH   7  12
ENDBRANCH   2   6
BRANCH   3  18
ATOM     18  C   UNL     1      33.291 -24.165 -16.467  0.00  0.00    +0.152 C 
BRANCH  18  19
ATOM     19  S   UNL     1      33.317 -22.832 -15.247  0.00  0.00    -0.047 S 
BRANCH  19  31
ATOM     20  O   UNL     1      35.788 -22.020 -15.391  0.00  0.00    -0.262 OA
ATOM     21  N   UNL     1      35.436 -23.731 -13.818  0.00  0.00    -0.250 N 
ATOM     22  C   UNL     1      35.222 -24.256 -11.394  0.00  0.00    +0.027 C 
ATOM     23  C   UNL     1      36.333 -25.282 -11.470  0.00  0.00    +0.029 C 
ATOM     24  C   UNL     1      34.523 -24.164 -12.740  0.00  0.00    +0.099 C 
ATOM     25  C   UNL     1      37.210 -25.047 -12.671  0.00  0.00    -0.009 C 
ATOM     26  C   UNL     1      36.768 -24.309 -13.794  0.00  0.00    +0.051 C 
ATOM     27  C   UNL     1      38.491 -25.629 -12.662  0.00  0.00    -0.007 C 
ATOM     28  C   UNL     1      37.648 -24.203 -14.888  0.00  0.00    +0.014 C 
ATOM     29  C   UNL     1      39.347 -25.486 -13.747  0.00  0.00    -0.022 C 
ATOM     30  C   UNL     1      38.923 -24.777 -14.861  0.00  0.00    -0.003 C 
ATOM     31  C   UNL     1      35.043 -22.806 -14.813  0.00  0.00    +0.280 C 
ATOM     32  C   UNL     1      40.715 -26.077 -13.707  0.00  0.00    +0.031 C 
ENDBRANCH  19  31
ENDBRANCH  18  19
ENDBRANCH   3  18
TORSDOF 6
ENDMDL
MODEL 9
REMARK VINA RESULT:     -10.1      3.796      6.664
REMARK  Name = 24878044
REMARK  6 active torsions:
REMARK  status: ('A' for Active; 'I' for Inactive)
REMARK    1  A    between atoms: N_2  and  C_6
REMARK    2  A    between atoms: C_3  and  C_18
REMARK    3  A    between atoms: C_7  and  S_12
REMARK    4  A    between atoms: S_12  and  N_15
REMARK    5  A    between atoms: C_18  and  S_19
REMARK    6  A    between atoms: S_19  and  C_31
REMARK                            x       y       z     vdW  Elec       q    Type
REMARK                         _______ _______ _______ _____ _____    ______ ____
ROOT
ATOM      1  O   UNL     1      31.930 -12.761 -21.685  0.00  0.00    -0.274 OA
ATOM      2  N   UNL     1      33.901 -12.968 -22.948  0.00  0.00    -0.283 N 
ATOM      3  C   UNL     1      32.797 -12.304 -22.426  0.00  0.00    +0.238 C 
ATOM      4  H   UNL     1      34.486 -12.440 -23.539  0.00  0.00    +0.155 HD
ENDROOT
BRANCH   2   6
ATOM      5 CL   UNL     1      33.718 -14.842 -25.344  0.00  0.00    -0.081 Cl
ATOM      6  C   UNL     1      34.282 -14.313 -22.727  0.00  0.00    +0.061 C 
ATOM      7  C   UNL     1      35.047 -16.948 -22.223  0.00  0.00    +0.123 C 
ATOM      8  C   UNL     1      34.238 -15.259 -23.750  0.00  0.00    +0.072 C 
ATOM      9  C   UNL     1      34.707 -14.684 -21.451  0.00  0.00    +0.017 C 
ATOM     10  C   UNL     1      34.621 -16.576 -23.499  0.00  0.00    +0.033 C 
ATOM     11  C   UNL     1      35.090 -16.002 -21.199  0.00  0.00    +0.021 C 
BRANCH   7  12
ATOM     12  S   UNL     1      35.525 -18.597 -21.908  0.00  0.00    +0.057 S 
ATOM     13  O   UNL     1      35.107 -18.946 -20.558  0.00  0.00    -0.153 OA
ATOM     14  O   UNL     1      35.108 -19.423 -23.032  0.00  0.00    -0.153 OA
BRANCH  12  15
ATOM     15  N   UNL     1      37.228 -18.452 -21.936  0.00  0.00    -0.203 NA
ATOM     16  H   UNL     1      37.485 -17.465 -21.967  0.00  0.00    +0.144 HD
ATOM     17  H   UNL     1      37.596 -18.925 -22.761  0.00  0.00    +0.144 HD
ENDBRANCH  12  15
ENDBRANCH   7  12
ENDBRANCH   2   6
BRANCH   3  18
ATOM     18  C   UNL     1      32.727 -10.866 -22.893  0.00  0.00    +0.152 C 
BRANCH  18  19
ATOM     19  S   UNL     1      31.158 -10.152 -22.351  0.00  0.00    -0.047 S 
BRANCH  19  31
ATOM     20  O   UNL     1      32.036  -8.270 -20.779  0.00  0.00    -0.262 OA
ATOM     21  N   UNL     1      31.587  -7.550 -22.971  0.00  0.00    -0.250 N 
ATOM     22  C   UNL     1      32.604  -6.898 -25.148  0.00  0.00    +0.027 C 
ATOM     23  C   UNL     1      31.896  -5.560 -25.132  0.00  0.00    +0.029 C 
ATOM     24  C   UNL     1      31.775  -7.921 -24.390  0.00  0.00    +0.099 C 
ATOM     25  C   UNL     1      31.474  -5.185 -23.736  0.00  0.00    -0.009 C 
ATOM     26  C   UNL     1      31.321  -6.147 -22.710  0.00  0.00    +0.051 C 
ATOM     27  C   UNL     1      31.189  -3.829 -23.488  0.00  0.00    -0.007 C 
ATOM     28  C   UNL     1      30.863  -5.694 -21.459  0.00  0.00    +0.014 C 
ATOM     29  C   UNL     1      30.761  -3.408 -22.235  0.00  0.00    -0.022 C 
ATOM     30  C   UNL     1      30.594  -4.342 -21.223  0.00  0.00    -0.003 C 
ATOM     31  C   UNL     1      31.667  -8.500 -21.927  0.00  0.00    +0.280 C 
ATOM     32  C   UNL     1      30.499  -1.964 -21.977  0.00  0.00    +0.031 C 
ENDBRANCH  19  31
ENDBRANCH  18  19
ENDBRANCH   3  18
TORSDOF 6
ENDMDL
