MODEL 1
REMARK VINA RESULT:      -9.2      0.000      0.000
REMARK  Name = 252141
REMARK  5 active torsions:
REMARK  status: ('A' for Active; 'I' for Inactive)
REMARK    1  A    between atoms: N_1  and  C_19
REMARK    2  A    between atoms: C_2  and  N_9
REMARK    3  A    between atoms: N_9  and  C_11
REMARK    4  A    between atoms: C_10  and  C_17
REMARK    5  A    between atoms: C_19  and  C_20
REMARK                            x       y       z     vdW  Elec       q    Type
REMARK                         _______ _______ _______ _____ _____    ______ ____
ROOT
ATOM      1  N   UNL     1      31.886 -10.908 -21.274  0.00  0.00    +0.390 N 
ATOM      2  C   UNL     1      31.403  -8.073 -21.816  0.00  0.00    +0.076 C 
ATOM      3  C   UNL     1      31.999  -8.562 -20.496  0.00  0.00    -0.003 C 
ATOM      4  C   UNL     1      31.691  -9.080 -22.930  0.00  0.00    -0.003 C 
ATOM      5  C   UNL     1      31.549  -9.989 -20.178  0.00  0.00    -0.075 C 
ATOM      6  C   UNL     1      31.252 -10.490 -22.532  0.00  0.00    -0.075 C 
ATOM      7  H   UNL     1      32.897 -10.880 -21.407  0.00  0.00    -0.079 HD
ENDROOT
BRANCH   2   9
ATOM      8  O   UNL     1      30.235  -5.471 -21.092  0.00  0.00    -0.275 OA
ATOM      9  N   UNL     1      31.907  -6.768 -22.161  0.00  0.00    -0.260 N 
ATOM     10  C   UNL     1      31.267  -5.556 -21.762  0.00  0.00    +0.229 C 
BRANCH   9  11
ATOM     11  C   UNL     1      33.129  -6.680 -22.956  0.00  0.00    +0.054 C 
ATOM     12  C   UNL     1      34.304  -7.004 -22.345  0.00  0.00    +0.015 C 
ATOM     13  C   UNL     1      33.011  -6.284 -24.255  0.00  0.00    +0.015 C 
ATOM     14  C   UNL     1      35.472  -6.922 -23.105  0.00  0.00    +0.001 C 
ATOM     15  C   UNL     1      34.179  -6.201 -25.015  0.00  0.00    +0.001 C 
ATOM     16  C   UNL     1      35.409  -6.520 -24.439  0.00  0.00    +0.000 C 
ENDBRANCH   9  11
BRANCH  10  17
ATOM     17  C   UNL     1      31.932  -4.280 -22.268  0.00  0.00    +0.086 C 
ATOM     18  C   UNL     1      31.026  -3.062 -22.170  0.00  0.00    +0.010 C 
ENDBRANCH  10  17
ENDBRANCH   2   9
BRANCH   1  19
ATOM     19  C   UNL     1      31.496 -12.277 -20.934  0.00  0.00    -0.050 C 
BRANCH  19  20
ATOM     20  C   UNL     1      32.632 -13.247 -21.124  0.00  0.00    -0.043 C 
ATOM     21  C   UNL     1      33.067 -14.006 -20.047  0.00  0.00    -0.006 C 
ATOM     22  C   UNL     1      33.226 -13.367 -22.372  0.00  0.00    -0.006 C 
ATOM     23  C   UNL     1      34.120 -14.905 -20.222  0.00  0.00    -0.000 C 
ATOM     24  C   UNL     1      34.278 -14.267 -22.547  0.00  0.00    -0.000 C 
ATOM     25  C   UNL     1      34.725 -15.035 -21.472  0.00  0.00    -0.000 C 
ENDBRANCH  19  20
ENDBRANCH   1  19
TORSDOF 5
ENDMDL
MODEL 2
REMARK VINA RESULT:      -8.9      2.009      3.094
REMARK  Name = 252141
REMARK  5 active torsions:
REMARK  status: ('A' for Active; 'I' for Inactive)
REMARK    1  A    between atoms: N_1  and  C_19
REMARK    2  A    between atoms: C_2  and  N_9
REMARK    3  A    between atoms: N_9  and  C_11
REMARK    4  A    between atoms: C_10  and  C_17
REMARK    5  A    between atoms: C_19  and  C_20
REMARK                            x       y       z     vdW  Elec       q    Type
REMARK                         _______ _______ _______ _____ _____    ______ ____
ROOT
ATOM      1  N   UNL     1      33.700 -13.083 -23.344  0.00  0.00    +0.390 N 
ATOM      2  C   UNL     1      32.708 -10.334 -23.213  0.00  0.00    +0.076 C 
ATOM      3  C   UNL     1      32.272 -11.408 -22.217  0.00  0.00    -0.003 C 
ATOM      4  C   UNL     1      34.079 -10.680 -23.796  0.00  0.00    -0.003 C 
ATOM      5  C   UNL     1      32.351 -12.804 -22.835  0.00  0.00    -0.075 C 
ATOM      6  C   UNL     1      34.098 -12.101 -24.363  0.00  0.00    -0.075 C 
ATOM      7  H   UNL     1      34.352 -13.008 -22.563  0.00  0.00    -0.079 HD
ENDROOT
BRANCH   2   9
ATOM      8  O   UNL     1      31.399  -9.540 -20.701  0.00  0.00    -0.275 OA
ATOM      9  N   UNL     1      32.728  -9.031 -22.597  0.00  0.00    -0.260 N 
ATOM     10  C   UNL     1      32.058  -8.740 -21.371  0.00  0.00    +0.229 C 
BRANCH   9  11
ATOM     11  C   UNL     1      33.467  -7.958 -23.258  0.00  0.00    +0.054 C 
ATOM     12  C   UNL     1      34.746  -7.727 -22.847  0.00  0.00    +0.015 C 
ATOM     13  C   UNL     1      32.828  -7.263 -24.241  0.00  0.00    +0.015 C 
ATOM     14  C   UNL     1      35.453  -6.703 -23.479  0.00  0.00    +0.001 C 
ATOM     15  C   UNL     1      33.534  -6.239 -24.872  0.00  0.00    +0.001 C 
ATOM     16  C   UNL     1      34.846  -5.959 -24.491  0.00  0.00    +0.000 C 
ENDBRANCH   9  11
BRANCH  10  17
ATOM     17  C   UNL     1      32.161  -7.290 -20.909  0.00  0.00    +0.086 C 
ATOM     18  C   UNL     1      33.064  -7.118 -19.697  0.00  0.00    +0.010 C 
ENDBRANCH  10  17
ENDBRANCH   2   9
BRANCH   1  19
ATOM     19  C   UNL     1      33.774 -14.441 -23.886  0.00  0.00    -0.050 C 
BRANCH  19  20
ATOM     20  C   UNL     1      34.367 -15.408 -22.897  0.00  0.00    -0.043 C 
ATOM     21  C   UNL     1      34.859 -16.626 -23.345  0.00  0.00    -0.006 C 
ATOM     22  C   UNL     1      34.414 -15.068 -21.551  0.00  0.00    -0.006 C 
ATOM     23  C   UNL     1      35.409 -17.523 -22.428  0.00  0.00    -0.000 C 
ATOM     24  C   UNL     1      34.964 -15.965 -20.636  0.00  0.00    -0.000 C 
ATOM     25  C   UNL     1      35.461 -17.193 -21.074  0.00  0.00    -0.000 C 
ENDBRANCH  19  20
ENDBRANCH   1  19
TORSDOF 5
ENDMDL
MODEL 3
REMARK VINA RESULT:      -8.5      3.033      5.160
REMARK  Name = 252141
REMARK  5 active torsions:
REMARK  status: ('A' for Active; 'I' for Inactive)
REMARK    1  A    between atoms: N_1  and  C_19
REMARK    2  A    between atoms: C_2  and  N_9
REMARK    3  A    between atoms: N_9  and  C_11
REMARK    4  A    between atoms: C_10  and  C_17
REMARK    5  A    between atoms: C_19  and  C_20
REMARK                            x       y       z     vdW  Elec       q    Type
REMARK                         _______ _______ _______ _____ _____    ______ ____
ROOT
ATOM      1  N   UNL     1      34.013 -15.319 -23.771  0.00  0.00    +0.390 N 
ATOM      2  C   UNL     1      33.546 -12.462 -23.347  0.00  0.00    +0.076 C 
ATOM      3  C   UNL     1      32.661 -13.307 -24.263  0.00  0.00    -0.003 C 
ATOM      4  C   UNL     1      34.208 -13.347 -22.290  0.00  0.00    -0.003 C 
ATOM      5  C   UNL     1      33.433 -14.495 -24.840  0.00  0.00    -0.075 C 
ATOM      6  C   UNL     1      34.929 -14.534 -22.932  0.00  0.00    -0.075 C 
ATOM      7  H   UNL     1      33.249 -15.650 -23.180  0.00  0.00    -0.079 HD
ENDROOT
BRANCH   2   9
ATOM      8  O   UNL     1      31.646 -12.709 -21.114  0.00  0.00    -0.275 OA
ATOM      9  N   UNL     1      32.791 -11.402 -22.728  0.00  0.00    -0.260 N 
ATOM     10  C   UNL     1      31.888 -11.621 -21.644  0.00  0.00    +0.229 C 
BRANCH   9  11
ATOM     11  C   UNL     1      32.956 -10.041 -23.232  0.00  0.00    +0.054 C 
ATOM     12  C   UNL     1      34.147  -9.421 -22.997  0.00  0.00    +0.015 C 
ATOM     13  C   UNL     1      31.909  -9.486 -23.905  0.00  0.00    +0.015 C 
ATOM     14  C   UNL     1      34.305  -8.121 -23.480  0.00  0.00    +0.001 C 
ATOM     15  C   UNL     1      32.067  -8.186 -24.388  0.00  0.00    +0.001 C 
ATOM     16  C   UNL     1      33.266  -7.504 -24.174  0.00  0.00    +0.000 C 
ENDBRANCH   9  11
BRANCH  10  17
ATOM     17  C   UNL     1      31.149 -10.377 -21.160  0.00  0.00    +0.086 C 
ATOM     18  C   UNL     1      31.366 -10.099 -19.680  0.00  0.00    +0.010 C 
ENDBRANCH  10  17
ENDBRANCH   2   9
BRANCH   1  19
ATOM     19  C   UNL     1      34.704 -16.479 -24.337  0.00  0.00    -0.050 C 
BRANCH  19  20
ATOM     20  C   UNL     1      34.916 -17.560 -23.310  0.00  0.00    -0.043 C 
ATOM     21  C   UNL     1      35.595 -17.262 -22.137  0.00  0.00    -0.006 C 
ATOM     22  C   UNL     1      34.431 -18.838 -23.553  0.00  0.00    -0.006 C 
ATOM     23  C   UNL     1      35.793 -18.264 -21.186  0.00  0.00    -0.000 C 
ATOM     24  C   UNL     1      34.629 -19.839 -22.601  0.00  0.00    -0.000 C 
ATOM     25  C   UNL     1      35.309 -19.552 -21.418  0.00  0.00    -0.000 C 
ENDBRANCH  19  20
ENDBRANCH   1  19
TORSDOF 5
ENDMDL
MODEL 4
REMARK VINA RESULT:      -8.5      1.409      2.083
REMARK  Name = 252141
REMARK  5 active torsions:
REMARK  status: ('A' for Active; 'I' for Inactive)
REMARK    1  A    between atoms: N_1  and  C_19
REMARK    2  A    between atoms: C_2  and  N_9
REMARK    3  A    between atoms: N_9  and  C_11
REMARK    4  A    between atoms: C_10  and  C_17
REMARK    5  A    between atoms: C_19  and  C_20
REMARK                            x       y       z     vdW  Elec       q    Type
REMARK                         _______ _______ _______ _____ _____    ______ ____
ROOT
ATOM      1  N   UNL     1      32.830 -11.680 -23.712  0.00  0.00    +0.390 N 
ATOM      2  C   UNL     1      33.121  -9.083 -22.398  0.00  0.00    +0.076 C 
ATOM      3  C   UNL     1      34.117  -9.586 -23.441  0.00  0.00    -0.003 C 
ATOM      4  C   UNL     1      31.757  -9.743 -22.609  0.00  0.00    -0.003 C 
ATOM      5  C   UNL     1      34.164 -11.115 -23.473  0.00  0.00    -0.075 C 
ATOM      6  C   UNL     1      31.882 -11.267 -22.669  0.00  0.00    -0.075 C 
ATOM      7  H   UNL     1      32.491 -11.321 -24.605  0.00  0.00    -0.079 HD
ENDROOT
BRANCH   2   9
ATOM      8  O   UNL     1      32.042  -7.327 -20.297  0.00  0.00    -0.275 OA
ATOM      9  N   UNL     1      33.006  -7.646 -22.439  0.00  0.00    -0.260 N 
ATOM     10  C   UNL     1      32.466  -6.878 -21.365  0.00  0.00    +0.229 C 
BRANCH   9  11
ATOM     11  C   UNL     1      33.464  -6.945 -23.636  0.00  0.00    +0.054 C 
ATOM     12  C   UNL     1      34.766  -6.539 -23.671  0.00  0.00    +0.015 C 
ATOM     13  C   UNL     1      32.561  -6.745 -24.636  0.00  0.00    +0.015 C 
ATOM     14  C   UNL     1      35.204  -5.870 -24.814  0.00  0.00    +0.001 C 
ATOM     15  C   UNL     1      32.999  -6.076 -25.780  0.00  0.00    +0.001 C 
ATOM     16  C   UNL     1      34.320  -5.638 -25.867  0.00  0.00    +0.000 C 
ENDBRANCH   9  11
BRANCH  10  17
ATOM     17  C   UNL     1      32.389  -5.376 -21.623  0.00  0.00    +0.086 C 
ATOM     18  C   UNL     1      30.959  -4.861 -21.688  0.00  0.00    +0.010 C 
ENDBRANCH  10  17
ENDBRANCH   2   9
BRANCH   1  19
ATOM     19  C   UNL     1      32.899 -13.140 -23.791  0.00  0.00    -0.050 C 
BRANCH  19  20
ATOM     20  C   UNL     1      33.293 -13.755 -22.474  0.00  0.00    -0.043 C 
ATOM     21  C   UNL     1      32.474 -13.579 -21.368  0.00  0.00    -0.006 C 
ATOM     22  C   UNL     1      34.468 -14.488 -22.386  0.00  0.00    -0.006 C 
ATOM     23  C   UNL     1      32.839 -14.148 -20.147  0.00  0.00    -0.000 C 
ATOM     24  C   UNL     1      34.832 -15.057 -21.166  0.00  0.00    -0.000 C 
ATOM     25  C   UNL     1      34.018 -14.887 -20.046  0.00  0.00    -0.000 C 
ENDBRANCH  19  20
ENDBRANCH   1  19
TORSDOF 5
ENDMDL
MODEL 5
REMARK VINA RESULT:      -8.4      1.705      3.022
REMARK  Name = 252141
REMARK  5 active torsions:
REMARK  status: ('A' for Active; 'I' for Inactive)
REMARK    1  A    between atoms: N_1  and  C_19
REMARK    2  A    between atoms: C_2  and  N_9
REMARK    3  A    between atoms: N_9  and  C_11
REMARK    4  A    between atoms: C_10  and  C_17
REMARK    5  A    between atoms: C_19  and  C_20
REMARK                            x       y       z     vdW  Elec       q    Type
REMARK                         _______ _______ _______ _____ _____    ______ ____
ROOT
ATOM      1  N   UNL     1      32.466 -11.379 -21.847  0.00  0.00    +0.390 N 
ATOM      2  C   UNL     1      32.329  -8.639 -22.866  0.00  0.00    +0.076 C 
ATOM      3  C   UNL     1      32.590  -8.951 -21.392  0.00  0.00    -0.003 C 
ATOM      4  C   UNL     1      32.771  -9.814 -23.739  0.00  0.00    -0.003 C 
ATOM      5  C   UNL     1      31.974 -10.292 -20.990  0.00  0.00    -0.075 C 
ATOM      6  C   UNL     1      32.150 -11.127 -23.260  0.00  0.00    -0.075 C 
ATOM      7  H   UNL     1      33.482 -11.417 -21.754  0.00  0.00    -0.079 HD
ENDROOT
BRANCH   2   9
ATOM      8  O   UNL     1      35.137  -8.344 -23.695  0.00  0.00    -0.275 OA
ATOM      9  N   UNL     1      32.994  -7.424 -23.265  0.00  0.00    -0.260 N 
ATOM     10  C   UNL     1      34.367  -7.381 -23.653  0.00  0.00    +0.229 C 
BRANCH   9  11
ATOM     11  C   UNL     1      32.229  -6.181 -23.274  0.00  0.00    +0.054 C 
ATOM     12  C   UNL     1      31.519  -5.884 -24.400  0.00  0.00    +0.015 C 
ATOM     13  C   UNL     1      32.274  -5.403 -22.156  0.00  0.00    +0.015 C 
ATOM     14  C   UNL     1      30.786  -4.696 -24.408  0.00  0.00    +0.001 C 
ATOM     15  C   UNL     1      31.541  -4.215 -22.164  0.00  0.00    +0.001 C 
ATOM     16  C   UNL     1      30.798  -3.862 -23.291  0.00  0.00    +0.000 C 
ENDBRANCH   9  11
BRANCH  10  17
ATOM     17  C   UNL     1      34.895  -5.991 -23.996  0.00  0.00    +0.086 C 
ATOM     18  C   UNL     1      35.156  -5.808 -25.483  0.00  0.00    +0.010 C 
ENDBRANCH  10  17
ENDBRANCH   2   9
BRANCH   1  19
ATOM     19  C   UNL     1      31.908 -12.662 -21.418  0.00  0.00    -0.050 C 
BRANCH  19  20
ATOM     20  C   UNL     1      32.962 -13.736 -21.350  0.00  0.00    -0.043 C 
ATOM     21  C   UNL     1      33.325 -14.257 -20.116  0.00  0.00    -0.006 C 
ATOM     22  C   UNL     1      33.553 -14.189 -22.521  0.00  0.00    -0.006 C 
ATOM     23  C   UNL     1      34.301 -15.252 -20.051  0.00  0.00    -0.000 C 
ATOM     24  C   UNL     1      34.529 -15.185 -22.456  0.00  0.00    -0.000 C 
ATOM     25  C   UNL     1      34.902 -15.716 -21.221  0.00  0.00    -0.000 C 
ENDBRANCH  19  20
ENDBRANCH   1  19
TORSDOF 5
ENDMDL
MODEL 6
REMARK VINA RESULT:      -8.4     12.311     17.183
REMARK  Name = 252141
REMARK  5 active torsions:
REMARK  status: ('A' for Active; 'I' for Inactive)
REMARK    1  A    between atoms: N_1  and  C_19
REMARK    2  A    between atoms: C_2  and  N_9
REMARK    3  A    between atoms: N_9  and  C_11
REMARK    4  A    between atoms: C_10  and  C_17
REMARK    5  A    between atoms: C_19  and  C_20
REMARK                            x       y       z     vdW  Elec       q    Type
REMARK                         _______ _______ _______ _____ _____    ______ ____
ROOT
ATOM      1  N   UNL     1      33.820 -23.171 -17.172  0.00  0.00    +0.390 N 
ATOM      2  C   UNL     1      34.821 -23.324 -14.427  0.00  0.00    +0.076 C 
ATOM      3  C   UNL     1      33.580 -24.088 -14.887  0.00  0.00    -0.003 C 
ATOM      4  C   UNL     1      35.741 -23.045 -15.617  0.00  0.00    -0.003 C 
ATOM      5  C   UNL     1      32.891 -23.377 -16.053  0.00  0.00    -0.075 C 
ATOM      6  C   UNL     1      34.980 -22.368 -16.759  0.00  0.00    -0.075 C 
ATOM      7  H   UNL     1      34.161 -24.085 -17.470  0.00  0.00    -0.079 HD
ENDROOT
BRANCH   2   9
ATOM      8  O   UNL     1      34.136 -23.450 -11.568  0.00  0.00    -0.275 OA
ATOM      9  N   UNL     1      35.523 -24.047 -13.396  0.00  0.00    -0.260 N 
ATOM     10  C   UNL     1      35.112 -24.048 -12.029  0.00  0.00    +0.229 C 
BRANCH   9  11
ATOM     11  C   UNL     1      36.709 -24.815 -13.766  0.00  0.00    +0.054 C 
ATOM     12  C   UNL     1      37.923 -24.212 -13.619  0.00  0.00    +0.015 C 
ATOM     13  C   UNL     1      36.522 -26.082 -14.231  0.00  0.00    +0.015 C 
ATOM     14  C   UNL     1      39.056 -24.945 -13.972  0.00  0.00    +0.001 C 
ATOM     15  C   UNL     1      37.655 -26.816 -14.584  0.00  0.00    +0.001 C 
ATOM     16  C   UNL     1      38.922 -26.247 -14.454  0.00  0.00    +0.000 C 
ENDBRANCH   9  11
BRANCH  10  17
ATOM     17  C   UNL     1      36.015 -24.837 -11.085  0.00  0.00    +0.086 C 
ATOM     18  C   UNL     1      35.765 -24.512  -9.620  0.00  0.00    +0.010 C 
ENDBRANCH  10  17
ENDBRANCH   2   9
BRANCH   1  19
ATOM     19  C   UNL     1      33.134 -22.536 -18.298  0.00  0.00    -0.050 C 
BRANCH  19  20
ATOM     20  C   UNL     1      34.059 -21.650 -19.091  0.00  0.00    -0.043 C 
ATOM     21  C   UNL     1      33.539 -20.562 -19.777  0.00  0.00    -0.006 C 
ATOM     22  C   UNL     1      35.417 -21.936 -19.124  0.00  0.00    -0.006 C 
ATOM     23  C   UNL     1      34.395 -19.742 -20.512  0.00  0.00    -0.000 C 
ATOM     24  C   UNL     1      36.272 -21.115 -19.859  0.00  0.00    -0.000 C 
ATOM     25  C   UNL     1      35.761 -20.018 -20.553  0.00  0.00    -0.000 C 
ENDBRANCH  19  20
ENDBRANCH   1  19
TORSDOF 5
ENDMDL
MODEL 7
REMARK VINA RESULT:      -8.3     12.370     17.422
REMARK  Name = 252141
REMARK  5 active torsions:
REMARK  status: ('A' for Active; 'I' for Inactive)
REMARK    1  A    between atoms: N_1  and  C_19
REMARK    2  A    between atoms: C_2  and  N_9
REMARK    3  A    between atoms: N_9  and  C_11
REMARK    4  A    between atoms: C_10  and  C_17
REMARK    5  A    between atoms: C_19  and  C_20
REMARK                            x       y       z     vdW  Elec       q    Type
REMARK                         _______ _______ _______ _____ _____    ______ ____
ROOT
ATOM      1  N   UNL     1      33.873 -23.128 -17.217  0.00  0.00    +0.390 N 
ATOM      2  C   UNL     1      35.100 -23.722 -14.628  0.00  0.00    +0.076 C 
ATOM      3  C   UNL     1      33.905 -24.510 -15.166  0.00  0.00    -0.003 C 
ATOM      4  C   UNL     1      35.890 -23.107 -15.784  0.00  0.00    -0.003 C 
ATOM      5  C   UNL     1      33.060 -23.658 -16.114  0.00  0.00    -0.075 C 
ATOM      6  C   UNL     1      34.979 -22.302 -16.712  0.00  0.00    -0.075 C 
ATOM      7  H   UNL     1      34.275 -23.919 -17.720  0.00  0.00    -0.079 HD
ENDROOT
BRANCH   2   9
ATOM      8  O   UNL     1      36.414 -26.231 -15.427  0.00  0.00    -0.275 OA
ATOM      9  N   UNL     1      35.948 -24.557 -13.814  0.00  0.00    -0.260 N 
ATOM     10  C   UNL     1      36.543 -25.762 -14.293  0.00  0.00    +0.229 C 
BRANCH   9  11
ATOM     11  C   UNL     1      36.211 -24.150 -12.436  0.00  0.00    +0.054 C 
ATOM     12  C   UNL     1      37.141 -23.174 -12.232  0.00  0.00    +0.015 C 
ATOM     13  C   UNL     1      35.507 -24.772 -11.448  0.00  0.00    +0.015 C 
ATOM     14  C   UNL     1      37.392 -22.785 -10.916  0.00  0.00    +0.001 C 
ATOM     15  C   UNL     1      35.758 -24.382 -10.132  0.00  0.00    +0.001 C 
ATOM     16  C   UNL     1      36.701 -23.389  -9.867  0.00  0.00    +0.000 C 
ENDBRANCH   9  11
BRANCH  10  17
ATOM     17  C   UNL     1      37.369 -26.526 -13.262  0.00  0.00    +0.086 C 
ATOM     18  C   UNL     1      38.857 -26.225 -13.357  0.00  0.00    +0.010 C 
ENDBRANCH  10  17
ENDBRANCH   2   9
BRANCH   1  19
ATOM     19  C   UNL     1      33.040 -22.358 -18.143  0.00  0.00    -0.050 C 
BRANCH  19  20
ATOM     20  C   UNL     1      33.871 -21.524 -19.082  0.00  0.00    -0.043 C 
ATOM     21  C   UNL     1      33.266 -20.506 -19.806  0.00  0.00    -0.006 C 
ATOM     22  C   UNL     1      35.228 -21.784 -19.209  0.00  0.00    -0.006 C 
ATOM     23  C   UNL     1      34.034 -19.733 -20.677  0.00  0.00    -0.000 C 
ATOM     24  C   UNL     1      35.997 -21.010 -20.079  0.00  0.00    -0.000 C 
ATOM     25  C   UNL     1      35.400 -19.985 -20.813  0.00  0.00    -0.000 C 
ENDBRANCH  19  20
ENDBRANCH   1  19
TORSDOF 5
ENDMDL
MODEL 8
REMARK VINA RESULT:      -8.3      2.190      7.772
REMARK  Name = 252141
REMARK  5 active torsions:
REMARK  status: ('A' for Active; 'I' for Inactive)
REMARK    1  A    between atoms: N_1  and  C_19
REMARK    2  A    between atoms: C_2  and  N_9
REMARK    3  A    between atoms: N_9  and  C_11
REMARK    4  A    between atoms: C_10  and  C_17
REMARK    5  A    between atoms: C_19  and  C_20
REMARK                            x       y       z     vdW  Elec       q    Type
REMARK                         _______ _______ _______ _____ _____    ______ ____
ROOT
ATOM      1  N   UNL     1      33.400  -8.438 -23.291  0.00  0.00    +0.390 N 
ATOM      2  C   UNL     1      33.058 -11.343 -23.370  0.00  0.00    +0.076 C 
ATOM      3  C   UNL     1      34.417 -10.687 -23.127  0.00  0.00    -0.003 C 
ATOM      4  C   UNL     1      31.933 -10.399 -22.942  0.00  0.00    -0.003 C 
ATOM      5  C   UNL     1      34.488  -9.301 -23.770  0.00  0.00    -0.075 C 
ATOM      6  C   UNL     1      32.086  -9.022 -23.592  0.00  0.00    -0.075 C 
ATOM      7  H   UNL     1      33.485  -8.359 -22.277  0.00  0.00    -0.079 HD
ENDROOT
BRANCH   2   9
ATOM      8  O   UNL     1      31.851 -11.832 -20.731  0.00  0.00    -0.275 OA
ATOM      9  N   UNL     1      32.960 -12.604 -22.680  0.00  0.00    -0.260 N 
ATOM     10  C   UNL     1      32.353 -12.743 -21.395  0.00  0.00    +0.229 C 
BRANCH   9  11
ATOM     11  C   UNL     1      33.505 -13.796 -23.324  0.00  0.00    +0.054 C 
ATOM     12  C   UNL     1      34.510 -14.457 -22.681  0.00  0.00    +0.015 C 
ATOM     13  C   UNL     1      32.971 -14.167 -24.522  0.00  0.00    +0.015 C 
ATOM     14  C   UNL     1      35.030 -15.597 -23.296  0.00  0.00    +0.001 C 
ATOM     15  C   UNL     1      33.492 -15.307 -25.137  0.00  0.00    +0.001 C 
ATOM     16  C   UNL     1      34.521 -16.021 -24.523  0.00  0.00    +0.000 C 
ENDBRANCH   9  11
BRANCH  10  17
ATOM     17  C   UNL     1      32.391 -14.153 -20.814  0.00  0.00    +0.086 C 
ATOM     18  C   UNL     1      32.355 -14.166 -19.293  0.00  0.00    +0.010 C 
ENDBRANCH  10  17
ENDBRANCH   2   9
BRANCH   1  19
ATOM     19  C   UNL     1      33.511  -7.101 -23.876  0.00  0.00    -0.050 C 
BRANCH  19  20
ATOM     20  C   UNL     1      32.706  -6.085 -23.109  0.00  0.00    -0.043 C 
ATOM     21  C   UNL     1      31.840  -5.243 -23.794  0.00  0.00    -0.006 C 
ATOM     22  C   UNL     1      32.841  -6.005 -21.730  0.00  0.00    -0.006 C 
ATOM     23  C   UNL     1      31.095  -4.302 -23.084  0.00  0.00    -0.000 C 
ATOM     24  C   UNL     1      32.094  -5.064 -21.021  0.00  0.00    -0.000 C 
ATOM     25  C   UNL     1      31.221  -4.213 -21.698  0.00  0.00    -0.000 C 
ENDBRANCH  19  20
ENDBRANCH   1  19
TORSDOF 5
ENDMDL
MODEL 9
REMARK VINA RESULT:      -8.2      1.538      3.132
REMARK  Name = 252141
REMARK  5 active torsions:
REMARK  status: ('A' for Active; 'I' for Inactive)
REMARK    1  A    between atoms: N_1  and  C_19
REMARK    2  A    between atoms: C_2  and  N_9
REMARK    3  A    between atoms: N_9  and  C_11
REMARK    4  A    between atoms: C_10  and  C_17
REMARK    5  A    between atoms: C_19  and  C_20
REMARK                            x       y       z     vdW  Elec       q    Type
REMARK                         _______ _______ _______ _____ _____    ______ ____
ROOT
ATOM      1  N   UNL     1      31.937 -10.374 -21.423  0.00  0.00    +0.390 N 
ATOM      2  C   UNL     1      31.851  -7.625 -22.421  0.00  0.00    +0.076 C 
ATOM      3  C   UNL     1      32.710  -8.033 -21.225  0.00  0.00    -0.003 C 
ATOM      4  C   UNL     1      31.603  -8.831 -23.329  0.00  0.00    -0.003 C 
ATOM      5  C   UNL     1      32.117  -9.244 -20.503  0.00  0.00    -0.075 C 
ATOM      6  C   UNL     1      31.046 -10.016 -22.536  0.00  0.00    -0.075 C 
ATOM      7  H   UNL     1      32.849 -10.610 -21.814  0.00  0.00    -0.079 HD
ENDROOT
BRANCH   2   9
ATOM      8  O   UNL     1      34.384  -7.713 -23.916  0.00  0.00    -0.275 OA
ATOM      9  N   UNL     1      32.463  -6.548 -23.157  0.00  0.00    -0.260 N 
ATOM     10  C   UNL     1      33.701  -6.687 -23.855  0.00  0.00    +0.229 C 
BRANCH   9  11
ATOM     11  C   UNL     1      31.787  -5.253 -23.192  0.00  0.00    +0.054 C 
ATOM     12  C   UNL     1      31.884  -4.461 -22.086  0.00  0.00    +0.015 C 
ATOM     13  C   UNL     1      31.108  -4.925 -24.327  0.00  0.00    +0.015 C 
ATOM     14  C   UNL     1      31.239  -3.224 -22.120  0.00  0.00    +0.001 C 
ATOM     15  C   UNL     1      30.463  -3.688 -24.360  0.00  0.00    +0.001 C 
ATOM     16  C   UNL     1      30.529  -2.838 -23.256  0.00  0.00    +0.000 C 
ENDBRANCH   9  11
BRANCH  10  17
ATOM     17  C   UNL     1      34.205  -5.416 -24.533  0.00  0.00    +0.086 C 
ATOM     18  C   UNL     1      35.368  -5.673 -25.478  0.00  0.00    +0.010 C 
ENDBRANCH  10  17
ENDBRANCH   2   9
BRANCH   1  19
ATOM     19  C   UNL     1      31.417 -11.540 -20.708  0.00  0.00    -0.050 C 
BRANCH  19  20
ATOM     20  C   UNL     1      32.366 -12.708 -20.776  0.00  0.00    -0.043 C 
ATOM     21  C   UNL     1      33.268 -12.793 -21.827  0.00  0.00    -0.006 C 
ATOM     22  C   UNL     1      32.323 -13.682 -19.788  0.00  0.00    -0.006 C 
ATOM     23  C   UNL     1      34.147 -13.875 -21.891  0.00  0.00    -0.000 C 
ATOM     24  C   UNL     1      33.203 -14.763 -19.852  0.00  0.00    -0.000 C 
ATOM     25  C   UNL     1      34.114 -14.860 -20.903  0.00  0.00    -0.000 C 
ENDBRANCH  19  20
ENDBRANCH   1  19
TORSDOF 5
ENDMDL
