MODEL 1
REMARK VINA RESULT:     -12.1      0.000      0.000
REMARK  Name = 24941243
REMARK  5 active torsions:
REMARK  status: ('A' for Active; 'I' for Inactive)
REMARK    1  A    between atoms: N_1  and  C_14
REMARK    2  A    between atoms: N_2  and  C_22
REMARK    3  A    between atoms: C_25  and  O_28
REMARK    4  A    between atoms: C_26  and  O_30
REMARK    5  A    between atoms: C_27  and  O_32
REMARK                            x       y       z     vdW  Elec       q    Type
REMARK                         _______ _______ _______ _____ _____    ______ ____
ROOT
ATOM      1  N   UNL     1      36.182 -18.688 -21.623  0.00  0.00    -0.260 N 
ATOM      2  N   UNL     1      36.642 -21.424 -17.793  0.00  0.00    -0.247 N 
ATOM      3  N   UNL     1      36.435 -20.061 -19.692  0.00  0.00    -0.322 NA
ATOM      4  N   UNL     1      34.529 -21.235 -18.797  0.00  0.00    -0.170 NA
ATOM      5  C   UNL     1      35.629 -19.560 -20.651  0.00  0.00    +0.201 C 
ATOM      6  C   UNL     1      37.639 -18.681 -21.786  0.00  0.00    +0.120 C 
ATOM      7  C   UNL     1      34.282 -19.845 -20.748  0.00  0.00    +0.070 C 
ATOM      8  C   UNL     1      35.829 -20.879 -18.812  0.00  0.00    +0.150 C 
ATOM      9  C   UNL     1      33.782 -20.697 -19.784  0.00  0.00    +0.116 C 
ATOM     10  H   UNL     1      37.583 -21.137 -17.843  0.00  0.00    +0.165 HD
ENDROOT
BRANCH   1  14
ATOM     11  N   UNL     1      33.229 -15.404 -25.347  0.00  0.00    -0.280 N 
ATOM     12  N   UNL     1      33.663 -16.679 -25.321  0.00  0.00    -0.173 NA
ATOM     13  C   UNL     1      34.232 -15.541 -23.440  0.00  0.00    +0.032 A 
ATOM     14  C   UNL     1      35.498 -17.639 -22.293  0.00  0.00    +0.055 C 
ATOM     15  C   UNL     1      34.294 -16.801 -24.141  0.00  0.00    +0.103 A 
ATOM     16  C   UNL     1      33.545 -14.672 -24.240  0.00  0.00    +0.053 A 
ATOM     17  C   UNL     1      34.947 -17.907 -23.565  0.00  0.00    +0.036 C 
ATOM     18  C   UNL     1      34.762 -15.245 -22.190  0.00  0.00    +0.004 C 
ATOM     19  C   UNL     1      35.408 -16.369 -21.639  0.00  0.00    +0.015 C 
ATOM     20  C   UNL     1      33.152 -13.260 -24.100  0.00  0.00    +0.051 C 
ATOM     21  H   UNL     1      32.725 -15.030 -26.105  0.00  0.00    +0.189 HD
ENDBRANCH   1  14
BRANCH   2  22
ATOM     22  C   UNL     1      36.372 -22.296 -16.722  0.00  0.00    +0.064 C 
ATOM     23  C   UNL     1      37.400 -22.685 -15.865  0.00  0.00    +0.055 C 
ATOM     24  C   UNL     1      35.075 -22.768 -16.517  0.00  0.00    +0.055 C 
ATOM     25  C   UNL     1      34.807 -23.629 -15.454  0.00  0.00    +0.177 C 
ATOM     26  C   UNL     1      37.131 -23.548 -14.801  0.00  0.00    +0.177 C 
ATOM     27  C   UNL     1      35.835 -24.019 -14.596  0.00  0.00    +0.206 C 
BRANCH  25  28
ATOM     28  O   UNL     1      33.537 -24.083 -15.264  0.00  0.00    -0.468 OA
ATOM     29  C   UNL     1      32.481 -23.307 -15.825  0.00  0.00    +0.253 C 
ENDBRANCH  25  28
BRANCH  26  30
ATOM     30  O   UNL     1      38.146 -23.921 -13.971  0.00  0.00    -0.468 OA
ATOM     31  C   UNL     1      38.877 -25.091 -14.327  0.00  0.00    +0.253 C 
ENDBRANCH  26  30
BRANCH  27  32
ATOM     32  O   UNL     1      35.573 -24.863 -13.557  0.00  0.00    -0.465 OA
ATOM     33  C   UNL     1      35.192 -24.267 -12.319  0.00  0.00    +0.253 C 
ENDBRANCH  27  32
ENDBRANCH   2  22
TORSDOF 5
ENDMDL
MODEL 2
REMARK VINA RESULT:     -12.1      0.030      2.288
REMARK  Name = 24941243
REMARK  5 active torsions:
REMARK  status: ('A' for Active; 'I' for Inactive)
REMARK    1  A    between atoms: N_1  and  C_14
REMARK    2  A    between atoms: N_2  and  C_22
REMARK    3  A    between atoms: C_25  and  O_28
REMARK    4  A    between atoms: C_26  and  O_30
REMARK    5  A    between atoms: C_27  and  O_32
REMARK                            x       y       z     vdW  Elec       q    Type
REMARK                         _______ _______ _______ _____ _____    ______ ____
ROOT
ATOM      1  N   UNL     1      36.190 -18.695 -21.603  0.00  0.00    -0.260 N 
ATOM      2  N   UNL     1      36.652 -21.429 -17.772  0.00  0.00    -0.247 N 
ATOM      3  N   UNL     1      36.444 -20.067 -19.672  0.00  0.00    -0.322 NA
ATOM      4  N   UNL     1      34.540 -21.245 -18.779  0.00  0.00    -0.170 NA
ATOM      5  C   UNL     1      35.638 -19.568 -20.632  0.00  0.00    +0.201 C 
ATOM      6  C   UNL     1      37.648 -18.685 -21.765  0.00  0.00    +0.120 C 
ATOM      7  C   UNL     1      34.292 -19.857 -20.730  0.00  0.00    +0.070 C 
ATOM      8  C   UNL     1      35.839 -20.887 -18.792  0.00  0.00    +0.150 C 
ATOM      9  C   UNL     1      33.792 -20.710 -19.767  0.00  0.00    +0.116 C 
ATOM     10  H   UNL     1      37.592 -21.140 -17.821  0.00  0.00    +0.165 HD
ENDROOT
BRANCH   1  14
ATOM     11  N   UNL     1      33.242 -15.417 -25.336  0.00  0.00    -0.280 N 
ATOM     12  N   UNL     1      33.682 -16.690 -25.311  0.00  0.00    -0.173 NA
ATOM     13  C   UNL     1      34.233 -15.554 -23.424  0.00  0.00    +0.032 A 
ATOM     14  C   UNL     1      35.504 -17.648 -22.275  0.00  0.00    +0.055 C 
ATOM     15  C   UNL     1      34.308 -16.812 -24.127  0.00  0.00    +0.103 A 
ATOM     16  C   UNL     1      33.547 -14.686 -24.225  0.00  0.00    +0.053 A 
ATOM     17  C   UNL     1      34.963 -17.916 -23.551  0.00  0.00    +0.036 C 
ATOM     18  C   UNL     1      34.754 -15.259 -22.170  0.00  0.00    +0.004 C 
ATOM     19  C   UNL     1      35.403 -16.381 -21.618  0.00  0.00    +0.015 C 
ATOM     20  C   UNL     1      33.145 -13.277 -24.084  0.00  0.00    +0.051 C 
ATOM     21  H   UNL     1      32.740 -15.044 -26.096  0.00  0.00    +0.189 HD
ENDBRANCH   1  14
BRANCH   2  22
ATOM     22  C   UNL     1      36.383 -22.301 -16.701  0.00  0.00    +0.064 C 
ATOM     23  C   UNL     1      35.086 -22.767 -16.492  0.00  0.00    +0.055 C 
ATOM     24  C   UNL     1      37.414 -22.701 -15.851  0.00  0.00    +0.055 C 
ATOM     25  C   UNL     1      37.147 -23.568 -14.792  0.00  0.00    +0.177 C 
ATOM     26  C   UNL     1      34.819 -23.634 -15.432  0.00  0.00    +0.177 C 
ATOM     27  C   UNL     1      35.850 -24.035 -14.582  0.00  0.00    +0.206 C 
BRANCH  25  28
ATOM     28  O   UNL     1      38.163 -23.952 -13.969  0.00  0.00    -0.468 OA
ATOM     29  C   UNL     1      38.935 -25.080 -14.375  0.00  0.00    +0.253 C 
ENDBRANCH  25  28
BRANCH  26  30
ATOM     30  O   UNL     1      33.546 -24.082 -15.238  0.00  0.00    -0.468 OA
ATOM     31  C   UNL     1      32.499 -23.353 -15.874  0.00  0.00    +0.253 C 
ENDBRANCH  26  30
BRANCH  27  32
ATOM     32  O   UNL     1      35.588 -24.881 -13.545  0.00  0.00    -0.465 OA
ATOM     33  C   UNL     1      35.213 -24.288 -12.304  0.00  0.00    +0.253 C 
ENDBRANCH  27  32
ENDBRANCH   2  22
TORSDOF 5
ENDMDL
MODEL 3
REMARK VINA RESULT:     -10.1      1.606      2.213
REMARK  Name = 24941243
REMARK  5 active torsions:
REMARK  status: ('A' for Active; 'I' for Inactive)
REMARK    1  A    between atoms: N_1  and  C_14
REMARK    2  A    between atoms: N_2  and  C_22
REMARK    3  A    between atoms: C_25  and  O_28
REMARK    4  A    between atoms: C_26  and  O_30
REMARK    5  A    between atoms: C_27  and  O_32
REMARK                            x       y       z     vdW  Elec       q    Type
REMARK                         _______ _______ _______ _____ _____    ______ ____
ROOT
ATOM      1  N   UNL     1      35.719 -19.271 -21.158  0.00  0.00    -0.260 N 
ATOM      2  N   UNL     1      35.009 -22.041 -17.391  0.00  0.00    -0.247 N 
ATOM      3  N   UNL     1      35.382 -20.664 -19.254  0.00  0.00    -0.322 NA
ATOM      4  N   UNL     1      33.210 -21.623 -18.840  0.00  0.00    -0.170 NA
ATOM      5  C   UNL     1      34.871 -20.078 -20.357  0.00  0.00    +0.201 C 
ATOM      6  C   UNL     1      37.168 -19.422 -20.989  0.00  0.00    +0.120 C 
ATOM      7  C   UNL     1      33.559 -20.215 -20.761  0.00  0.00    +0.070 C 
ATOM      8  C   UNL     1      34.510 -21.411 -18.553  0.00  0.00    +0.150 C 
ATOM      9  C   UNL     1      32.767 -21.007 -19.955  0.00  0.00    +0.116 C 
ATOM     10  H   UNL     1      35.962 -21.858 -17.221  0.00  0.00    +0.165 HD
ENDROOT
BRANCH   1  14
ATOM     11  N   UNL     1      34.409 -14.012 -23.156  0.00  0.00    -0.280 N 
ATOM     12  N   UNL     1      34.866 -14.514 -21.992  0.00  0.00    -0.173 NA
ATOM     13  C   UNL     1      34.526 -16.131 -23.550  0.00  0.00    +0.032 A 
ATOM     14  C   UNL     1      35.320 -18.154 -21.939  0.00  0.00    +0.055 C 
ATOM     15  C   UNL     1      34.953 -15.839 -22.203  0.00  0.00    +0.103 A 
ATOM     16  C   UNL     1      34.186 -14.941 -24.129  0.00  0.00    +0.053 A 
ATOM     17  C   UNL     1      35.371 -16.873 -21.345  0.00  0.00    +0.036 C 
ATOM     18  C   UNL     1      34.466 -17.376 -24.163  0.00  0.00    +0.004 C 
ATOM     19  C   UNL     1      34.889 -18.391 -23.282  0.00  0.00    +0.015 C 
ATOM     20  C   UNL     1      33.683 -14.569 -25.462  0.00  0.00    +0.051 C 
ATOM     21  H   UNL     1      34.248 -13.050 -23.293  0.00  0.00    +0.189 HD
ENDBRANCH   1  14
BRANCH   2  22
ATOM     22  C   UNL     1      34.413 -22.878 -16.430  0.00  0.00    +0.064 C 
ATOM     23  C   UNL     1      35.194 -23.458 -15.432  0.00  0.00    +0.055 C 
ATOM     24  C   UNL     1      33.040 -23.126 -16.475  0.00  0.00    +0.055 C 
ATOM     25  C   UNL     1      32.450 -23.952 -15.521  0.00  0.00    +0.177 C 
ATOM     26  C   UNL     1      34.602 -24.287 -14.477  0.00  0.00    +0.177 C 
ATOM     27  C   UNL     1      33.230 -24.533 -14.522  0.00  0.00    +0.206 C 
BRANCH  25  28
ATOM     28  O   UNL     1      31.108 -24.186 -15.576  0.00  0.00    -0.468 OA
ATOM     29  C   UNL     1      30.266 -23.065 -15.833  0.00  0.00    +0.253 C 
ENDBRANCH  25  28
BRANCH  26  30
ATOM     30  O   UNL     1      35.377 -24.848 -13.506  0.00  0.00    -0.468 OA
ATOM     31  C   UNL     1      36.735 -25.123 -13.840  0.00  0.00    +0.253 C 
ENDBRANCH  26  30
BRANCH  27  32
ATOM     32  O   UNL     1      32.653 -25.343 -13.589  0.00  0.00    -0.465 OA
ATOM     33  C   UNL     1      31.606 -24.781 -12.802  0.00  0.00    +0.253 C 
ENDBRANCH  27  32
ENDBRANCH   2  22
TORSDOF 5
ENDMDL
MODEL 4
REMARK VINA RESULT:     -10.0      1.676      3.170
REMARK  Name = 24941243
REMARK  5 active torsions:
REMARK  status: ('A' for Active; 'I' for Inactive)
REMARK    1  A    between atoms: N_1  and  C_14
REMARK    2  A    between atoms: N_2  and  C_22
REMARK    3  A    between atoms: C_25  and  O_28
REMARK    4  A    between atoms: C_26  and  O_30
REMARK    5  A    between atoms: C_27  and  O_32
REMARK                            x       y       z     vdW  Elec       q    Type
REMARK                         _______ _______ _______ _____ _____    ______ ____
ROOT
ATOM      1  N   UNL     1      35.706 -19.244 -21.169  0.00  0.00    -0.260 N 
ATOM      2  N   UNL     1      35.000 -22.027 -17.411  0.00  0.00    -0.247 N 
ATOM      3  N   UNL     1      35.371 -20.644 -19.269  0.00  0.00    -0.322 NA
ATOM      4  N   UNL     1      33.190 -21.575 -18.836  0.00  0.00    -0.170 NA
ATOM      5  C   UNL     1      34.856 -20.044 -20.363  0.00  0.00    +0.201 C 
ATOM      6  C   UNL     1      37.154 -19.417 -21.018  0.00  0.00    +0.120 C 
ATOM      7  C   UNL     1      33.537 -20.160 -20.752  0.00  0.00    +0.070 C 
ATOM      8  C   UNL     1      34.496 -21.383 -18.563  0.00  0.00    +0.150 C 
ATOM      9  C   UNL     1      32.743 -20.946 -19.942  0.00  0.00    +0.116 C 
ATOM     10  H   UNL     1      35.957 -21.859 -17.251  0.00  0.00    +0.165 HD
ENDROOT
BRANCH   1  14
ATOM     11  N   UNL     1      34.405 -13.960 -23.105  0.00  0.00    -0.280 N 
ATOM     12  N   UNL     1      34.847 -14.478 -21.943  0.00  0.00    -0.173 NA
ATOM     13  C   UNL     1      34.536 -16.072 -23.530  0.00  0.00    +0.032 A 
ATOM     14  C   UNL     1      35.313 -18.116 -21.938  0.00  0.00    +0.055 C 
ATOM     15  C   UNL     1      34.942 -15.799 -22.172  0.00  0.00    +0.103 A 
ATOM     16  C   UNL     1      34.199 -14.875 -24.096  0.00  0.00    +0.053 A 
ATOM     17  C   UNL     1      35.351 -16.845 -21.325  0.00  0.00    +0.036 C 
ATOM     18  C   UNL     1      34.488 -17.308 -24.162  0.00  0.00    +0.004 C 
ATOM     19  C   UNL     1      34.903 -18.335 -23.291  0.00  0.00    +0.015 C 
ATOM     20  C   UNL     1      33.714 -14.484 -25.430  0.00  0.00    +0.051 C 
ATOM     21  H   UNL     1      34.242 -12.997 -23.229  0.00  0.00    +0.189 HD
ENDBRANCH   1  14
BRANCH   2  22
ATOM     22  C   UNL     1      34.403 -22.862 -16.448  0.00  0.00    +0.064 C 
ATOM     23  C   UNL     1      33.041 -23.147 -16.522  0.00  0.00    +0.055 C 
ATOM     24  C   UNL     1      35.175 -23.405 -15.421  0.00  0.00    +0.055 C 
ATOM     25  C   UNL     1      34.584 -24.235 -14.469  0.00  0.00    +0.177 C 
ATOM     26  C   UNL     1      32.449 -23.977 -15.569  0.00  0.00    +0.177 C 
ATOM     27  C   UNL     1      33.221 -24.521 -14.543  0.00  0.00    +0.206 C 
BRANCH  25  28
ATOM     28  O   UNL     1      35.349 -24.760 -13.471  0.00  0.00    -0.468 OA
ATOM     29  C   UNL     1      35.659 -23.903 -12.374  0.00  0.00    +0.253 C 
ENDBRANCH  25  28
BRANCH  26  30
ATOM     30  O   UNL     1      31.116 -24.248 -15.653  0.00  0.00    -0.468 OA
ATOM     31  C   UNL     1      30.228 -23.133 -15.667  0.00  0.00    +0.253 C 
ENDBRANCH  26  30
BRANCH  27  32
ATOM     32  O   UNL     1      32.643 -25.331 -13.610  0.00  0.00    -0.465 OA
ATOM     33  C   UNL     1      31.720 -24.724 -12.708  0.00  0.00    +0.253 C 
ENDBRANCH  27  32
ENDBRANCH   2  22
TORSDOF 5
ENDMDL
MODEL 5
REMARK VINA RESULT:      -9.9      6.007     11.721
REMARK  Name = 24941243
REMARK  5 active torsions:
REMARK  status: ('A' for Active; 'I' for Inactive)
REMARK    1  A    between atoms: N_1  and  C_14
REMARK    2  A    between atoms: N_2  and  C_22
REMARK    3  A    between atoms: C_25  and  O_28
REMARK    4  A    between atoms: C_26  and  O_30
REMARK    5  A    between atoms: C_27  and  O_32
REMARK                            x       y       z     vdW  Elec       q    Type
REMARK                         _______ _______ _______ _____ _____    ______ ____
ROOT
ATOM      1  N   UNL     1      35.104 -17.646 -22.008  0.00  0.00    -0.260 N 
ATOM      2  N   UNL     1      33.616 -13.278 -23.042  0.00  0.00    -0.247 N 
ATOM      3  N   UNL     1      34.351 -15.451 -22.550  0.00  0.00    -0.322 NA
ATOM      4  N   UNL     1      34.239 -13.764 -20.832  0.00  0.00    -0.170 NA
ATOM      5  C   UNL     1      34.805 -16.316 -21.619  0.00  0.00    +0.201 C 
ATOM      6  C   UNL     1      35.288 -17.916 -23.438  0.00  0.00    +0.120 C 
ATOM      7  C   UNL     1      34.999 -15.984 -20.293  0.00  0.00    +0.070 C 
ATOM      8  C   UNL     1      34.092 -14.211 -22.095  0.00  0.00    +0.150 C 
ATOM      9  C   UNL     1      34.696 -14.681 -19.954  0.00  0.00    +0.116 C 
ATOM     10  H   UNL     1      33.524 -13.648 -23.950  0.00  0.00    +0.165 HD
ENDROOT
BRANCH   1  14
ATOM     11  N   UNL     1      36.108 -22.155 -18.541  0.00  0.00    -0.280 N 
ATOM     12  N   UNL     1      36.857 -21.185 -19.099  0.00  0.00    -0.173 NA
ATOM     13  C   UNL     1      34.662 -21.005 -19.657  0.00  0.00    +0.032 A 
ATOM     14  C   UNL     1      35.008 -18.801 -21.187  0.00  0.00    +0.055 C 
ATOM     15  C   UNL     1      35.984 -20.444 -19.805  0.00  0.00    +0.103 A 
ATOM     16  C   UNL     1      34.779 -22.096 -18.843  0.00  0.00    +0.053 A 
ATOM     17  C   UNL     1      36.190 -19.299 -20.596  0.00  0.00    +0.036 C 
ATOM     18  C   UNL     1      33.482 -20.540 -20.224  0.00  0.00    +0.004 C 
ATOM     19  C   UNL     1      33.719 -19.394 -21.008  0.00  0.00    +0.015 C 
ATOM     20  C   UNL     1      33.816 -23.079 -18.321  0.00  0.00    +0.051 C 
ATOM     21  H   UNL     1      36.490 -22.853 -17.960  0.00  0.00    +0.189 HD
ENDBRANCH   1  14
BRANCH   2  22
ATOM     22  C   UNL     1      33.247 -11.924 -22.943  0.00  0.00    +0.064 C 
ATOM     23  C   UNL     1      32.166 -11.553 -22.144  0.00  0.00    +0.055 C 
ATOM     24  C   UNL     1      33.963 -10.952 -23.643  0.00  0.00    +0.055 C 
ATOM     25  C   UNL     1      33.599  -9.610 -23.542  0.00  0.00    +0.177 C 
ATOM     26  C   UNL     1      31.802 -10.210 -22.044  0.00  0.00    +0.177 C 
ATOM     27  C   UNL     1      32.519  -9.238 -22.742  0.00  0.00    +0.206 C 
BRANCH  25  28
ATOM     28  O   UNL     1      34.308  -8.671 -24.229  0.00  0.00    -0.468 OA
ATOM     29  C   UNL     1      35.415  -8.074 -23.558  0.00  0.00    +0.253 C 
ENDBRANCH  25  28
BRANCH  26  30
ATOM     30  O   UNL     1      30.743  -9.861 -21.259  0.00  0.00    -0.468 OA
ATOM     31  C   UNL     1      30.725 -10.375 -19.930  0.00  0.00    +0.253 C 
ENDBRANCH  26  30
BRANCH  27  32
ATOM     32  O   UNL     1      32.162  -7.926 -22.645  0.00  0.00    -0.465 OA
ATOM     33  C   UNL     1      31.183  -7.451 -23.566  0.00  0.00    +0.253 C 
ENDBRANCH  27  32
ENDBRANCH   2  22
TORSDOF 5
ENDMDL
MODEL 6
REMARK VINA RESULT:      -9.9      6.013     11.608
REMARK  Name = 24941243
REMARK  5 active torsions:
REMARK  status: ('A' for Active; 'I' for Inactive)
REMARK    1  A    between atoms: N_1  and  C_14
REMARK    2  A    between atoms: N_2  and  C_22
REMARK    3  A    between atoms: C_25  and  O_28
REMARK    4  A    between atoms: C_26  and  O_30
REMARK    5  A    between atoms: C_27  and  O_32
REMARK                            x       y       z     vdW  Elec       q    Type
REMARK                         _______ _______ _______ _____ _____    ______ ____
ROOT
ATOM      1  N   UNL     1      35.104 -17.636 -21.977  0.00  0.00    -0.260 N 
ATOM      2  N   UNL     1      33.616 -13.265 -23.003  0.00  0.00    -0.247 N 
ATOM      3  N   UNL     1      34.351 -15.440 -22.515  0.00  0.00    -0.322 NA
ATOM      4  N   UNL     1      34.232 -13.758 -20.792  0.00  0.00    -0.170 NA
ATOM      5  C   UNL     1      34.802 -16.307 -21.584  0.00  0.00    +0.201 C 
ATOM      6  C   UNL     1      35.293 -17.901 -23.407  0.00  0.00    +0.120 C 
ATOM      7  C   UNL     1      34.991 -15.979 -20.257  0.00  0.00    +0.070 C 
ATOM      8  C   UNL     1      34.090 -14.201 -22.056  0.00  0.00    +0.150 C 
ATOM      9  C   UNL     1      34.686 -14.677 -19.915  0.00  0.00    +0.116 C 
ATOM     10  H   UNL     1      33.528 -13.633 -23.912  0.00  0.00    +0.165 HD
ENDROOT
BRANCH   1  14
ATOM     11  N   UNL     1      36.102 -22.169 -18.539  0.00  0.00    -0.280 N 
ATOM     12  N   UNL     1      36.853 -21.203 -19.102  0.00  0.00    -0.173 NA
ATOM     13  C   UNL     1      34.655 -21.001 -19.636  0.00  0.00    +0.032 A 
ATOM     14  C   UNL     1      35.006 -18.793 -21.160  0.00  0.00    +0.055 C 
ATOM     15  C   UNL     1      35.981 -20.452 -19.795  0.00  0.00    +0.103 A 
ATOM     16  C   UNL     1      34.770 -22.097 -18.829  0.00  0.00    +0.053 A 
ATOM     17  C   UNL     1      36.189 -19.304 -20.583  0.00  0.00    +0.036 C 
ATOM     18  C   UNL     1      33.474 -20.523 -20.189  0.00  0.00    +0.004 C 
ATOM     19  C   UNL     1      33.713 -19.375 -20.970  0.00  0.00    +0.015 C 
ATOM     20  C   UNL     1      33.803 -23.073 -18.300  0.00  0.00    +0.051 C 
ATOM     21  H   UNL     1      36.483 -22.873 -17.966  0.00  0.00    +0.189 HD
ENDBRANCH   1  14
BRANCH   2  22
ATOM     22  C   UNL     1      33.246 -11.912 -22.900  0.00  0.00    +0.064 C 
ATOM     23  C   UNL     1      33.947 -10.942 -23.616  0.00  0.00    +0.055 C 
ATOM     24  C   UNL     1      32.176 -11.540 -22.085  0.00  0.00    +0.055 C 
ATOM     25  C   UNL     1      31.807 -10.200 -21.987  0.00  0.00    +0.177 C 
ATOM     26  C   UNL     1      33.578  -9.600 -23.516  0.00  0.00    +0.177 C 
ATOM     27  C   UNL     1      32.508  -9.229 -22.703  0.00  0.00    +0.206 C 
BRANCH  25  28
ATOM     28  O   UNL     1      30.760  -9.850 -21.188  0.00  0.00    -0.468 OA
ATOM     29  C   UNL     1      30.779 -10.333 -19.847  0.00  0.00    +0.253 C 
ENDBRANCH  25  28
BRANCH  26  30
ATOM     30  O   UNL     1      34.272  -8.662 -24.221  0.00  0.00    -0.468 OA
ATOM     31  C   UNL     1      35.391  -8.061 -23.573  0.00  0.00    +0.253 C 
ENDBRANCH  26  30
BRANCH  27  32
ATOM     32  O   UNL     1      32.148  -7.917 -22.605  0.00  0.00    -0.465 OA
ATOM     33  C   UNL     1      31.144  -7.452 -23.504  0.00  0.00    +0.253 C 
ENDBRANCH  27  32
ENDBRANCH   2  22
TORSDOF 5
ENDMDL
MODEL 7
REMARK VINA RESULT:      -9.3      8.828     14.871
REMARK  Name = 24941243
REMARK  5 active torsions:
REMARK  status: ('A' for Active; 'I' for Inactive)
REMARK    1  A    between atoms: N_1  and  C_14
REMARK    2  A    between atoms: N_2  and  C_22
REMARK    3  A    between atoms: C_25  and  O_28
REMARK    4  A    between atoms: C_26  and  O_30
REMARK    5  A    between atoms: C_27  and  O_32
REMARK                            x       y       z     vdW  Elec       q    Type
REMARK                         _______ _______ _______ _____ _____    ______ ____
ROOT
ATOM      1  N   UNL     1      32.650 -12.665 -21.367  0.00  0.00    -0.260 N 
ATOM      2  N   UNL     1      32.174  -8.013 -22.067  0.00  0.00    -0.247 N 
ATOM      3  N   UNL     1      32.406 -10.318 -21.698  0.00  0.00    -0.322 NA
ATOM      4  N   UNL     1      32.697  -9.382 -23.901  0.00  0.00    -0.170 NA
ATOM      5  C   UNL     1      32.663 -11.535 -22.223  0.00  0.00    +0.201 C 
ATOM      6  C   UNL     1      31.986 -12.532 -20.066  0.00  0.00    +0.120 C 
ATOM      7  C   UNL     1      32.941 -11.752 -23.557  0.00  0.00    +0.070 C 
ATOM      8  C   UNL     1      32.439  -9.302 -22.581  0.00  0.00    +0.150 C 
ATOM      9  C   UNL     1      32.944 -10.628 -24.357  0.00  0.00    +0.116 C 
ATOM     10  H   UNL     1      31.991  -8.002 -21.100  0.00  0.00    +0.165 HD
ENDROOT
BRANCH   1  14
ATOM     11  N   UNL     1      35.509 -17.260 -23.389  0.00  0.00    -0.280 N 
ATOM     12  N   UNL     1      34.788 -16.259 -23.930  0.00  0.00    -0.173 NA
ATOM     13  C   UNL     1      34.909 -16.103 -21.668  0.00  0.00    +0.032 A 
ATOM     14  C   UNL     1      33.422 -13.847 -21.528  0.00  0.00    +0.055 C 
ATOM     15  C   UNL     1      34.397 -15.514 -22.882  0.00  0.00    +0.103 A 
ATOM     16  C   UNL     1      35.613 -17.216 -22.029  0.00  0.00    +0.053 A 
ATOM     17  C   UNL     1      33.622 -14.340 -22.836  0.00  0.00    +0.036 C 
ATOM     18  C   UNL     1      34.731 -15.642 -20.369  0.00  0.00    +0.004 C 
ATOM     19  C   UNL     1      33.953 -14.469 -20.354  0.00  0.00    +0.015 C 
ATOM     20  C   UNL     1      36.362 -18.232 -21.271  0.00  0.00    +0.051 C 
ATOM     21  H   UNL     1      35.926 -17.968 -23.931  0.00  0.00    +0.189 HD
ENDBRANCH   1  14
BRANCH   2  22
ATOM     22  C   UNL     1      32.120  -6.741 -22.668  0.00  0.00    +0.064 C 
ATOM     23  C   UNL     1      31.089  -5.861 -22.343  0.00  0.00    +0.055 C 
ATOM     24  C   UNL     1      33.100  -6.360 -23.586  0.00  0.00    +0.055 C 
ATOM     25  C   UNL     1      33.047  -5.099 -24.177  0.00  0.00    +0.177 C 
ATOM     26  C   UNL     1      31.036  -4.599 -22.936  0.00  0.00    +0.177 C 
ATOM     27  C   UNL     1      32.016  -4.218 -23.853  0.00  0.00    +0.206 C 
BRANCH  25  28
ATOM     28  O   UNL     1      34.010  -4.739 -25.072  0.00  0.00    -0.468 OA
ATOM     29  C   UNL     1      35.056  -5.678 -25.310  0.00  0.00    +0.253 C 
ENDBRANCH  25  28
BRANCH  26  30
ATOM     30  O   UNL     1      30.022  -3.749 -22.610  0.00  0.00    -0.468 OA
ATOM     31  C   UNL     1      30.278  -2.802 -21.576  0.00  0.00    +0.253 C 
ENDBRANCH  26  30
BRANCH  27  32
ATOM     32  O   UNL     1      31.964  -2.986 -24.433  0.00  0.00    -0.465 OA
ATOM     33  C   UNL     1      31.210  -2.868 -25.637  0.00  0.00    +0.253 C 
ENDBRANCH  27  32
ENDBRANCH   2  22
TORSDOF 5
ENDMDL
MODEL 8
REMARK VINA RESULT:      -9.3      8.833     14.769
REMARK  Name = 24941243
REMARK  5 active torsions:
REMARK  status: ('A' for Active; 'I' for Inactive)
REMARK    1  A    between atoms: N_1  and  C_14
REMARK    2  A    between atoms: N_2  and  C_22
REMARK    3  A    between atoms: C_25  and  O_28
REMARK    4  A    between atoms: C_26  and  O_30
REMARK    5  A    between atoms: C_27  and  O_32
REMARK                            x       y       z     vdW  Elec       q    Type
REMARK                         _______ _______ _______ _____ _____    ______ ____
ROOT
ATOM      1  N   UNL     1      32.665 -12.654 -21.382  0.00  0.00    -0.260 N 
ATOM      2  N   UNL     1      32.195  -8.005 -22.103  0.00  0.00    -0.247 N 
ATOM      3  N   UNL     1      32.424 -10.308 -21.723  0.00  0.00    -0.322 NA
ATOM      4  N   UNL     1      32.722  -9.382 -23.928  0.00  0.00    -0.170 NA
ATOM      5  C   UNL     1      32.681 -11.527 -22.242  0.00  0.00    +0.201 C 
ATOM      6  C   UNL     1      31.996 -12.515 -20.084  0.00  0.00    +0.120 C 
ATOM      7  C   UNL     1      32.964 -11.751 -23.574  0.00  0.00    +0.070 C 
ATOM      8  C   UNL     1      32.460  -9.296 -22.610  0.00  0.00    +0.150 C 
ATOM      9  C   UNL     1      32.971 -10.629 -24.379  0.00  0.00    +0.116 C 
ATOM     10  H   UNL     1      32.009  -7.990 -21.136  0.00  0.00    +0.165 HD
ENDROOT
BRANCH   1  14
ATOM     11  N   UNL     1      35.502 -17.275 -23.372  0.00  0.00    -0.280 N 
ATOM     12  N   UNL     1      34.773 -16.284 -23.919  0.00  0.00    -0.173 NA
ATOM     13  C   UNL     1      34.925 -16.093 -21.661  0.00  0.00    +0.032 A 
ATOM     14  C   UNL     1      33.436 -13.837 -21.535  0.00  0.00    +0.055 C 
ATOM     15  C   UNL     1      34.395 -15.523 -22.877  0.00  0.00    +0.103 A 
ATOM     16  C   UNL     1      35.626 -17.211 -22.014  0.00  0.00    +0.053 A 
ATOM     17  C   UNL     1      33.619 -14.351 -22.838  0.00  0.00    +0.036 C 
ATOM     18  C   UNL     1      34.764 -15.613 -20.367  0.00  0.00    +0.004 C 
ATOM     19  C   UNL     1      33.984 -14.440 -20.359  0.00  0.00    +0.015 C 
ATOM     20  C   UNL     1      36.387 -18.214 -21.251  0.00  0.00    +0.051 C 
ATOM     21  H   UNL     1      35.914 -17.991 -23.909  0.00  0.00    +0.189 HD
ENDBRANCH   1  14
BRANCH   2  22
ATOM     22  C   UNL     1      32.143  -6.735 -22.708  0.00  0.00    +0.064 C 
ATOM     23  C   UNL     1      33.110  -6.370 -23.644  0.00  0.00    +0.055 C 
ATOM     24  C   UNL     1      31.124  -5.843 -22.374  0.00  0.00    +0.055 C 
ATOM     25  C   UNL     1      31.072  -4.587 -22.977  0.00  0.00    +0.177 C 
ATOM     26  C   UNL     1      33.058  -5.113 -24.246  0.00  0.00    +0.177 C 
ATOM     27  C   UNL     1      32.038  -4.222 -23.913  0.00  0.00    +0.206 C 
BRANCH  25  28
ATOM     28  O   UNL     1      30.071  -3.725 -22.642  0.00  0.00    -0.468 OA
ATOM     29  C   UNL     1      30.357  -2.762 -21.630  0.00  0.00    +0.253 C 
ENDBRANCH  25  28
BRANCH  26  30
ATOM     30  O   UNL     1      34.010  -4.769 -25.159  0.00  0.00    -0.468 OA
ATOM     31  C   UNL     1      35.150  -5.618 -25.258  0.00  0.00    +0.253 C 
ENDBRANCH  26  30
BRANCH  27  32
ATOM     32  O   UNL     1      31.988  -2.992 -24.501  0.00  0.00    -0.465 OA
ATOM     33  C   UNL     1      31.208  -2.874 -25.688  0.00  0.00    +0.253 C 
ENDBRANCH  27  32
ENDBRANCH   2  22
TORSDOF 5
ENDMDL
