MODEL 1
REMARK VINA RESULT:     -11.8      0.000      0.000
REMARK  Name = 24748573
REMARK  3 active torsions:
REMARK  status: ('A' for Active; 'I' for Inactive)
REMARK    1  A    between atoms: N_2  and  C_18
REMARK    2  A    between atoms: C_13  and  C_25
REMARK    3  A    between atoms: C_25  and  O_26
REMARK                            x       y       z     vdW  Elec       q    Type
REMARK                         _______ _______ _______ _____ _____    ______ ____
ROOT
ATOM      1  N   UNL     1      34.521 -23.122 -16.470  0.00  0.00    -0.391 NA
ATOM      2  N   UNL     1      32.813 -22.463 -17.941  0.00  0.00    -0.288 N 
ATOM      3  N   UNL     1      30.285 -23.800 -13.781  0.00  0.00    -0.243 NA
ATOM      4  C   UNL     1      34.044 -23.903 -14.233  0.00  0.00    +0.098 C 
ATOM      5  C   UNL     1      32.643 -23.717 -14.471  0.00  0.00    +0.011 C 
ATOM      6  C   UNL     1      32.220 -23.231 -15.721  0.00  0.00    +0.044 C 
ATOM      7  C   UNL     1      34.937 -23.585 -15.282  0.00  0.00    +0.119 C 
ATOM      8  C   UNL     1      33.196 -22.956 -16.668  0.00  0.00    +0.183 C 
ATOM      9  C   UNL     1      34.586 -24.386 -13.016  0.00  0.00    -0.015 C 
ATOM     10  C   UNL     1      36.305 -23.756 -15.084  0.00  0.00    +0.035 C 
ATOM     11  C   UNL     1      30.859 -23.035 -15.991  0.00  0.00    +0.024 C 
ATOM     12  C   UNL     1      31.609 -23.978 -13.552  0.00  0.00    +0.095 C 
ATOM     13  C   UNL     1      36.820 -24.232 -13.879  0.00  0.00    +0.077 C 
ATOM     14  C   UNL     1      35.959 -24.547 -12.842  0.00  0.00    +0.003 C 
ATOM     15  C   UNL     1      29.944 -23.333 -14.997  0.00  0.00    +0.099 C 
ATOM     16  H   UNL     1      31.925 -22.773 -18.235  0.00  0.00    +0.155 HD
ENDROOT
BRANCH   2  18
ATOM     17 CL   UNL     1      37.202 -20.669 -19.881  0.00  0.00    -0.082 Cl
ATOM     18  C   UNL     1      33.453 -21.622 -18.862  0.00  0.00    +0.051 C 
ATOM     19  C   UNL     1      34.847 -21.568 -18.906  0.00  0.00    +0.026 C 
ATOM     20  C   UNL     1      32.697 -20.841 -19.737  0.00  0.00    +0.015 C 
ATOM     21  C   UNL     1      35.484 -20.734 -19.826  0.00  0.00    +0.059 C 
ATOM     22  C   UNL     1      33.335 -20.007 -20.656  0.00  0.00    +0.002 C 
ATOM     23  C   UNL     1      34.728 -19.954 -20.700  0.00  0.00    +0.011 C 
ENDBRANCH   2  18
BRANCH  13  25
ATOM     24  O   UNL     1      38.827 -24.669 -12.652  0.00  0.00    -0.245 OA
ATOM     25  C   UNL     1      38.255 -24.394 -13.712  0.00  0.00    +0.338 C 
BRANCH  25  26
ATOM     26  O   UNL     1      38.939 -24.210 -14.875  0.00  0.00    -0.477 OA
ATOM     27  H   UNL     1      38.648 -23.569 -15.494  0.00  0.00    +0.295 HD
ENDBRANCH  25  26
ENDBRANCH  13  25
TORSDOF 3
ENDMDL
MODEL 2
REMARK VINA RESULT:     -11.1      1.571      2.321
REMARK  Name = 24748573
REMARK  3 active torsions:
REMARK  status: ('A' for Active; 'I' for Inactive)
REMARK    1  A    between atoms: N_2  and  C_18
REMARK    2  A    between atoms: C_13  and  C_25
REMARK    3  A    between atoms: C_25  and  O_26
REMARK                            x       y       z     vdW  Elec       q    Type
REMARK                         _______ _______ _______ _____ _____    ______ ____
ROOT
ATOM      1  N   UNL     1      36.097 -23.601 -15.941  0.00  0.00    -0.391 NA
ATOM      2  N   UNL     1      34.261 -22.714 -17.107  0.00  0.00    -0.288 N 
ATOM      3  N   UNL     1      32.309 -23.845 -12.591  0.00  0.00    -0.243 NA
ATOM      4  C   UNL     1      35.904 -24.373 -13.658  0.00  0.00    +0.098 C 
ATOM      5  C   UNL     1      34.515 -24.019 -13.661  0.00  0.00    +0.011 C 
ATOM      6  C   UNL     1      33.953 -23.459 -14.822  0.00  0.00    +0.044 C 
ATOM      7  C   UNL     1      36.645 -24.136 -14.839  0.00  0.00    +0.119 C 
ATOM      8  C   UNL     1      34.787 -23.277 -15.916  0.00  0.00    +0.183 C 
ATOM      9  C   UNL     1      36.577 -24.943 -12.550  0.00  0.00    -0.015 C 
ATOM     10  C   UNL     1      37.997 -24.469 -14.871  0.00  0.00    +0.035 C 
ATOM     11  C   UNL     1      32.599 -23.100 -14.862  0.00  0.00    +0.024 C 
ATOM     12  C   UNL     1      33.622 -24.180 -12.584  0.00  0.00    +0.095 C 
ATOM     13  C   UNL     1      38.642 -25.029 -13.770  0.00  0.00    +0.077 C 
ATOM     14  C   UNL     1      37.931 -25.267 -12.606  0.00  0.00    +0.003 C 
ATOM     15  C   UNL     1      31.831 -23.313 -13.733  0.00  0.00    +0.099 C 
ATOM     16  H   UNL     1      33.308 -22.911 -17.251  0.00  0.00    +0.155 HD
ENDROOT
BRANCH   2  18
ATOM     17 CL   UNL     1      33.607 -19.860 -21.311  0.00  0.00    -0.082 Cl
ATOM     18  C   UNL     1      34.837 -21.931 -18.118  0.00  0.00    +0.051 C 
ATOM     19  C   UNL     1      34.030 -21.354 -19.099  0.00  0.00    +0.026 C 
ATOM     20  C   UNL     1      36.218 -21.727 -18.142  0.00  0.00    +0.015 C 
ATOM     21  C   UNL     1      34.602 -20.572 -20.102  0.00  0.00    +0.059 C 
ATOM     22  C   UNL     1      36.789 -20.945 -19.146  0.00  0.00    +0.002 C 
ATOM     23  C   UNL     1      35.981 -20.368 -20.125  0.00  0.00    +0.011 C 
ENDBRANCH   2  18
BRANCH  13  25
ATOM     24  O   UNL     1      40.952 -24.599 -14.224  0.00  0.00    -0.245 OA
ATOM     25  C   UNL     1      40.056 -25.361 -13.843  0.00  0.00    +0.338 C 
BRANCH  25  26
ATOM     26  O   UNL     1      40.314 -26.635 -13.438  0.00  0.00    -0.477 OA
ATOM     27  H   UNL     1      39.759 -27.336 -13.716  0.00  0.00    +0.295 HD
ENDBRANCH  25  26
ENDBRANCH  13  25
TORSDOF 3
ENDMDL
MODEL 3
REMARK VINA RESULT:     -10.5      3.975      6.829
REMARK  Name = 24748573
REMARK  3 active torsions:
REMARK  status: ('A' for Active; 'I' for Inactive)
REMARK    1  A    between atoms: N_2  and  C_18
REMARK    2  A    between atoms: C_13  and  C_25
REMARK    3  A    between atoms: C_25  and  O_26
REMARK                            x       y       z     vdW  Elec       q    Type
REMARK                         _______ _______ _______ _____ _____    ______ ____
ROOT
ATOM      1  N   UNL     1      33.641 -22.729 -17.362  0.00  0.00    -0.391 NA
ATOM      2  N   UNL     1      33.029 -24.052 -15.521  0.00  0.00    -0.288 N 
ATOM      3  N   UNL     1      37.896 -23.049 -14.637  0.00  0.00    -0.243 NA
ATOM      4  C   UNL     1      35.882 -21.859 -17.616  0.00  0.00    +0.098 C 
ATOM      5  C   UNL     1      36.262 -22.493 -16.388  0.00  0.00    +0.011 C 
ATOM      6  C   UNL     1      35.304 -23.235 -15.675  0.00  0.00    +0.044 C 
ATOM      7  C   UNL     1      34.546 -22.017 -18.051  0.00  0.00    +0.119 C 
ATOM      8  C   UNL     1      34.026 -23.315 -16.209  0.00  0.00    +0.183 C 
ATOM      9  C   UNL     1      36.760 -21.089 -18.418  0.00  0.00    -0.015 C 
ATOM     10  C   UNL     1      34.144 -21.416 -19.241  0.00  0.00    +0.035 C 
ATOM     11  C   UNL     1      35.638 -23.868 -14.471  0.00  0.00    +0.024 C 
ATOM     12  C   UNL     1      37.540 -22.448 -15.799  0.00  0.00    +0.095 C 
ATOM     13  C   UNL     1      35.021 -20.661 -20.017  0.00  0.00    +0.077 C 
ATOM     14  C   UNL     1      36.333 -20.496 -19.605  0.00  0.00    +0.003 C 
ATOM     15  C   UNL     1      36.933 -23.745 -14.003  0.00  0.00    +0.099 C 
ATOM     16  H   UNL     1      33.383 -24.808 -14.998  0.00  0.00    +0.155 HD
ENDROOT
BRANCH   2  18
ATOM     17 CL   UNL     1      28.556 -25.908 -13.847  0.00  0.00    -0.082 Cl
ATOM     18  C   UNL     1      31.635 -23.915 -15.443  0.00  0.00    +0.051 C 
ATOM     19  C   UNL     1      30.876 -24.870 -14.765  0.00  0.00    +0.026 C 
ATOM     20  C   UNL     1      31.006 -22.821 -16.040  0.00  0.00    +0.015 C 
ATOM     21  C   UNL     1      29.491 -24.731 -14.684  0.00  0.00    +0.059 C 
ATOM     22  C   UNL     1      29.621 -22.683 -15.958  0.00  0.00    +0.002 C 
ATOM     23  C   UNL     1      28.864 -23.638 -15.280  0.00  0.00    +0.011 C 
ENDBRANCH   2  18
BRANCH  13  25
ATOM     24  O   UNL     1      35.289 -19.615 -22.152  0.00  0.00    -0.245 OA
ATOM     25  C   UNL     1      34.561 -20.048 -21.252  0.00  0.00    +0.338 C 
BRANCH  25  26
ATOM     26  O   UNL     1      33.203 -19.993 -21.332  0.00  0.00    -0.477 OA
ATOM     27  H   UNL     1      32.793 -19.622 -22.089  0.00  0.00    +0.295 HD
ENDBRANCH  25  26
ENDBRANCH  13  25
TORSDOF 3
ENDMDL
MODEL 4
REMARK VINA RESULT:     -10.3      3.268      6.080
REMARK  Name = 24748573
REMARK  3 active torsions:
REMARK  status: ('A' for Active; 'I' for Inactive)
REMARK    1  A    between atoms: N_2  and  C_18
REMARK    2  A    between atoms: C_13  and  C_25
REMARK    3  A    between atoms: C_25  and  O_26
REMARK                            x       y       z     vdW  Elec       q    Type
REMARK                         _______ _______ _______ _____ _____    ______ ____
ROOT
ATOM      1  N   UNL     1      33.986 -23.678 -15.319  0.00  0.00    -0.391 NA
ATOM      2  N   UNL     1      32.794 -24.864 -13.680  0.00  0.00    -0.288 N 
ATOM      3  N   UNL     1      37.128 -23.737 -11.349  0.00  0.00    -0.243 NA
ATOM      4  C   UNL     1      36.200 -22.803 -14.901  0.00  0.00    +0.098 C 
ATOM      5  C   UNL     1      36.155 -23.337 -13.571  0.00  0.00    +0.011 C 
ATOM      6  C   UNL     1      35.008 -24.034 -13.152  0.00  0.00    +0.044 C 
ATOM      7  C   UNL     1      35.074 -23.010 -15.731  0.00  0.00    +0.119 C 
ATOM      8  C   UNL     1      33.969 -24.169 -14.062  0.00  0.00    +0.183 C 
ATOM      9  C   UNL     1      37.300 -22.086 -15.432  0.00  0.00    -0.015 C 
ATOM     10  C   UNL     1      35.086 -22.506 -17.029  0.00  0.00    +0.035 C 
ATOM     11  C   UNL     1      34.927 -24.569 -11.859  0.00  0.00    +0.024 C 
ATOM     12  C   UNL     1      37.175 -23.232 -12.606  0.00  0.00    +0.095 C 
ATOM     13  C   UNL     1      36.178 -21.802 -17.535  0.00  0.00    +0.077 C 
ATOM     14  C   UNL     1      37.288 -21.591 -16.734  0.00  0.00    +0.003 C 
ATOM     15  C   UNL     1      36.003 -24.395 -11.009  0.00  0.00    +0.099 C 
ATOM     16  H   UNL     1      32.951 -25.573 -13.014  0.00  0.00    +0.155 HD
ENDROOT
BRANCH   2  18
ATOM     17 CL   UNL     1      29.248 -22.278 -16.324  0.00  0.00    -0.082 Cl
ATOM     18  C   UNL     1      31.451 -24.738 -14.067  0.00  0.00    +0.051 C 
ATOM     19  C   UNL     1      31.062 -23.691 -14.903  0.00  0.00    +0.026 C 
ATOM     20  C   UNL     1      30.506 -25.661 -13.618  0.00  0.00    +0.015 C 
ATOM     21  C   UNL     1      29.728 -23.568 -15.291  0.00  0.00    +0.059 C 
ATOM     22  C   UNL     1      29.172 -25.537 -14.006  0.00  0.00    +0.002 C 
ATOM     23  C   UNL     1      28.784 -24.491 -14.843  0.00  0.00    +0.011 C 
ENDBRANCH   2  18
BRANCH  13  25
ATOM     24  O   UNL     1      36.616 -20.208 -19.263  0.00  0.00    -0.245 OA
ATOM     25  C   UNL     1      36.149 -21.291 -18.895  0.00  0.00    +0.338 C 
BRANCH  25  26
ATOM     26  O   UNL     1      35.540 -22.147 -19.761  0.00  0.00    -0.477 OA
ATOM     27  H   UNL     1      34.655 -22.415 -19.610  0.00  0.00    +0.295 HD
ENDBRANCH  25  26
ENDBRANCH  13  25
TORSDOF 3
ENDMDL
MODEL 5
REMARK VINA RESULT:     -10.3     12.302     15.122
REMARK  Name = 24748573
REMARK  3 active torsions:
REMARK  status: ('A' for Active; 'I' for Inactive)
REMARK    1  A    between atoms: N_2  and  C_18
REMARK    2  A    between atoms: C_13  and  C_25
REMARK    3  A    between atoms: C_25  and  O_26
REMARK                            x       y       z     vdW  Elec       q    Type
REMARK                         _______ _______ _______ _____ _____    ______ ____
ROOT
ATOM      1  N   UNL     1      32.867 -10.003 -23.270  0.00  0.00    -0.391 NA
ATOM      2  N   UNL     1      32.625  -7.736 -22.704  0.00  0.00    -0.288 N 
ATOM      3  N   UNL     1      31.389 -10.120 -18.428  0.00  0.00    -0.243 NA
ATOM      4  C   UNL     1      32.434 -11.767 -21.675  0.00  0.00    +0.098 C 
ATOM      5  C   UNL     1      32.101 -10.785 -20.686  0.00  0.00    +0.011 C 
ATOM      6  C   UNL     1      32.163  -9.422 -21.026  0.00  0.00    +0.044 C 
ATOM      7  C   UNL     1      32.812 -11.306 -22.957  0.00  0.00    +0.119 C 
ATOM      8  C   UNL     1      32.548  -9.099 -22.319  0.00  0.00    +0.183 C 
ATOM      9  C   UNL     1      32.407 -13.165 -21.448  0.00  0.00    -0.015 C 
ATOM     10  C   UNL     1      33.141 -12.234 -23.942  0.00  0.00    +0.035 C 
ATOM     11  C   UNL     1      31.845  -8.433 -20.085  0.00  0.00    +0.024 C 
ATOM     12  C   UNL     1      31.704 -11.051 -19.361  0.00  0.00    +0.095 C 
ATOM     13  C   UNL     1      33.109 -13.606 -23.700  0.00  0.00    +0.077 C 
ATOM     14  C   UNL     1      32.741 -14.073 -22.450  0.00  0.00    +0.003 C 
ATOM     15  C   UNL     1      31.468  -8.832 -18.817  0.00  0.00    +0.099 C 
ATOM     16  H   UNL     1      31.991  -7.153 -22.227  0.00  0.00    +0.155 HD
ENDROOT
BRANCH   2  18
ATOM     17 CL   UNL     1      32.995  -5.348 -27.222  0.00  0.00    -0.082 Cl
ATOM     18  C   UNL     1      33.429  -7.058 -23.632  0.00  0.00    +0.051 C 
ATOM     19  C   UNL     1      32.877  -6.597 -24.827  0.00  0.00    +0.026 C 
ATOM     20  C   UNL     1      34.781  -6.843 -23.359  0.00  0.00    +0.015 C 
ATOM     21  C   UNL     1      33.676  -5.919 -25.748  0.00  0.00    +0.059 C 
ATOM     22  C   UNL     1      35.579  -6.166 -24.281  0.00  0.00    +0.002 C 
ATOM     23  C   UNL     1      35.026  -5.704 -25.475  0.00  0.00    +0.011 C 
ENDBRANCH   2  18
BRANCH  13  25
ATOM     24  O   UNL     1      34.450 -15.284 -24.754  0.00  0.00    -0.245 OA
ATOM     25  C   UNL     1      33.462 -14.542 -24.756  0.00  0.00    +0.338 C 
BRANCH  25  26
ATOM     26  O   UNL     1      32.569 -14.528 -25.784  0.00  0.00    -0.477 OA
ATOM     27  H   UNL     1      31.851 -15.130 -25.789  0.00  0.00    +0.295 HD
ENDBRANCH  25  26
ENDBRANCH  13  25
TORSDOF 3
ENDMDL
MODEL 6
REMARK VINA RESULT:     -10.2      2.734      6.104
REMARK  Name = 24748573
REMARK  3 active torsions:
REMARK  status: ('A' for Active; 'I' for Inactive)
REMARK    1  A    between atoms: N_2  and  C_18
REMARK    2  A    between atoms: C_13  and  C_25
REMARK    3  A    between atoms: C_25  and  O_26
REMARK                            x       y       z     vdW  Elec       q    Type
REMARK                         _______ _______ _______ _____ _____    ______ ____
ROOT
ATOM      1  N   UNL     1      35.162 -23.227 -15.446  0.00  0.00    -0.391 NA
ATOM      2  N   UNL     1      35.051 -24.234 -13.327  0.00  0.00    -0.288 N 
ATOM      3  N   UNL     1      30.214 -24.050 -14.758  0.00  0.00    -0.243 NA
ATOM      4  C   UNL     1      33.179 -22.810 -16.763  0.00  0.00    +0.098 C 
ATOM      5  C   UNL     1      32.374 -23.379 -15.723  0.00  0.00    +0.011 C 
ATOM      6  C   UNL     1      32.999 -23.862 -14.559  0.00  0.00    +0.044 C 
ATOM      7  C   UNL     1      34.577 -22.763 -16.560  0.00  0.00    +0.119 C 
ATOM      8  C   UNL     1      34.380 -23.758 -14.482  0.00  0.00    +0.183 C 
ATOM      9  C   UNL     1      32.661 -22.292 -17.975  0.00  0.00    -0.015 C 
ATOM     10  C   UNL     1      35.388 -22.215 -17.551  0.00  0.00    +0.035 C 
ATOM     11  C   UNL     1      32.245 -24.426 -13.521  0.00  0.00    +0.024 C 
ATOM     12  C   UNL     1      30.972 -23.511 -15.744  0.00  0.00    +0.095 C 
ATOM     13  C   UNL     1      34.861 -21.710 -18.738  0.00  0.00    +0.077 C 
ATOM     14  C   UNL     1      33.493 -21.749 -18.952  0.00  0.00    +0.003 C 
ATOM     15  C   UNL     1      30.872 -24.494 -13.670  0.00  0.00    +0.099 C 
ATOM     16  H   UNL     1      34.514 -24.176 -12.504  0.00  0.00    +0.155 HD
ENDROOT
BRANCH   2  18
ATOM     17 CL   UNL     1      39.841 -24.818 -15.050  0.00  0.00    -0.082 Cl
ATOM     18  C   UNL     1      36.332 -24.771 -13.130  0.00  0.00    +0.051 C 
ATOM     19  C   UNL     1      37.332 -24.555 -14.079  0.00  0.00    +0.026 C 
ATOM     20  C   UNL     1      36.608 -25.517 -11.984  0.00  0.00    +0.015 C 
ATOM     21  C   UNL     1      38.607 -25.085 -13.881  0.00  0.00    +0.059 C 
ATOM     22  C   UNL     1      37.883 -26.047 -11.787  0.00  0.00    +0.002 C 
ATOM     23  C   UNL     1      38.882 -25.830 -12.735  0.00  0.00    +0.011 C 
ENDBRANCH   2  18
BRANCH  13  25
ATOM     24  O   UNL     1      36.971 -21.281 -19.781  0.00  0.00    -0.245 OA
ATOM     25  C   UNL     1      35.743 -21.148 -19.748  0.00  0.00    +0.338 C 
BRANCH  25  26
ATOM     26  O   UNL     1      35.067 -20.436 -20.692  0.00  0.00    -0.477 OA
ATOM     27  H   UNL     1      35.218 -20.604 -21.601  0.00  0.00    +0.295 HD
ENDBRANCH  25  26
ENDBRANCH  13  25
TORSDOF 3
ENDMDL
MODEL 7
REMARK VINA RESULT:     -10.1      3.128      4.935
REMARK  Name = 24748573
REMARK  3 active torsions:
REMARK  status: ('A' for Active; 'I' for Inactive)
REMARK    1  A    between atoms: N_2  and  C_18
REMARK    2  A    between atoms: C_13  and  C_25
REMARK    3  A    between atoms: C_25  and  O_26
REMARK                            x       y       z     vdW  Elec       q    Type
REMARK                         _______ _______ _______ _____ _____    ______ ____
ROOT
ATOM      1  N   UNL     1      34.161 -22.749 -15.893  0.00  0.00    -0.391 NA
ATOM      2  N   UNL     1      36.192 -21.989 -16.794  0.00  0.00    -0.288 N 
ATOM      3  N   UNL     1      37.669 -25.315 -13.296  0.00  0.00    -0.243 NA
ATOM      4  C   UNL     1      34.089 -24.397 -14.127  0.00  0.00    +0.098 C 
ATOM      5  C   UNL     1      35.521 -24.453 -14.127  0.00  0.00    +0.011 C 
ATOM      6  C   UNL     1      36.238 -23.643 -15.025  0.00  0.00    +0.044 C 
ATOM      7  C   UNL     1      33.466 -23.518 -15.041  0.00  0.00    +0.119 C 
ATOM      8  C   UNL     1      35.509 -22.822 -15.872  0.00  0.00    +0.183 C 
ATOM      9  C   UNL     1      33.264 -25.166 -13.269  0.00  0.00    -0.015 C 
ATOM     10  C   UNL     1      32.076 -23.438 -15.066  0.00  0.00    +0.035 C 
ATOM     11  C   UNL     1      37.639 -23.671 -15.055  0.00  0.00    +0.024 C 
ATOM     12  C   UNL     1      36.315 -25.265 -13.293  0.00  0.00    +0.095 C 
ATOM     13  C   UNL     1      31.279 -24.202 -14.214  0.00  0.00    +0.077 C 
ATOM     14  C   UNL     1      31.875 -25.068 -13.313  0.00  0.00    +0.003 C 
ATOM     15  C   UNL     1      38.297 -24.514 -14.179  0.00  0.00    +0.099 C 
ATOM     16  H   UNL     1      37.080 -21.698 -16.484  0.00  0.00    +0.155 HD
ENDROOT
BRANCH   2  18
ATOM     17 CL   UNL     1      37.441 -19.090 -20.831  0.00  0.00    -0.082 Cl
ATOM     18  C   UNL     1      35.847 -21.498 -18.063  0.00  0.00    +0.051 C 
ATOM     19  C   UNL     1      36.713 -20.636 -18.736  0.00  0.00    +0.026 C 
ATOM     20  C   UNL     1      34.639 -21.874 -18.652  0.00  0.00    +0.015 C 
ATOM     21  C   UNL     1      36.372 -20.152 -19.999  0.00  0.00    +0.059 C 
ATOM     22  C   UNL     1      34.299 -21.389 -19.914  0.00  0.00    +0.002 C 
ATOM     23  C   UNL     1      35.166 -20.528 -20.588  0.00  0.00    +0.011 C 
ENDBRANCH   2  18
BRANCH  13  25
ATOM     24  O   UNL     1      29.205 -23.099 -14.662  0.00  0.00    -0.245 OA
ATOM     25  C   UNL     1      29.831 -24.090 -14.273  0.00  0.00    +0.338 C 
BRANCH  25  26
ATOM     26  O   UNL     1      29.204 -25.221 -13.847  0.00  0.00    -0.477 OA
ATOM     27  H   UNL     1      29.118 -25.954 -14.424  0.00  0.00    +0.295 HD
ENDBRANCH  25  26
ENDBRANCH  13  25
TORSDOF 3
ENDMDL
MODEL 8
REMARK VINA RESULT:     -10.0      2.938      5.403
REMARK  Name = 24748573
REMARK  3 active torsions:
REMARK  status: ('A' for Active; 'I' for Inactive)
REMARK    1  A    between atoms: N_2  and  C_18
REMARK    2  A    between atoms: C_13  and  C_25
REMARK    3  A    between atoms: C_25  and  O_26
REMARK                            x       y       z     vdW  Elec       q    Type
REMARK                         _______ _______ _______ _____ _____    ______ ____
ROOT
ATOM      1  N   UNL     1      33.703 -23.313 -14.593  0.00  0.00    -0.391 NA
ATOM      2  N   UNL     1      32.072 -22.653 -16.149  0.00  0.00    -0.288 N 
ATOM      3  N   UNL     1      36.402 -21.805 -18.603  0.00  0.00    -0.243 NA
ATOM      4  C   UNL     1      36.065 -23.184 -15.091  0.00  0.00    +0.098 C 
ATOM      5  C   UNL     1      35.758 -22.662 -16.390  0.00  0.00    +0.011 C 
ATOM      6  C   UNL     1      34.412 -22.480 -16.754  0.00  0.00    +0.044 C 
ATOM      7  C   UNL     1      34.983 -23.492 -14.234  0.00  0.00    +0.119 C 
ATOM      8  C   UNL     1      33.442 -22.820 -15.822  0.00  0.00    +0.183 C 
ATOM      9  C   UNL     1      37.380 -23.409 -14.616  0.00  0.00    -0.015 C 
ATOM     10  C   UNL     1      35.247 -23.999 -12.964  0.00  0.00    +0.035 C 
ATOM     11  C   UNL     1      34.072 -21.972 -18.015  0.00  0.00    +0.024 C 
ATOM     12  C   UNL     1      36.696 -22.299 -17.375  0.00  0.00    +0.095 C 
ATOM     13  C   UNL     1      36.548 -24.215 -12.513  0.00  0.00    +0.077 C 
ATOM     14  C   UNL     1      37.618 -23.919 -13.341  0.00  0.00    +0.003 C 
ATOM     15  C   UNL     1      35.094 -21.654 -18.891  0.00  0.00    +0.099 C 
ATOM     16  H   UNL     1      31.901 -21.915 -16.778  0.00  0.00    +0.155 HD
ENDROOT
BRANCH   2  18
ATOM     17 CL   UNL     1      27.002 -22.566 -15.413  0.00  0.00    -0.082 Cl
ATOM     18  C   UNL     1      30.913 -23.334 -15.748  0.00  0.00    +0.051 C 
ATOM     19  C   UNL     1      29.678 -22.686 -15.774  0.00  0.00    +0.026 C 
ATOM     20  C   UNL     1      30.995 -24.662 -15.326  0.00  0.00    +0.015 C 
ATOM     21  C   UNL     1      28.526 -23.365 -15.380  0.00  0.00    +0.059 C 
ATOM     22  C   UNL     1      29.842 -25.340 -14.931  0.00  0.00    +0.002 C 
ATOM     23  C   UNL     1      28.608 -24.692 -14.958  0.00  0.00    +0.011 C 
ENDBRANCH   2  18
BRANCH  13  25
ATOM     24  O   UNL     1      36.833 -24.082 -10.142  0.00  0.00    -0.245 OA
ATOM     25  C   UNL     1      36.780 -24.748 -11.181  0.00  0.00    +0.338 C 
BRANCH  25  26
ATOM     26  O   UNL     1      36.938 -26.101 -11.182  0.00  0.00    -0.477 OA
ATOM     27  H   UNL     1      37.639 -26.491 -10.698  0.00  0.00    +0.295 HD
ENDBRANCH  25  26
ENDBRANCH  13  25
TORSDOF 3
ENDMDL
MODEL 9
REMARK VINA RESULT:      -9.7      3.454      6.664
REMARK  Name = 24748573
REMARK  3 active torsions:
REMARK  status: ('A' for Active; 'I' for Inactive)
REMARK    1  A    between atoms: N_2  and  C_18
REMARK    2  A    between atoms: C_13  and  C_25
REMARK    3  A    between atoms: C_25  and  O_26
REMARK                            x       y       z     vdW  Elec       q    Type
REMARK                         _______ _______ _______ _____ _____    ______ ____
ROOT
ATOM      1  N   UNL     1      34.223 -24.006 -15.141  0.00  0.00    -0.391 NA
ATOM      2  N   UNL     1      36.472 -23.696 -15.741  0.00  0.00    -0.288 N 
ATOM      3  N   UNL     1      33.976 -21.137 -19.306  0.00  0.00    -0.243 NA
ATOM      4  C   UNL     1      32.417 -23.041 -16.426  0.00  0.00    +0.098 C 
ATOM      5  C   UNL     1      33.372 -22.466 -17.327  0.00  0.00    +0.011 C 
ATOM      6  C   UNL     1      34.743 -22.683 -17.103  0.00  0.00    +0.044 C 
ATOM      7  C   UNL     1      32.912 -23.806 -15.345  0.00  0.00    +0.119 C 
ATOM      8  C   UNL     1      35.100 -23.453 -16.005  0.00  0.00    +0.183 C 
ATOM      9  C   UNL     1      31.014 -22.890 -16.553  0.00  0.00    -0.015 C 
ATOM     10  C   UNL     1      32.011 -24.379 -14.451  0.00  0.00    +0.035 C 
ATOM     11  C   UNL     1      35.706 -22.137 -17.962  0.00  0.00    +0.024 C 
ATOM     12  C   UNL     1      33.071 -21.679 -18.455  0.00  0.00    +0.095 C 
ATOM     13  C   UNL     1      30.633 -24.220 -14.591  0.00  0.00    +0.077 C 
ATOM     14  C   UNL     1      30.133 -23.474 -15.645  0.00  0.00    +0.003 C 
ATOM     15  C   UNL     1      35.273 -21.382 -19.036  0.00  0.00    +0.099 C 
ATOM     16  H   UNL     1      37.035 -23.713 -16.549  0.00  0.00    +0.155 HD
ENDROOT
BRANCH   2  18
ATOM     17 CL   UNL     1      40.378 -26.011 -13.366  0.00  0.00    -0.082 Cl
ATOM     18  C   UNL     1      37.182 -23.917 -14.551  0.00  0.00    +0.051 C 
ATOM     19  C   UNL     1      38.295 -24.758 -14.550  0.00  0.00    +0.026 C 
ATOM     20  C   UNL     1      36.778 -23.292 -13.371  0.00  0.00    +0.015 C 
ATOM     21  C   UNL     1      39.004 -24.974 -13.368  0.00  0.00    +0.059 C 
ATOM     22  C   UNL     1      37.487 -23.510 -12.189  0.00  0.00    +0.002 C 
ATOM     23  C   UNL     1      38.600 -24.350 -12.189  0.00  0.00    +0.011 C 
ENDBRANCH   2  18
BRANCH  13  25
ATOM     24  O   UNL     1      28.577 -25.213 -13.879  0.00  0.00    -0.245 OA
ATOM     25  C   UNL     1      29.727 -24.834 -13.635  0.00  0.00    +0.338 C 
BRANCH  25  26
ATOM     26  O   UNL     1      30.282 -24.960 -12.397  0.00  0.00    -0.477 OA
ATOM     27  H   UNL     1      30.689 -24.221 -11.990  0.00  0.00    +0.295 HD
ENDBRANCH  25  26
ENDBRANCH  13  25
TORSDOF 3
ENDMDL
