MODEL 1
REMARK VINA RESULT:     -11.2      0.000      0.000
REMARK  Name = 447649
REMARK  5 active torsions:
REMARK  status: ('A' for Active; 'I' for Inactive)
REMARK    1  A    between atoms: N_5  and  C_14
REMARK    2  A    between atoms: C_6  and  O_22
REMARK    3  A    between atoms: C_19  and  O_20
REMARK    4  A    between atoms: O_22  and  C_23
REMARK    5  A    between atoms: C_23  and  C_24
REMARK                            x       y       z     vdW  Elec       q    Type
REMARK                         _______ _______ _______ _____ _____    ______ ____
ROOT
ATOM      1  N   UNL     1      33.680 -23.661 -15.273  0.00  0.00    -0.293 NA
ATOM      2  N   UNL     1      37.354 -23.818 -15.203  0.00  0.00    -0.266 NA
ATOM      3  N   UNL     1      34.601 -24.598 -13.217  0.00  0.00    -0.316 NA
ATOM      4  N   UNL     1      37.029 -24.697 -13.182  0.00  0.00    -0.296 N 
ATOM      5  N   UNL     1      32.292 -24.382 -13.529  0.00  0.00    -0.238 N 
ATOM      6  C   UNL     1      34.915 -23.476 -15.790  0.00  0.00    +0.288 C 
ATOM      7  C   UNL     1      36.001 -23.850 -15.027  0.00  0.00    +0.215 C 
ATOM      8  C   UNL     1      35.824 -24.400 -13.764  0.00  0.00    +0.196 C 
ATOM      9  C   UNL     1      33.601 -24.205 -14.035  0.00  0.00    +0.207 C 
ATOM     10  C   UNL     1      37.928 -24.335 -14.073  0.00  0.00    +0.164 C 
ATOM     11  H   UNL     1      37.831 -23.484 -15.998  0.00  0.00    +0.126 HD
ATOM     12  H   UNL     1      37.188 -25.093 -12.294  0.00  0.00    +0.150 HD
ATOM     13  H   UNL     1      32.266 -24.777 -12.628  0.00  0.00    +0.166 HD
ENDROOT
BRANCH   5  14
ATOM     14  C   UNL     1      31.022 -24.104 -14.064  0.00  0.00    +0.059 C 
ATOM     15  C   UNL     1      30.178 -25.150 -14.446  0.00  0.00    +0.018 C 
ATOM     16  C   UNL     1      30.598 -22.782 -14.218  0.00  0.00    +0.018 C 
ATOM     17  C   UNL     1      28.918 -24.875 -14.978  0.00  0.00    +0.038 C 
ATOM     18  C   UNL     1      29.338 -22.507 -14.750  0.00  0.00    +0.038 C 
ATOM     19  C   UNL     1      28.498 -23.553 -15.129  0.00  0.00    +0.134 C 
BRANCH  19  20
ATOM     20  O   UNL     1      27.268 -23.286 -15.647  0.00  0.00    -0.506 OA
ATOM     21  H   UNL     1      26.511 -23.311 -15.096  0.00  0.00    +0.292 HD
ENDBRANCH  19  20
ENDBRANCH   5  14
BRANCH   6  22
ATOM     22  O   UNL     1      35.031 -22.928 -17.045  0.00  0.00    -0.453 OA
BRANCH  22  23
ATOM     23  C   UNL     1      33.851 -22.842 -17.821  0.00  0.00    +0.208 C 
BRANCH  23  24
ATOM     24  C   UNL     1      34.169 -22.072 -19.102  0.00  0.00    +0.044 C 
ATOM     25  C   UNL     1      33.111 -20.992 -19.362  0.00  0.00    +0.004 C 
ATOM     26  C   UNL     1      35.573 -21.456 -19.028  0.00  0.00    +0.004 C 
ATOM     27  C   UNL     1      33.437 -20.173 -20.610  0.00  0.00    +0.000 C 
ATOM     28  C   UNL     1      35.894 -20.636 -20.275  0.00  0.00    +0.000 C 
ATOM     29  C   UNL     1      34.835 -19.569 -20.536  0.00  0.00    +0.000 C 
ENDBRANCH  23  24
ENDBRANCH  22  23
ENDBRANCH   6  22
TORSDOF 5
ENDMDL
MODEL 2
REMARK VINA RESULT:     -11.1      1.935      5.607
REMARK  Name = 447649
REMARK  5 active torsions:
REMARK  status: ('A' for Active; 'I' for Inactive)
REMARK    1  A    between atoms: N_5  and  C_14
REMARK    2  A    between atoms: C_6  and  O_22
REMARK    3  A    between atoms: C_19  and  O_20
REMARK    4  A    between atoms: O_22  and  C_23
REMARK    5  A    between atoms: C_23  and  C_24
REMARK                            x       y       z     vdW  Elec       q    Type
REMARK                         _______ _______ _______ _____ _____    ______ ____
ROOT
ATOM      1  N   UNL     1      32.960 -23.362 -15.703  0.00  0.00    -0.293 NA
ATOM      2  N   UNL     1      29.458 -22.666 -16.586  0.00  0.00    -0.266 NA
ATOM      3  N   UNL     1      31.352 -23.993 -13.981  0.00  0.00    -0.316 NA
ATOM      4  N   UNL     1      29.041 -23.529 -14.574  0.00  0.00    -0.296 N 
ATOM      5  N   UNL     1      33.648 -24.324 -13.682  0.00  0.00    -0.238 N 
ATOM      6  C   UNL     1      31.977 -22.914 -16.516  0.00  0.00    +0.288 C 
ATOM      7  C   UNL     1      30.676 -23.002 -16.068  0.00  0.00    +0.215 C 
ATOM      8  C   UNL     1      30.390 -23.536 -14.818  0.00  0.00    +0.196 C 
ATOM      9  C   UNL     1      32.591 -23.866 -14.502  0.00  0.00    +0.207 C 
ATOM     10  C   UNL     1      28.509 -23.000 -15.657  0.00  0.00    +0.164 C 
ATOM     11  H   UNL     1      29.292 -22.258 -17.468  0.00  0.00    +0.126 HD
ATOM     12  H   UNL     1      28.573 -23.849 -13.770  0.00  0.00    +0.150 HD
ATOM     13  H   UNL     1      33.351 -24.686 -12.816  0.00  0.00    +0.166 HD
ENDROOT
BRANCH   5  14
ATOM     14  C   UNL     1      35.042 -24.361 -13.863  0.00  0.00    +0.059 C 
ATOM     15  C   UNL     1      35.641 -25.466 -14.474  0.00  0.00    +0.018 C 
ATOM     16  C   UNL     1      35.835 -23.296 -13.432  0.00  0.00    +0.018 C 
ATOM     17  C   UNL     1      37.023 -25.504 -14.653  0.00  0.00    +0.038 C 
ATOM     18  C   UNL     1      37.218 -23.333 -13.611  0.00  0.00    +0.038 C 
ATOM     19  C   UNL     1      37.812 -24.437 -14.222  0.00  0.00    +0.134 C 
BRANCH  19  20
ATOM     20  O   UNL     1      39.161 -24.474 -14.398  0.00  0.00    -0.506 OA
ATOM     21  H   UNL     1      39.731 -24.510 -13.655  0.00  0.00    +0.292 HD
ENDBRANCH  19  20
ENDBRANCH   5  14
BRANCH   6  22
ATOM     22  O   UNL     1      32.317 -22.395 -17.741  0.00  0.00    -0.453 OA
BRANCH  22  23
ATOM     23  C   UNL     1      33.601 -22.716 -18.242  0.00  0.00    +0.208 C 
BRANCH  23  24
ATOM     24  C   UNL     1      34.234 -21.442 -18.801  0.00  0.00    +0.044 C 
ATOM     25  C   UNL     1      35.666 -21.714 -19.280  0.00  0.00    +0.004 C 
ATOM     26  C   UNL     1      33.378 -20.866 -19.937  0.00  0.00    +0.004 C 
ATOM     27  C   UNL     1      36.302 -20.467 -19.892  0.00  0.00    +0.000 C 
ATOM     28  C   UNL     1      34.017 -19.621 -20.549  0.00  0.00    +0.000 C 
ATOM     29  C   UNL     1      35.444 -19.893 -21.015  0.00  0.00    +0.000 C 
ENDBRANCH  23  24
ENDBRANCH  22  23
ENDBRANCH   6  22
TORSDOF 5
ENDMDL
MODEL 3
REMARK VINA RESULT:     -10.8      0.566      1.498
REMARK  Name = 447649
REMARK  5 active torsions:
REMARK  status: ('A' for Active; 'I' for Inactive)
REMARK    1  A    between atoms: N_5  and  C_14
REMARK    2  A    between atoms: C_6  and  O_22
REMARK    3  A    between atoms: C_19  and  O_20
REMARK    4  A    between atoms: O_22  and  C_23
REMARK    5  A    between atoms: C_23  and  C_24
REMARK                            x       y       z     vdW  Elec       q    Type
REMARK                         _______ _______ _______ _____ _____    ______ ____
ROOT
ATOM      1  N   UNL     1      33.530 -23.731 -15.136  0.00  0.00    -0.293 NA
ATOM      2  N   UNL     1      37.150 -23.954 -14.527  0.00  0.00    -0.266 NA
ATOM      3  N   UNL     1      34.120 -24.516 -12.903  0.00  0.00    -0.316 NA
ATOM      4  N   UNL     1      36.514 -24.660 -12.511  0.00  0.00    -0.296 N 
ATOM      5  N   UNL     1      31.887 -24.280 -13.559  0.00  0.00    -0.238 N 
ATOM      6  C   UNL     1      34.830 -23.613 -15.484  0.00  0.00    +0.288 C 
ATOM      7  C   UNL     1      35.785 -23.945 -14.545  0.00  0.00    +0.215 C 
ATOM      8  C   UNL     1      35.414 -24.387 -13.282  0.00  0.00    +0.196 C 
ATOM      9  C   UNL     1      33.259 -24.171 -13.884  0.00  0.00    +0.207 C 
ATOM     10  C   UNL     1      37.542 -24.389 -13.289  0.00  0.00    +0.164 C 
ATOM     11  H   UNL     1      37.745 -23.695 -15.269  0.00  0.00    +0.126 HD
ATOM     12  H   UNL     1      36.533 -24.985 -11.582  0.00  0.00    +0.150 HD
ATOM     13  H   UNL     1      31.720 -24.601 -12.644  0.00  0.00    +0.166 HD
ENDROOT
BRANCH   5  14
ATOM     14  C   UNL     1      30.715 -24.022 -14.291  0.00  0.00    +0.059 C 
ATOM     15  C   UNL     1      30.169 -22.736 -14.310  0.00  0.00    +0.018 C 
ATOM     16  C   UNL     1      30.090 -25.049 -15.003  0.00  0.00    +0.018 C 
ATOM     17  C   UNL     1      29.005 -22.480 -15.035  0.00  0.00    +0.038 C 
ATOM     18  C   UNL     1      28.926 -24.792 -15.728  0.00  0.00    +0.038 C 
ATOM     19  C   UNL     1      28.384 -23.508 -15.745  0.00  0.00    +0.134 C 
BRANCH  19  20
ATOM     20  O   UNL     1      27.250 -23.257 -16.454  0.00  0.00    -0.506 OA
ATOM     21  H   UNL     1      26.564 -22.743 -16.075  0.00  0.00    +0.292 HD
ENDBRANCH  19  20
ENDBRANCH   5  14
BRANCH   6  22
ATOM     22  O   UNL     1      35.140 -23.171 -16.747  0.00  0.00    -0.453 OA
BRANCH  22  23
ATOM     23  C   UNL     1      34.060 -22.957 -17.637  0.00  0.00    +0.208 C 
BRANCH  23  24
ATOM     24  C   UNL     1      34.316 -21.662 -18.405  0.00  0.00    +0.044 C 
ATOM     25  C   UNL     1      35.679 -21.709 -19.109  0.00  0.00    +0.004 C 
ATOM     26  C   UNL     1      33.190 -21.399 -19.414  0.00  0.00    +0.004 C 
ATOM     27  C   UNL     1      35.935 -20.446 -19.928  0.00  0.00    +0.000 C 
ATOM     28  C   UNL     1      33.449 -20.137 -20.233  0.00  0.00    +0.000 C 
ATOM     29  C   UNL     1      34.809 -20.184 -20.923  0.00  0.00    +0.000 C 
ENDBRANCH  23  24
ENDBRANCH  22  23
ENDBRANCH   6  22
TORSDOF 5
ENDMDL
MODEL 4
REMARK VINA RESULT:     -10.5      2.553      6.835
REMARK  Name = 447649
REMARK  5 active torsions:
REMARK  status: ('A' for Active; 'I' for Inactive)
REMARK    1  A    between atoms: N_5  and  C_14
REMARK    2  A    between atoms: C_6  and  O_22
REMARK    3  A    between atoms: C_19  and  O_20
REMARK    4  A    between atoms: O_22  and  C_23
REMARK    5  A    between atoms: C_23  and  C_24
REMARK                            x       y       z     vdW  Elec       q    Type
REMARK                         _______ _______ _______ _____ _____    ______ ____
ROOT
ATOM      1  N   UNL     1      33.988 -22.734 -16.138  0.00  0.00    -0.293 NA
ATOM      2  N   UNL     1      33.017 -24.579 -13.108  0.00  0.00    -0.266 NA
ATOM      3  N   UNL     1      31.741 -23.681 -16.222  0.00  0.00    -0.316 NA
ATOM      4  N   UNL     1      31.109 -24.897 -14.215  0.00  0.00    -0.296 N 
ATOM      5  N   UNL     1      32.615 -22.458 -18.015  0.00  0.00    -0.238 N 
ATOM      6  C   UNL     1      34.193 -23.226 -14.896  0.00  0.00    +0.288 C 
ATOM      7  C   UNL     1      33.175 -23.947 -14.308  0.00  0.00    +0.215 C 
ATOM      8  C   UNL     1      31.978 -24.159 -14.977  0.00  0.00    +0.196 C 
ATOM      9  C   UNL     1      32.790 -22.990 -16.717  0.00  0.00    +0.207 C 
ATOM     10  C   UNL     1      31.764 -25.132 -13.098  0.00  0.00    +0.164 C 
ATOM     11  H   UNL     1      33.681 -24.627 -12.382  0.00  0.00    +0.126 HD
ATOM     12  H   UNL     1      30.198 -25.186 -14.450  0.00  0.00    +0.150 HD
ATOM     13  H   UNL     1      31.736 -22.658 -18.410  0.00  0.00    +0.166 HD
ENDROOT
BRANCH   5  14
ATOM     14  C   UNL     1      33.453 -21.701 -18.852  0.00  0.00    +0.059 C 
ATOM     15  C   UNL     1      32.921 -20.668 -19.629  0.00  0.00    +0.018 C 
ATOM     16  C   UNL     1      34.821 -21.977 -18.912  0.00  0.00    +0.018 C 
ATOM     17  C   UNL     1      33.752 -19.917 -20.460  0.00  0.00    +0.038 C 
ATOM     18  C   UNL     1      35.652 -21.226 -19.744  0.00  0.00    +0.038 C 
ATOM     19  C   UNL     1      35.118 -20.195 -20.517  0.00  0.00    +0.134 C 
BRANCH  19  20
ATOM     20  O   UNL     1      35.929 -19.462 -21.327  0.00  0.00    -0.506 OA
ATOM     21  H   UNL     1      36.422 -18.748 -20.975  0.00  0.00    +0.292 HD
ENDBRANCH  19  20
ENDBRANCH   5  14
BRANCH   6  22
ATOM     22  O   UNL     1      35.398 -22.986 -14.280  0.00  0.00    -0.453 OA
BRANCH  22  23
ATOM     23  C   UNL     1      36.567 -23.335 -14.998  0.00  0.00    +0.208 C 
BRANCH  23  24
ATOM     24  C   UNL     1      37.320 -24.403 -14.206  0.00  0.00    +0.044 C 
ATOM     25  C   UNL     1      37.390 -24.028 -12.720  0.00  0.00    +0.004 C 
ATOM     26  C   UNL     1      36.664 -25.778 -14.393  0.00  0.00    +0.004 C 
ATOM     27  C   UNL     1      38.092 -25.108 -11.899  0.00  0.00    +0.000 C 
ATOM     28  C   UNL     1      37.366 -26.854 -13.569  0.00  0.00    +0.000 C 
ATOM     29  C   UNL     1      37.442 -26.473 -12.093  0.00  0.00    +0.000 C 
ENDBRANCH  23  24
ENDBRANCH  22  23
ENDBRANCH   6  22
TORSDOF 5
ENDMDL
MODEL 5
REMARK VINA RESULT:     -10.3      1.373      2.046
REMARK  Name = 447649
REMARK  5 active torsions:
REMARK  status: ('A' for Active; 'I' for Inactive)
REMARK    1  A    between atoms: N_5  and  C_14
REMARK    2  A    between atoms: C_6  and  O_22
REMARK    3  A    between atoms: C_19  and  O_20
REMARK    4  A    between atoms: O_22  and  C_23
REMARK    5  A    between atoms: C_23  and  C_24
REMARK                            x       y       z     vdW  Elec       q    Type
REMARK                         _______ _______ _______ _____ _____    ______ ____
ROOT
ATOM      1  N   UNL     1      35.326 -23.366 -15.049  0.00  0.00    -0.293 NA
ATOM      2  N   UNL     1      38.967 -23.884 -15.126  0.00  0.00    -0.266 NA
ATOM      3  N   UNL     1      36.079 -25.344 -13.836  0.00  0.00    -0.316 NA
ATOM      4  N   UNL     1      38.486 -25.677 -13.893  0.00  0.00    -0.296 N 
ATOM      5  N   UNL     1      33.812 -24.775 -13.950  0.00  0.00    -0.238 N 
ATOM      6  C   UNL     1      36.592 -23.050 -15.403  0.00  0.00    +0.288 C 
ATOM      7  C   UNL     1      37.610 -23.877 -14.975  0.00  0.00    +0.215 C 
ATOM      8  C   UNL     1      37.336 -25.000 -14.206  0.00  0.00    +0.196 C 
ATOM      9  C   UNL     1      35.151 -24.479 -14.299  0.00  0.00    +0.207 C 
ATOM     10  C   UNL     1      39.448 -24.980 -14.460  0.00  0.00    +0.164 C 
ATOM     11  H   UNL     1      39.502 -23.222 -15.622  0.00  0.00    +0.126 HD
ATOM     12  H   UNL     1      38.574 -26.501 -13.360  0.00  0.00    +0.150 HD
ATOM     13  H   UNL     1      33.715 -25.588 -13.404  0.00  0.00    +0.166 HD
ENDROOT
BRANCH   5  14
ATOM     14  C   UNL     1      32.594 -24.134 -14.234  0.00  0.00    +0.059 C 
ATOM     15  C   UNL     1      31.622 -24.003 -13.239  0.00  0.00    +0.018 C 
ATOM     16  C   UNL     1      32.348 -23.625 -15.511  0.00  0.00    +0.018 C 
ATOM     17  C   UNL     1      30.412 -23.368 -13.520  0.00  0.00    +0.038 C 
ATOM     18  C   UNL     1      31.138 -22.990 -15.793  0.00  0.00    +0.038 C 
ATOM     19  C   UNL     1      30.171 -22.861 -14.797  0.00  0.00    +0.134 C 
BRANCH  19  20
ATOM     20  O   UNL     1      28.991 -22.240 -15.071  0.00  0.00    -0.506 OA
ATOM     21  H   UNL     1      28.283 -22.286 -14.459  0.00  0.00    +0.292 HD
ENDBRANCH  19  20
ENDBRANCH   5  14
BRANCH   6  22
ATOM     22  O   UNL     1      36.805 -21.927 -16.166  0.00  0.00    -0.453 OA
BRANCH  22  23
ATOM     23  C   UNL     1      36.875 -22.106 -17.568  0.00  0.00    +0.208 C 
BRANCH  23  24
ATOM     24  C   UNL     1      35.756 -21.292 -18.215  0.00  0.00    +0.044 C 
ATOM     25  C   UNL     1      36.214 -20.715 -19.561  0.00  0.00    +0.004 C 
ATOM     26  C   UNL     1      34.494 -22.149 -18.389  0.00  0.00    +0.004 C 
ATOM     27  C   UNL     1      35.094 -19.940 -20.252  0.00  0.00    +0.000 C 
ATOM     28  C   UNL     1      33.377 -21.373 -19.083  0.00  0.00    +0.000 C 
ATOM     29  C   UNL     1      33.840 -20.792 -20.416  0.00  0.00    +0.000 C 
ENDBRANCH  23  24
ENDBRANCH  22  23
ENDBRANCH   6  22
TORSDOF 5
ENDMDL
MODEL 6
REMARK VINA RESULT:     -10.1      2.029      5.913
REMARK  Name = 447649
REMARK  5 active torsions:
REMARK  status: ('A' for Active; 'I' for Inactive)
REMARK    1  A    between atoms: N_5  and  C_14
REMARK    2  A    between atoms: C_6  and  O_22
REMARK    3  A    between atoms: C_19  and  O_20
REMARK    4  A    between atoms: O_22  and  C_23
REMARK    5  A    between atoms: C_23  and  C_24
REMARK                            x       y       z     vdW  Elec       q    Type
REMARK                         _______ _______ _______ _____ _____    ______ ____
ROOT
ATOM      1  N   UNL     1      35.221 -23.670 -15.296  0.00  0.00    -0.293 NA
ATOM      2  N   UNL     1      36.096 -25.509 -12.233  0.00  0.00    -0.266 NA
ATOM      3  N   UNL     1      37.606 -23.675 -14.781  0.00  0.00    -0.316 NA
ATOM      4  N   UNL     1      38.173 -24.892 -12.756  0.00  0.00    -0.296 N 
ATOM      5  N   UNL     1      36.771 -22.580 -16.673  0.00  0.00    -0.238 N 
ATOM      6  C   UNL     1      34.941 -24.409 -14.200  0.00  0.00    +0.288 C 
ATOM      7  C   UNL     1      35.989 -24.786 -13.387  0.00  0.00    +0.215 C 
ATOM      8  C   UNL     1      37.292 -24.414 -13.691  0.00  0.00    +0.196 C 
ATOM      9  C   UNL     1      36.520 -23.353 -15.516  0.00  0.00    +0.207 C 
ATOM     10  C   UNL     1      37.422 -25.546 -11.894  0.00  0.00    +0.164 C 
ATOM     11  H   UNL     1      35.355 -25.927 -11.736  0.00  0.00    +0.126 HD
ATOM     12  H   UNL     1      39.150 -24.774 -12.733  0.00  0.00    +0.150 HD
ATOM     13  H   UNL     1      37.722 -22.365 -16.807  0.00  0.00    +0.166 HD
ENDROOT
BRANCH   5  14
ATOM     14  C   UNL     1      35.926 -22.057 -17.667  0.00  0.00    +0.059 C 
ATOM     15  C   UNL     1      36.434 -21.180 -18.629  0.00  0.00    +0.018 C 
ATOM     16  C   UNL     1      34.576 -22.411 -17.700  0.00  0.00    +0.018 C 
ATOM     17  C   UNL     1      35.596 -20.660 -19.615  0.00  0.00    +0.038 C 
ATOM     18  C   UNL     1      33.738 -21.892 -18.686  0.00  0.00    +0.038 C 
ATOM     19  C   UNL     1      34.247 -21.017 -19.644  0.00  0.00    +0.134 C 
BRANCH  19  20
ATOM     20  O   UNL     1      33.431 -20.511 -20.608  0.00  0.00    -0.506 OA
ATOM     21  H   UNL     1      32.560 -20.843 -20.708  0.00  0.00    +0.292 HD
ENDBRANCH  19  20
ENDBRANCH   5  14
BRANCH   6  22
ATOM     22  O   UNL     1      33.633 -24.748 -13.947  0.00  0.00    -0.453 OA
BRANCH  22  23
ATOM     23  C   UNL     1      32.886 -23.865 -13.132  0.00  0.00    +0.208 C 
BRANCH  23  24
ATOM     24  C   UNL     1      31.460 -23.794 -13.675  0.00  0.00    +0.044 C 
ATOM     25  C   UNL     1      31.450 -23.227 -15.101  0.00  0.00    +0.004 C 
ATOM     26  C   UNL     1      30.795 -25.177 -13.633  0.00  0.00    +0.004 C 
ATOM     27  C   UNL     1      30.040 -23.196 -15.685  0.00  0.00    +0.000 C 
ATOM     28  C   UNL     1      29.387 -25.144 -14.220  0.00  0.00    +0.000 C 
ATOM     29  C   UNL     1      29.380 -24.570 -15.634  0.00  0.00    +0.000 C 
ENDBRANCH  23  24
ENDBRANCH  22  23
ENDBRANCH   6  22
TORSDOF 5
ENDMDL
MODEL 7
REMARK VINA RESULT:      -9.6      2.052      6.595
REMARK  Name = 447649
REMARK  5 active torsions:
REMARK  status: ('A' for Active; 'I' for Inactive)
REMARK    1  A    between atoms: N_5  and  C_14
REMARK    2  A    between atoms: C_6  and  O_22
REMARK    3  A    between atoms: C_19  and  O_20
REMARK    4  A    between atoms: O_22  and  C_23
REMARK    5  A    between atoms: C_23  and  C_24
REMARK                            x       y       z     vdW  Elec       q    Type
REMARK                         _______ _______ _______ _____ _____    ______ ____
ROOT
ATOM      1  N   UNL     1      34.987 -22.478 -17.269  0.00  0.00    -0.293 NA
ATOM      2  N   UNL     1      35.117 -24.555 -14.236  0.00  0.00    -0.266 NA
ATOM      3  N   UNL     1      37.141 -22.441 -16.125  0.00  0.00    -0.316 NA
ATOM      4  N   UNL     1      37.216 -23.816 -14.123  0.00  0.00    -0.296 N 
ATOM      5  N   UNL     1      36.780 -21.209 -18.081  0.00  0.00    -0.238 N 
ATOM      6  C   UNL     1      34.467 -23.324 -16.352  0.00  0.00    +0.288 C 
ATOM      7  C   UNL     1      35.279 -23.734 -15.315  0.00  0.00    +0.215 C 
ATOM      8  C   UNL     1      36.591 -23.288 -15.223  0.00  0.00    +0.196 C 
ATOM      9  C   UNL     1      36.274 -22.094 -17.101  0.00  0.00    +0.207 C 
ATOM     10  C   UNL     1      36.302 -24.573 -13.552  0.00  0.00    +0.164 C 
ATOM     11  H   UNL     1      34.296 -25.044 -13.994  0.00  0.00    +0.126 HD
ATOM     12  H   UNL     1      38.142 -23.664 -13.826  0.00  0.00    +0.150 HD
ATOM     13  H   UNL     1      37.717 -20.948 -17.934  0.00  0.00    +0.166 HD
ENDROOT
BRANCH   5  14
ATOM     14  C   UNL     1      36.203 -20.630 -19.225  0.00  0.00    +0.059 C 
ATOM     15  C   UNL     1      34.897 -20.959 -19.595  0.00  0.00    +0.018 C 
ATOM     16  C   UNL     1      36.932 -19.723 -19.998  0.00  0.00    +0.018 C 
ATOM     17  C   UNL     1      34.324 -20.386 -20.731  0.00  0.00    +0.038 C 
ATOM     18  C   UNL     1      36.360 -19.149 -21.133  0.00  0.00    +0.038 C 
ATOM     19  C   UNL     1      35.056 -19.480 -21.499  0.00  0.00    +0.134 C 
BRANCH  19  20
ATOM     20  O   UNL     1      34.497 -18.919 -22.606  0.00  0.00    -0.506 OA
ATOM     21  H   UNL     1      33.576 -19.000 -22.759  0.00  0.00    +0.292 HD
ENDBRANCH  19  20
ENDBRANCH   5  14
BRANCH   6  22
ATOM     22  O   UNL     1      33.163 -23.732 -16.492  0.00  0.00    -0.453 OA
BRANCH  22  23
ATOM     23  C   UNL     1      32.173 -22.722 -16.535  0.00  0.00    +0.208 C 
BRANCH  23  24
ATOM     24  C   UNL     1      31.093 -23.060 -15.509  0.00  0.00    +0.044 C 
ATOM     25  C   UNL     1      29.698 -22.984 -16.145  0.00  0.00    +0.004 C 
ATOM     26  C   UNL     1      31.340 -24.445 -14.898  0.00  0.00    +0.004 C 
ATOM     27  C   UNL     1      28.604 -23.370 -15.152  0.00  0.00    +0.000 C 
ATOM     28  C   UNL     1      30.244 -24.829 -13.907  0.00  0.00    +0.000 C 
ATOM     29  C   UNL     1      28.859 -24.744 -14.541  0.00  0.00    +0.000 C 
ENDBRANCH  23  24
ENDBRANCH  22  23
ENDBRANCH   6  22
TORSDOF 5
ENDMDL
MODEL 8
REMARK VINA RESULT:      -9.5      7.528     11.137
REMARK  Name = 447649
REMARK  5 active torsions:
REMARK  status: ('A' for Active; 'I' for Inactive)
REMARK    1  A    between atoms: N_5  and  C_14
REMARK    2  A    between atoms: C_6  and  O_22
REMARK    3  A    between atoms: C_19  and  O_20
REMARK    4  A    between atoms: O_22  and  C_23
REMARK    5  A    between atoms: C_23  and  C_24
REMARK                            x       y       z     vdW  Elec       q    Type
REMARK                         _______ _______ _______ _____ _____    ______ ____
ROOT
ATOM      1  N   UNL     1      34.782 -16.381 -21.844  0.00  0.00    -0.293 NA
ATOM      2  N   UNL     1      33.672 -13.491 -23.829  0.00  0.00    -0.266 NA
ATOM      3  N   UNL     1      34.468 -16.860 -24.215  0.00  0.00    -0.316 NA
ATOM      4  N   UNL     1      33.734 -14.944 -25.517  0.00  0.00    -0.296 N 
ATOM      5  N   UNL     1      35.170 -18.518 -22.721  0.00  0.00    -0.238 N 
ATOM      6  C   UNL     1      34.419 -15.091 -22.013  0.00  0.00    +0.288 C 
ATOM      7  C   UNL     1      34.077 -14.675 -23.284  0.00  0.00    +0.215 C 
ATOM      8  C   UNL     1      34.108 -15.561 -24.352  0.00  0.00    +0.196 C 
ATOM      9  C   UNL     1      34.784 -17.175 -22.941  0.00  0.00    +0.207 C 
ATOM     10  C   UNL     1      33.479 -13.700 -25.168  0.00  0.00    +0.164 C 
ATOM     11  H   UNL     1      33.542 -12.641 -23.347  0.00  0.00    +0.126 HD
ATOM     12  H   UNL     1      33.671 -15.341 -26.416  0.00  0.00    +0.150 HD
ATOM     13  H   UNL     1      35.163 -19.071 -23.535  0.00  0.00    +0.166 HD
ENDROOT
BRANCH   5  14
ATOM     14  C   UNL     1      35.562 -19.216 -21.565  0.00  0.00    +0.059 C 
ATOM     15  C   UNL     1      34.660 -20.065 -20.920  0.00  0.00    +0.018 C 
ATOM     16  C   UNL     1      36.853 -19.064 -21.056  0.00  0.00    +0.018 C 
ATOM     17  C   UNL     1      35.047 -20.757 -19.772  0.00  0.00    +0.038 C 
ATOM     18  C   UNL     1      37.241 -19.756 -19.909  0.00  0.00    +0.038 C 
ATOM     19  C   UNL     1      36.338 -20.603 -19.267  0.00  0.00    +0.134 C 
BRANCH  19  20
ATOM     20  O   UNL     1      36.716 -21.280 -18.149  0.00  0.00    -0.506 OA
ATOM     21  H   UNL     1      36.268 -21.136 -17.339  0.00  0.00    +0.292 HD
ENDBRANCH  19  20
ENDBRANCH   5  14
BRANCH   6  22
ATOM     22  O   UNL     1      34.405 -14.258 -20.921  0.00  0.00    -0.453 OA
BRANCH  22  23
ATOM     23  C   UNL     1      33.170 -14.100 -20.247  0.00  0.00    +0.208 C 
BRANCH  23  24
ATOM     24  C   UNL     1      32.710 -12.653 -20.414  0.00  0.00    +0.044 C 
ATOM     25  C   UNL     1      31.558 -12.563 -21.424  0.00  0.00    +0.004 C 
ATOM     26  C   UNL     1      32.299 -12.056 -19.061  0.00  0.00    +0.004 C 
ATOM     27  C   UNL     1      31.045 -11.132 -21.568  0.00  0.00    +0.000 C 
ATOM     28  C   UNL     1      31.784 -10.626 -19.209  0.00  0.00    +0.000 C 
ATOM     29  C   UNL     1      30.645 -10.540 -20.220  0.00  0.00    +0.000 C 
ENDBRANCH  23  24
ENDBRANCH  22  23
ENDBRANCH   6  22
TORSDOF 5
ENDMDL
MODEL 9
REMARK VINA RESULT:      -9.4      6.365      9.590
REMARK  Name = 447649
REMARK  5 active torsions:
REMARK  status: ('A' for Active; 'I' for Inactive)
REMARK    1  A    between atoms: N_5  and  C_14
REMARK    2  A    between atoms: C_6  and  O_22
REMARK    3  A    between atoms: C_19  and  O_20
REMARK    4  A    between atoms: O_22  and  C_23
REMARK    5  A    between atoms: C_23  and  C_24
REMARK                            x       y       z     vdW  Elec       q    Type
REMARK                         _______ _______ _______ _____ _____    ______ ____
ROOT
ATOM      1  N   UNL     1      35.005 -17.726 -20.805  0.00  0.00    -0.293 NA
ATOM      2  N   UNL     1      34.855 -14.823 -23.059  0.00  0.00    -0.266 NA
ATOM      3  N   UNL     1      35.205 -18.287 -23.171  0.00  0.00    -0.316 NA
ATOM      4  N   UNL     1      35.105 -16.362 -24.651  0.00  0.00    -0.296 N 
ATOM      5  N   UNL     1      35.267 -19.941 -21.518  0.00  0.00    -0.238 N 
ATOM      6  C   UNL     1      34.891 -16.408 -21.085  0.00  0.00    +0.288 C 
ATOM      7  C   UNL     1      34.934 -16.020 -22.408  0.00  0.00    +0.215 C 
ATOM      8  C   UNL     1      35.089 -16.960 -23.418  0.00  0.00    +0.196 C 
ATOM      9  C   UNL     1      35.152 -18.572 -21.852  0.00  0.00    +0.207 C 
ATOM     10  C   UNL     1      34.963 -15.078 -24.400  0.00  0.00    +0.164 C 
ATOM     11  H   UNL     1      34.742 -13.938 -22.641  0.00  0.00    +0.126 HD
ATOM     12  H   UNL     1      35.203 -16.796 -25.530  0.00  0.00    +0.150 HD
ATOM     13  H   UNL     1      35.374 -20.532 -22.297  0.00  0.00    +0.166 HD
ENDROOT
BRANCH   5  14
ATOM     14  C   UNL     1      35.258 -20.622 -20.287  0.00  0.00    +0.059 C 
ATOM     15  C   UNL     1      34.062 -21.135 -19.779  0.00  0.00    +0.018 C 
ATOM     16  C   UNL     1      36.443 -20.788 -19.567  0.00  0.00    +0.018 C 
ATOM     17  C   UNL     1      34.051 -21.810 -18.558  0.00  0.00    +0.038 C 
ATOM     18  C   UNL     1      36.432 -21.463 -18.346  0.00  0.00    +0.038 C 
ATOM     19  C   UNL     1      35.237 -21.974 -17.842  0.00  0.00    +0.134 C 
BRANCH  19  20
ATOM     20  O   UNL     1      35.227 -22.634 -16.652  0.00  0.00    -0.506 OA
ATOM     21  H   UNL     1      35.406 -23.553 -16.623  0.00  0.00    +0.292 HD
ENDBRANCH  19  20
ENDBRANCH   5  14
BRANCH   6  22
ATOM     22  O   UNL     1      34.739 -15.522 -20.046  0.00  0.00    -0.453 OA
BRANCH  22  23
ATOM     23  C   UNL     1      33.416 -15.162 -19.696  0.00  0.00    +0.208 C 
BRANCH  23  24
ATOM     24  C   UNL     1      33.147 -13.749 -20.210  0.00  0.00    +0.044 C 
ATOM     25  C   UNL     1      32.331 -13.791 -21.509  0.00  0.00    +0.004 C 
ATOM     26  C   UNL     1      32.431 -12.911 -19.142  0.00  0.00    +0.004 C 
ATOM     27  C   UNL     1      32.004 -12.387 -22.015  0.00  0.00    +0.000 C 
ATOM     28  C   UNL     1      32.104 -11.509 -19.652  0.00  0.00    +0.000 C 
ATOM     29  C   UNL     1      31.301 -11.555 -20.948  0.00  0.00    +0.000 C 
ENDBRANCH  23  24
ENDBRANCH  22  23
ENDBRANCH   6  22
TORSDOF 5
ENDMDL
