MODEL 1
REMARK VINA RESULT:      -9.8      0.000      0.000
REMARK  Name = 16115747
REMARK  4 active torsions:
REMARK  status: ('A' for Active; 'I' for Inactive)
REMARK    1  A    between atoms: C_6  and  C_20
REMARK    2  A    between atoms: N_19  and  C_22
REMARK    3  A    between atoms: C_22  and  C_23
REMARK    4  A    between atoms: C_23  and  C_26
REMARK                            x       y       z     vdW  Elec       q    Type
REMARK                         _______ _______ _______ _____ _____    ______ ____
ROOT
ATOM      1  N   UNL     1      37.957 -24.875 -13.366  0.00  0.00    -0.279 N 
ATOM      2  N   UNL     1      35.612 -24.381 -13.421  0.00  0.00    -0.316 NA
ATOM      3  N   UNL     1      34.371 -24.189 -11.365  0.00  0.00    -0.336 NA
ATOM      4  N   UNL     1      33.335 -23.905 -13.427  0.00  0.00    -0.170 N 
ATOM      5  N   UNL     1      31.201 -23.443 -13.849  0.00  0.00    -0.224 NA
ATOM      6  C   UNL     1      38.102 -25.024 -14.814  0.00  0.00    +0.151 C 
ATOM      7  C   UNL     1      39.465 -25.698 -14.984  0.00  0.00    +0.031 C 
ATOM      8  C   UNL     1      40.256 -25.212 -13.778  0.00  0.00    +0.024 C 
ATOM      9  C   UNL     1      39.211 -25.161 -12.667  0.00  0.00    +0.093 C 
ATOM     10  C   UNL     1      36.761 -24.645 -12.713  0.00  0.00    +0.181 C 
ATOM     11  C   UNL     1      36.727 -24.684 -11.309  0.00  0.00    +0.131 C 
ATOM     12  C   UNL     1      35.513 -24.451 -10.694  0.00  0.00    +0.109 C 
ATOM     13  C   UNL     1      34.491 -24.169 -12.705  0.00  0.00    +0.212 C 
ATOM     14  C   UNL     1      35.426 -24.481  -9.205  0.00  0.00    +0.063 C 
ATOM     15  C   UNL     1      33.225 -23.837 -14.790  0.00  0.00    +0.104 C 
ATOM     16  C   UNL     1      32.092 -23.661 -12.907  0.00  0.00    +0.182 C 
ATOM     17  C   UNL     1      31.901 -23.552 -15.025  0.00  0.00    +0.118 C 
ENDROOT
BRANCH   6  20
ATOM     18  O   UNL     1      39.088 -22.941 -15.428  0.00  0.00    -0.273 OA
ATOM     19  N   UNL     1      36.890 -23.380 -16.060  0.00  0.00    -0.303 N 
ATOM     20  C   UNL     1      38.104 -23.675 -15.464  0.00  0.00    +0.241 C 
ATOM     21  H   UNL     1      36.173 -24.052 -16.021  0.00  0.00    +0.149 HD
BRANCH  19  22
ATOM     22  C   UNL     1      36.625 -22.130 -16.735  0.00  0.00    +0.094 C 
BRANCH  22  23
ATOM     23  C   UNL     1      35.363 -22.184 -17.593  0.00  0.00    +0.048 C 
BRANCH  23  26
ATOM     24  O   UNL     1      37.658 -19.028 -20.620  0.00  0.00    -0.435 OA
ATOM     25  O   UNL     1      35.666 -18.648 -21.921  0.00  0.00    -0.435 OA
ATOM     26  C   UNL     1      35.409 -21.237 -18.767  0.00  0.00    -0.017 C 
ATOM     27  C   UNL     1      36.604 -20.600 -19.077  0.00  0.00    +0.036 C 
ATOM     28  C   UNL     1      34.246 -21.025 -19.514  0.00  0.00    -0.001 C 
ATOM     29  C   UNL     1      36.595 -19.743 -20.159  0.00  0.00    +0.176 C 
ATOM     30  C   UNL     1      35.458 -19.526 -20.902  0.00  0.00    +0.176 C 
ATOM     31  C   UNL     1      34.265 -20.153 -20.604  0.00  0.00    +0.040 C 
ATOM     32  C   UNL     1      37.062 -18.337 -21.736  0.00  0.00    +0.429 C 
ENDBRANCH  23  26
ENDBRANCH  22  23
ENDBRANCH  19  22
ENDBRANCH   6  20
TORSDOF 4
ENDMDL
MODEL 2
REMARK VINA RESULT:      -9.2     11.907     16.805
REMARK  Name = 16115747
REMARK  4 active torsions:
REMARK  status: ('A' for Active; 'I' for Inactive)
REMARK    1  A    between atoms: C_6  and  C_20
REMARK    2  A    between atoms: N_19  and  C_22
REMARK    3  A    between atoms: C_22  and  C_23
REMARK    4  A    between atoms: C_23  and  C_26
REMARK                            x       y       z     vdW  Elec       q    Type
REMARK                         _______ _______ _______ _____ _____    ______ ____
ROOT
ATOM      1  N   UNL     1      31.644  -8.796 -21.982  0.00  0.00    -0.279 N 
ATOM      2  N   UNL     1      32.239  -7.277 -23.738  0.00  0.00    -0.316 NA
ATOM      3  N   UNL     1      32.405  -4.917 -23.286  0.00  0.00    -0.336 NA
ATOM      4  N   UNL     1      32.812  -5.767 -25.412  0.00  0.00    -0.170 N 
ATOM      5  N   UNL     1      33.381  -4.662 -27.256  0.00  0.00    -0.224 NA
ATOM      6  C   UNL     1      31.544  -9.974 -22.844  0.00  0.00    +0.151 C 
ATOM      7  C   UNL     1      30.820 -11.008 -21.980  0.00  0.00    +0.031 C 
ATOM      8  C   UNL     1      31.225 -10.634 -20.562  0.00  0.00    +0.024 C 
ATOM      9  C   UNL     1      31.278  -9.110 -20.600  0.00  0.00    +0.093 C 
ATOM     10  C   UNL     1      31.899  -7.513 -22.426  0.00  0.00    +0.181 C 
ATOM     11  C   UNL     1      31.807  -6.442 -21.522  0.00  0.00    +0.131 C 
ATOM     12  C   UNL     1      32.068  -5.176 -22.005  0.00  0.00    +0.109 C 
ATOM     13  C   UNL     1      32.471  -5.998 -24.086  0.00  0.00    +0.212 C 
ATOM     14  C   UNL     1      31.985  -4.006 -21.083  0.00  0.00    +0.063 C 
ATOM     15  C   UNL     1      32.938  -6.711 -26.395  0.00  0.00    +0.104 C 
ATOM     16  C   UNL     1      33.089  -4.552 -25.979  0.00  0.00    +0.182 C 
ATOM     17  C   UNL     1      33.288  -6.005 -27.522  0.00  0.00    +0.118 C 
ENDROOT
BRANCH   6  20
ATOM     18  O   UNL     1      33.869  -9.693 -23.298  0.00  0.00    -0.273 OA
ATOM     19  N   UNL     1      32.948 -11.829 -23.406  0.00  0.00    -0.303 N 
ATOM     20  C   UNL     1      32.916 -10.460 -23.196  0.00  0.00    +0.241 C 
ATOM     21  H   UNL     1      32.115 -12.340 -23.295  0.00  0.00    +0.149 HD
BRANCH  19  22
ATOM     22  C   UNL     1      34.148 -12.543 -23.780  0.00  0.00    +0.094 C 
BRANCH  22  23
ATOM     23  C   UNL     1      33.868 -13.988 -24.184  0.00  0.00    +0.048 C 
BRANCH  23  26
ATOM     24  O   UNL     1      35.669 -18.387 -22.849  0.00  0.00    -0.435 OA
ATOM     25  O   UNL     1      35.707 -17.792 -20.514  0.00  0.00    -0.435 OA
ATOM     26  C   UNL     1      34.358 -14.989 -23.167  0.00  0.00    -0.017 C 
ATOM     27  C   UNL     1      34.780 -16.240 -23.598  0.00  0.00    +0.036 C 
ATOM     28  C   UNL     1      34.375 -14.632 -21.816  0.00  0.00    -0.001 C 
ATOM     29  C   UNL     1      35.219 -17.121 -22.630  0.00  0.00    +0.176 C 
ATOM     30  C   UNL     1      35.241 -16.782 -21.298  0.00  0.00    +0.176 C 
ATOM     31  C   UNL     1      34.824 -15.542 -20.857  0.00  0.00    +0.040 C 
ATOM     32  C   UNL     1      35.977 -18.806 -21.505  0.00  0.00    +0.429 C 
ENDBRANCH  23  26
ENDBRANCH  22  23
ENDBRANCH  19  22
ENDBRANCH   6  20
TORSDOF 4
ENDMDL
MODEL 3
REMARK VINA RESULT:      -9.0     11.427     16.212
REMARK  Name = 16115747
REMARK  4 active torsions:
REMARK  status: ('A' for Active; 'I' for Inactive)
REMARK    1  A    between atoms: C_6  and  C_20
REMARK    2  A    between atoms: N_19  and  C_22
REMARK    3  A    between atoms: C_22  and  C_23
REMARK    4  A    between atoms: C_23  and  C_26
REMARK                            x       y       z     vdW  Elec       q    Type
REMARK                         _______ _______ _______ _____ _____    ______ ____
ROOT
ATOM      1  N   UNL     1      31.740  -9.366 -21.526  0.00  0.00    -0.279 N 
ATOM      2  N   UNL     1      32.354  -7.708 -23.144  0.00  0.00    -0.316 NA
ATOM      3  N   UNL     1      32.831  -5.454 -22.440  0.00  0.00    -0.336 NA
ATOM      4  N   UNL     1      32.952  -6.067 -24.680  0.00  0.00    -0.170 N 
ATOM      5  N   UNL     1      33.485  -4.803 -26.430  0.00  0.00    -0.224 NA
ATOM      6  C   UNL     1      31.430 -10.409 -22.505  0.00  0.00    +0.151 C 
ATOM      7  C   UNL     1      30.667 -11.462 -21.699  0.00  0.00    +0.031 C 
ATOM      8  C   UNL     1      31.234 -11.315 -20.295  0.00  0.00    +0.024 C 
ATOM      9  C   UNL     1      31.460  -9.812 -20.160  0.00  0.00    +0.093 C 
ATOM     10  C   UNL     1      32.103  -8.071 -21.841  0.00  0.00    +0.181 C 
ATOM     11  C   UNL     1      32.215  -7.120 -20.814  0.00  0.00    +0.131 C 
ATOM     12  C   UNL     1      32.578  -5.837 -21.170  0.00  0.00    +0.109 C 
ATOM     13  C   UNL     1      32.702  -6.426 -23.362  0.00  0.00    +0.212 C 
ATOM     14  C   UNL     1      32.711  -4.791 -20.115  0.00  0.00    +0.063 C 
ATOM     15  C   UNL     1      32.882  -6.887 -25.773  0.00  0.00    +0.104 C 
ATOM     16  C   UNL     1      33.318  -4.825 -25.127  0.00  0.00    +0.182 C 
ATOM     17  C   UNL     1      33.214  -6.084 -26.840  0.00  0.00    +0.118 C 
ENDROOT
BRANCH   6  20
ATOM     18  O   UNL     1      33.678 -10.287 -23.295  0.00  0.00    -0.273 OA
ATOM     19  N   UNL     1      32.611 -12.356 -23.241  0.00  0.00    -0.303 N 
ATOM     20  C   UNL     1      32.701 -10.988 -23.046  0.00  0.00    +0.241 C 
ATOM     21  H   UNL     1      31.771 -12.809 -23.004  0.00  0.00    +0.149 HD
BRANCH  19  22
ATOM     22  C   UNL     1      33.694 -13.150 -23.776  0.00  0.00    +0.094 C 
BRANCH  22  23
ATOM     23  C   UNL     1      34.609 -13.702 -22.685  0.00  0.00    +0.048 C 
BRANCH  23  26
ATOM     24  O   UNL     1      35.503 -18.130 -20.691  0.00  0.00    -0.435 OA
ATOM     25  O   UNL     1      35.218 -19.264 -22.798  0.00  0.00    -0.435 OA
ATOM     26  C   UNL     1      34.766 -15.202 -22.752  0.00  0.00    -0.017 C 
ATOM     27  C   UNL     1      35.073 -15.902 -21.593  0.00  0.00    +0.036 C 
ATOM     28  C   UNL     1      34.598 -15.848 -23.981  0.00  0.00    -0.001 C 
ATOM     29  C   UNL     1      35.206 -17.272 -21.705  0.00  0.00    +0.176 C 
ATOM     30  C   UNL     1      35.043 -17.919 -22.908  0.00  0.00    +0.176 C 
ATOM     31  C   UNL     1      34.739 -17.234 -24.066  0.00  0.00    +0.040 C 
ATOM     32  C   UNL     1      35.509 -19.390 -21.391  0.00  0.00    +0.429 C 
ENDBRANCH  23  26
ENDBRANCH  22  23
ENDBRANCH  19  22
ENDBRANCH   6  20
TORSDOF 4
ENDMDL
MODEL 4
REMARK VINA RESULT:      -8.8      2.108      4.743
REMARK  Name = 16115747
REMARK  4 active torsions:
REMARK  status: ('A' for Active; 'I' for Inactive)
REMARK    1  A    between atoms: C_6  and  C_20
REMARK    2  A    between atoms: N_19  and  C_22
REMARK    3  A    between atoms: C_22  and  C_23
REMARK    4  A    between atoms: C_23  and  C_26
REMARK                            x       y       z     vdW  Elec       q    Type
REMARK                         _______ _______ _______ _____ _____    ______ ____
ROOT
ATOM      1  N   UNL     1      32.673 -24.106 -13.573  0.00  0.00    -0.279 N 
ATOM      2  N   UNL     1      34.754 -23.253 -14.400  0.00  0.00    -0.316 NA
ATOM      3  N   UNL     1      36.835 -24.192 -13.630  0.00  0.00    -0.336 NA
ATOM      4  N   UNL     1      36.797 -22.454 -15.176  0.00  0.00    -0.170 N 
ATOM      5  N   UNL     1      38.516 -21.430 -16.145  0.00  0.00    -0.224 NA
ATOM      6  C   UNL     1      31.838 -23.097 -14.226  0.00  0.00    +0.151 C 
ATOM      7  C   UNL     1      30.478 -23.238 -13.540  0.00  0.00    +0.031 C 
ATOM      8  C   UNL     1      30.432 -24.705 -13.138  0.00  0.00    +0.024 C 
ATOM      9  C   UNL     1      31.874 -25.009 -12.742  0.00  0.00    +0.093 C 
ATOM     10  C   UNL     1      34.054 -24.125 -13.600  0.00  0.00    +0.181 C 
ATOM     11  C   UNL     1      34.744 -25.050 -12.799  0.00  0.00    +0.131 C 
ATOM     12  C   UNL     1      36.123 -25.036 -12.854  0.00  0.00    +0.109 C 
ATOM     13  C   UNL     1      36.097 -23.340 -14.367  0.00  0.00    +0.212 C 
ATOM     14  C   UNL     1      36.901 -26.000 -12.022  0.00  0.00    +0.063 C 
ATOM     15  C   UNL     1      36.256 -21.507 -16.002  0.00  0.00    +0.104 C 
ATOM     16  C   UNL     1      38.158 -22.368 -15.297  0.00  0.00    +0.182 C 
ATOM     17  C   UNL     1      37.335 -20.889 -16.587  0.00  0.00    +0.118 C 
ENDROOT
BRANCH   6  20
ATOM     18  O   UNL     1      30.838 -24.143 -16.122  0.00  0.00    -0.273 OA
ATOM     19  N   UNL     1      32.713 -22.797 -16.433  0.00  0.00    -0.303 N 
ATOM     20  C   UNL     1      31.720 -23.408 -15.686  0.00  0.00    +0.241 C 
ATOM     21  H   UNL     1      33.367 -22.228 -15.968  0.00  0.00    +0.149 HD
BRANCH  19  22
ATOM     22  C   UNL     1      32.834 -22.955 -17.865  0.00  0.00    +0.094 C 
BRANCH  22  23
ATOM     23  C   UNL     1      34.272 -22.795 -18.352  0.00  0.00    +0.048 C 
BRANCH  23  26
ATOM     24  O   UNL     1      37.043 -19.439 -20.684  0.00  0.00    -0.435 OA
ATOM     25  O   UNL     1      35.117 -18.331 -21.619  0.00  0.00    -0.435 OA
ATOM     26  C   UNL     1      34.463 -21.588 -19.237  0.00  0.00    -0.017 C 
ATOM     27  C   UNL     1      35.751 -21.138 -19.498  0.00  0.00    +0.036 C 
ATOM     28  C   UNL     1      33.338 -20.955 -19.773  0.00  0.00    -0.001 C 
ATOM     29  C   UNL     1      35.874 -20.031 -20.313  0.00  0.00    +0.176 C 
ATOM     30  C   UNL     1      34.775 -19.398 -20.847  0.00  0.00    +0.176 C 
ATOM     31  C   UNL     1      33.491 -19.836 -20.594  0.00  0.00    +0.040 C 
ATOM     32  C   UNL     1      36.556 -18.363 -21.511  0.00  0.00    +0.429 C 
ENDBRANCH  23  26
ENDBRANCH  22  23
ENDBRANCH  19  22
ENDBRANCH   6  20
TORSDOF 4
ENDMDL
MODEL 5
REMARK VINA RESULT:      -8.8     12.586     17.648
REMARK  Name = 16115747
REMARK  4 active torsions:
REMARK  status: ('A' for Active; 'I' for Inactive)
REMARK    1  A    between atoms: C_6  and  C_20
REMARK    2  A    between atoms: N_19  and  C_22
REMARK    3  A    between atoms: C_22  and  C_23
REMARK    4  A    between atoms: C_23  and  C_26
REMARK                            x       y       z     vdW  Elec       q    Type
REMARK                         _______ _______ _______ _____ _____    ______ ____
ROOT
ATOM      1  N   UNL     1      31.859  -7.684 -22.389  0.00  0.00    -0.279 N 
ATOM      2  N   UNL     1      32.452  -6.554 -24.418  0.00  0.00    -0.316 NA
ATOM      3  N   UNL     1      32.610  -4.151 -24.458  0.00  0.00    -0.336 NA
ATOM      4  N   UNL     1      33.023  -5.417 -26.365  0.00  0.00    -0.170 N 
ATOM      5  N   UNL     1      33.590  -4.710 -28.395  0.00  0.00    -0.224 NA
ATOM      6  C   UNL     1      31.764  -9.014 -22.992  0.00  0.00    +0.151 C 
ATOM      7  C   UNL     1      31.041  -9.851 -21.935  0.00  0.00    +0.031 C 
ATOM      8  C   UNL     1      31.443  -9.194 -20.623  0.00  0.00    +0.024 C 
ATOM      9  C   UNL     1      31.492  -7.709 -20.972  0.00  0.00    +0.093 C 
ATOM     10  C   UNL     1      32.111  -6.518 -23.086  0.00  0.00    +0.181 C 
ATOM     11  C   UNL     1      32.015  -5.285 -22.420  0.00  0.00    +0.131 C 
ATOM     12  C   UNL     1      32.273  -4.144 -23.151  0.00  0.00    +0.109 C 
ATOM     13  C   UNL     1      32.680  -5.372 -25.020  0.00  0.00    +0.212 C 
ATOM     14  C   UNL     1      32.185  -2.811 -22.487  0.00  0.00    +0.063 C 
ATOM     15  C   UNL     1      33.152  -6.541 -27.134  0.00  0.00    +0.104 C 
ATOM     16  C   UNL     1      33.296  -4.342 -27.169  0.00  0.00    +0.182 C 
ATOM     17  C   UNL     1      33.501  -6.079 -28.381  0.00  0.00    +0.118 C 
ENDROOT
BRANCH   6  20
ATOM     18  O   UNL     1      34.136  -8.846 -23.175  0.00  0.00    -0.273 OA
ATOM     19  N   UNL     1      33.117 -10.906 -23.552  0.00  0.00    -0.303 N 
ATOM     20  C   UNL     1      33.137  -9.557 -23.237  0.00  0.00    +0.241 C 
ATOM     21  H   UNL     1      32.250 -11.370 -23.571  0.00  0.00    +0.149 HD
BRANCH  19  22
ATOM     22  C   UNL     1      34.311 -11.664 -23.855  0.00  0.00    +0.094 C 
BRANCH  22  23
ATOM     23  C   UNL     1      34.001 -13.095 -24.286  0.00  0.00    +0.048 C 
BRANCH  23  26
ATOM     24  O   UNL     1      35.474 -17.562 -22.784  0.00  0.00    -0.435 OA
ATOM     25  O   UNL     1      35.278 -16.970 -20.456  0.00  0.00    -0.435 OA
ATOM     26  C   UNL     1      34.338 -14.115 -23.227  0.00  0.00    -0.017 C 
ATOM     27  C   UNL     1      34.756 -15.382 -23.615  0.00  0.00    +0.036 C 
ATOM     28  C   UNL     1      34.219 -13.760 -21.880  0.00  0.00    -0.001 C 
ATOM     29  C   UNL     1      35.052 -16.280 -22.609  0.00  0.00    +0.176 C 
ATOM     30  C   UNL     1      34.940 -15.942 -21.281  0.00  0.00    +0.176 C 
ATOM     31  C   UNL     1      34.525 -14.688 -20.883  0.00  0.00    +0.040 C 
ATOM     32  C   UNL     1      35.616 -17.993 -21.416  0.00  0.00    +0.429 C 
ENDBRANCH  23  26
ENDBRANCH  22  23
ENDBRANCH  19  22
ENDBRANCH   6  20
TORSDOF 4
ENDMDL
MODEL 6
REMARK VINA RESULT:      -8.6      3.463      8.095
REMARK  Name = 16115747
REMARK  4 active torsions:
REMARK  status: ('A' for Active; 'I' for Inactive)
REMARK    1  A    between atoms: C_6  and  C_20
REMARK    2  A    between atoms: N_19  and  C_22
REMARK    3  A    between atoms: C_22  and  C_23
REMARK    4  A    between atoms: C_23  and  C_26
REMARK                            x       y       z     vdW  Elec       q    Type
REMARK                         _______ _______ _______ _____ _____    ______ ____
ROOT
ATOM      1  N   UNL     1      31.502 -23.921 -15.470  0.00  0.00    -0.279 N 
ATOM      2  N   UNL     1      33.788 -23.332 -15.879  0.00  0.00    -0.316 NA
ATOM      3  N   UNL     1      34.353 -21.903 -17.735  0.00  0.00    -0.336 NA
ATOM      4  N   UNL     1      35.995 -22.737 -16.315  0.00  0.00    -0.170 N 
ATOM      5  N   UNL     1      38.191 -22.400 -16.395  0.00  0.00    -0.224 NA
ATOM      6  C   UNL     1      31.792 -24.873 -14.397  0.00  0.00    +0.151 C 
ATOM      7  C   UNL     1      30.484 -25.647 -14.221  0.00  0.00    +0.031 C 
ATOM      8  C   UNL     1      29.418 -24.640 -14.628  0.00  0.00    +0.024 C 
ATOM      9  C   UNL     1      30.071 -23.877 -15.776  0.00  0.00    +0.093 C 
ATOM     10  C   UNL     1      32.457 -23.255 -16.214  0.00  0.00    +0.181 C 
ATOM     11  C   UNL     1      32.055 -22.493 -17.324  0.00  0.00    +0.131 C 
ATOM     12  C   UNL     1      33.039 -21.845 -18.041  0.00  0.00    +0.109 C 
ATOM     13  C   UNL     1      34.652 -22.653 -16.658  0.00  0.00    +0.212 C 
ATOM     14  C   UNL     1      32.662 -21.023 -19.228  0.00  0.00    +0.063 C 
ATOM     15  C   UNL     1      36.524 -23.438 -15.266  0.00  0.00    +0.104 C 
ATOM     16  C   UNL     1      37.037 -22.130 -16.964  0.00  0.00    +0.182 C 
ATOM     17  C   UNL     1      37.879 -23.215 -15.337  0.00  0.00    +0.118 C 
ENDROOT
BRANCH   6  20
ATOM     18  O   UNL     1      31.280 -23.522 -12.499  0.00  0.00    -0.273 OA
ATOM     19  N   UNL     1      33.480 -24.207 -12.837  0.00  0.00    -0.303 N 
ATOM     20  C   UNL     1      32.131 -24.131 -13.141  0.00  0.00    +0.241 C 
ATOM     21  H   UNL     1      34.066 -24.727 -13.431  0.00  0.00    +0.149 HD
BRANCH  19  22
ATOM     22  C   UNL     1      34.067 -23.557 -11.687  0.00  0.00    +0.094 C 
BRANCH  22  23
ATOM     23  C   UNL     1      34.979 -24.488 -10.891  0.00  0.00    +0.048 C 
BRANCH  23  26
ATOM     24  O   UNL     1      38.374 -26.748 -13.674  0.00  0.00    -0.435 OA
ATOM     25  O   UNL     1      40.049 -25.087 -13.182  0.00  0.00    -0.435 OA
ATOM     26  C   UNL     1      36.357 -24.618 -11.492  0.00  0.00    -0.017 C 
ATOM     27  C   UNL     1      36.634 -25.698 -12.320  0.00  0.00    +0.036 C 
ATOM     28  C   UNL     1      37.320 -23.648 -11.199  0.00  0.00    -0.001 C 
ATOM     29  C   UNL     1      37.909 -25.773 -12.846  0.00  0.00    +0.176 C 
ATOM     30  C   UNL     1      38.865 -24.825 -12.566  0.00  0.00    +0.176 C 
ATOM     31  C   UNL     1      38.601 -23.748 -11.744  0.00  0.00    +0.040 C 
ATOM     32  C   UNL     1      39.730 -26.307 -13.883  0.00  0.00    +0.429 C 
ENDBRANCH  23  26
ENDBRANCH  22  23
ENDBRANCH  19  22
ENDBRANCH   6  20
TORSDOF 4
ENDMDL
MODEL 7
REMARK VINA RESULT:      -8.4      3.830      5.282
REMARK  Name = 16115747
REMARK  4 active torsions:
REMARK  status: ('A' for Active; 'I' for Inactive)
REMARK    1  A    between atoms: C_6  and  C_20
REMARK    2  A    between atoms: N_19  and  C_22
REMARK    3  A    between atoms: C_22  and  C_23
REMARK    4  A    between atoms: C_23  and  C_26
REMARK                            x       y       z     vdW  Elec       q    Type
REMARK                         _______ _______ _______ _____ _____    ______ ____
ROOT
ATOM      1  N   UNL     1      33.539 -22.837 -16.564  0.00  0.00    -0.279 N 
ATOM      2  N   UNL     1      31.171 -22.810 -16.195  0.00  0.00    -0.316 NA
ATOM      3  N   UNL     1      30.300 -22.854 -13.949  0.00  0.00    -0.336 NA
ATOM      4  N   UNL     1      28.880 -22.787 -15.790  0.00  0.00    -0.170 N 
ATOM      5  N   UNL     1      26.657 -22.751 -15.819  0.00  0.00    -0.224 NA
ATOM      6  C   UNL     1      33.452 -22.961 -18.019  0.00  0.00    +0.151 C 
ATOM      7  C   UNL     1      34.867 -23.358 -18.445  0.00  0.00    +0.031 C 
ATOM      8  C   UNL     1      35.750 -22.721 -17.381  0.00  0.00    +0.024 C 
ATOM      9  C   UNL     1      34.928 -22.869 -16.105  0.00  0.00    +0.093 C 
ATOM     10  C   UNL     1      32.456 -22.841 -15.706  0.00  0.00    +0.181 C 
ATOM     11  C   UNL     1      32.679 -22.880 -14.319  0.00  0.00    +0.131 C 
ATOM     12  C   UNL     1      31.572 -22.885 -13.496  0.00  0.00    +0.109 C 
ATOM     13  C   UNL     1      30.175 -22.817 -15.289  0.00  0.00    +0.212 C 
ATOM     14  C   UNL     1      31.756 -22.925 -12.016  0.00  0.00    +0.063 C 
ATOM     15  C   UNL     1      28.520 -22.748 -17.109  0.00  0.00    +0.104 C 
ATOM     16  C   UNL     1      27.725 -22.788 -15.054  0.00  0.00    +0.182 C 
ATOM     17  C   UNL     1      27.145 -22.727 -17.101  0.00  0.00    +0.118 C 
ENDROOT
BRANCH   6  20
ATOM     18  O   UNL     1      32.025 -21.077 -18.339  0.00  0.00    -0.273 OA
ATOM     19  N   UNL     1      34.035 -21.183 -19.510  0.00  0.00    -0.303 N 
ATOM     20  C   UNL     1      33.079 -21.641 -18.619  0.00  0.00    +0.241 C 
ATOM     21  H   UNL     1      34.842 -21.726 -19.653  0.00  0.00    +0.149 HD
BRANCH  19  22
ATOM     22  C   UNL     1      33.903 -19.942 -20.240  0.00  0.00    +0.094 C 
BRANCH  22  23
ATOM     23  C   UNL     1      35.189 -19.548 -20.962  0.00  0.00    +0.048 C 
BRANCH  23  26
ATOM     24  O   UNL     1      35.174 -15.091 -23.087  0.00  0.00    -0.435 OA
ATOM     25  O   UNL     1      34.348 -15.963 -25.176  0.00  0.00    -0.435 OA
ATOM     26  C   UNL     1      34.951 -18.610 -22.120  0.00  0.00    -0.017 C 
ATOM     27  C   UNL     1      35.214 -17.256 -21.958  0.00  0.00    +0.036 C 
ATOM     28  C   UNL     1      34.471 -19.128 -23.326  0.00  0.00    -0.001 C 
ATOM     29  C   UNL     1      34.980 -16.438 -23.045  0.00  0.00    +0.176 C 
ATOM     30  C   UNL     1      34.509 -16.935 -24.238  0.00  0.00    +0.176 C 
ATOM     31  C   UNL     1      34.244 -18.278 -24.410  0.00  0.00    +0.040 C 
ATOM     32  C   UNL     1      34.771 -14.797 -24.439  0.00  0.00    +0.429 C 
ENDBRANCH  23  26
ENDBRANCH  22  23
ENDBRANCH  19  22
ENDBRANCH   6  20
TORSDOF 4
ENDMDL
MODEL 8
REMARK VINA RESULT:      -8.2      3.380      5.526
REMARK  Name = 16115747
REMARK  4 active torsions:
REMARK  status: ('A' for Active; 'I' for Inactive)
REMARK    1  A    between atoms: C_6  and  C_20
REMARK    2  A    between atoms: N_19  and  C_22
REMARK    3  A    between atoms: C_22  and  C_23
REMARK    4  A    between atoms: C_23  and  C_26
REMARK                            x       y       z     vdW  Elec       q    Type
REMARK                         _______ _______ _______ _____ _____    ______ ____
ROOT
ATOM      1  N   UNL     1      35.088 -22.310 -17.923  0.00  0.00    -0.279 N 
ATOM      2  N   UNL     1      33.002 -22.683 -16.805  0.00  0.00    -0.316 NA
ATOM      3  N   UNL     1      32.966 -23.155 -14.443  0.00  0.00    -0.336 NA
ATOM      4  N   UNL     1      30.999 -23.053 -15.679  0.00  0.00    -0.170 N 
ATOM      5  N   UNL     1      28.910 -23.342 -14.977  0.00  0.00    -0.224 NA
ATOM      6  C   UNL     1      34.516 -22.250 -19.269  0.00  0.00    +0.151 C 
ATOM      7  C   UNL     1      35.729 -22.372 -20.194  0.00  0.00    +0.031 C 
ATOM      8  C   UNL     1      36.860 -21.761 -19.381  0.00  0.00    +0.024 C 
ATOM      9  C   UNL     1      36.547 -22.198 -17.954  0.00  0.00    +0.093 C 
ATOM     10  C   UNL     1      34.373 -22.589 -16.775  0.00  0.00    +0.181 C 
ATOM     11  C   UNL     1      35.063 -22.780 -15.565  0.00  0.00    +0.131 C 
ATOM     12  C   UNL     1      34.313 -23.059 -14.441  0.00  0.00    +0.109 C 
ATOM     13  C   UNL     1      32.384 -22.959 -15.640  0.00  0.00    +0.212 C 
ATOM     14  C   UNL     1      35.000 -23.269 -13.134  0.00  0.00    +0.063 C 
ATOM     15  C   UNL     1      30.204 -22.891 -16.781  0.00  0.00    +0.104 C 
ATOM     16  C   UNL     1      30.174 -23.323 -14.620  0.00  0.00    +0.182 C 
ATOM     17  C   UNL     1      28.921 -23.075 -16.322  0.00  0.00    +0.118 C 
ENDROOT
BRANCH   6  20
ATOM     18  O   UNL     1      32.705 -20.714 -19.052  0.00  0.00    -0.273 OA
ATOM     19  N   UNL     1      34.624 -20.043 -20.188  0.00  0.00    -0.303 N 
ATOM     20  C   UNL     1      33.838 -20.931 -19.472  0.00  0.00    +0.241 C 
ATOM     21  H   UNL     1      35.519 -20.334 -20.473  0.00  0.00    +0.149 HD
BRANCH  19  22
ATOM     22  C   UNL     1      34.190 -18.709 -20.538  0.00  0.00    +0.094 C 
BRANCH  22  23
ATOM     23  C   UNL     1      35.340 -17.827 -21.017  0.00  0.00    +0.048 C 
BRANCH  23  26
ATOM     24  O   UNL     1      34.036 -14.301 -24.217  0.00  0.00    -0.435 OA
ATOM     25  O   UNL     1      33.707 -12.675 -22.469  0.00  0.00    -0.435 OA
ATOM     26  C   UNL     1      34.900 -16.428 -21.372  0.00  0.00    -0.017 C 
ATOM     27  C   UNL     1      34.691 -16.103 -22.706  0.00  0.00    +0.036 C 
ATOM     28  C   UNL     1      34.713 -15.494 -20.349  0.00  0.00    -0.001 C 
ATOM     29  C   UNL     1      34.290 -14.811 -22.981  0.00  0.00    +0.176 C 
ATOM     30  C   UNL     1      34.102 -13.883 -21.984  0.00  0.00    +0.176 C 
ATOM     31  C   UNL     1      34.307 -14.194 -20.655  0.00  0.00    +0.040 C 
ATOM     32  C   UNL     1      33.667 -12.947 -23.885  0.00  0.00    +0.429 C 
ENDBRANCH  23  26
ENDBRANCH  22  23
ENDBRANCH  19  22
ENDBRANCH   6  20
TORSDOF 4
ENDMDL
MODEL 9
REMARK VINA RESULT:      -8.1      3.348      7.495
REMARK  Name = 16115747
REMARK  4 active torsions:
REMARK  status: ('A' for Active; 'I' for Inactive)
REMARK    1  A    between atoms: C_6  and  C_20
REMARK    2  A    between atoms: N_19  and  C_22
REMARK    3  A    between atoms: C_22  and  C_23
REMARK    4  A    between atoms: C_23  and  C_26
REMARK                            x       y       z     vdW  Elec       q    Type
REMARK                         _______ _______ _______ _____ _____    ______ ____
ROOT
ATOM      1  N   UNL     1      35.803 -22.510 -16.350  0.00  0.00    -0.279 N 
ATOM      2  N   UNL     1      33.456 -22.932 -16.107  0.00  0.00    -0.316 NA
ATOM      3  N   UNL     1      31.927 -22.284 -17.853  0.00  0.00    -0.336 NA
ATOM      4  N   UNL     1      31.171 -23.320 -15.913  0.00  0.00    -0.170 N 
ATOM      5  N   UNL     1      29.086 -23.859 -15.357  0.00  0.00    -0.224 NA
ATOM      6  C   UNL     1      36.162 -22.937 -14.998  0.00  0.00    +0.151 C 
ATOM      7  C   UNL     1      37.588 -22.413 -14.809  0.00  0.00    +0.031 C 
ATOM      8  C   UNL     1      38.157 -22.413 -16.220  0.00  0.00    +0.024 C 
ATOM      9  C   UNL     1      36.966 -22.006 -17.082  0.00  0.00    +0.093 C 
ATOM     10  C   UNL     1      34.513 -22.441 -16.839  0.00  0.00    +0.181 C 
ATOM     11  C   UNL     1      34.285 -21.861 -18.098  0.00  0.00    +0.131 C 
ATOM     12  C   UNL     1      32.982 -21.809 -18.549  0.00  0.00    +0.109 C 
ATOM     13  C   UNL     1      32.232 -22.824 -16.658  0.00  0.00    +0.212 C 
ATOM     14  C   UNL     1      32.689 -21.203 -19.881  0.00  0.00    +0.063 C 
ATOM     15  C   UNL     1      31.248 -23.907 -14.679  0.00  0.00    +0.104 C 
ATOM     16  C   UNL     1      29.851 -23.314 -16.277  0.00  0.00    +0.182 C 
ATOM     17  C   UNL     1      29.950 -24.230 -14.358  0.00  0.00    +0.118 C 
ENDROOT
BRANCH   6  20
ATOM     18  O   UNL     1      35.108 -25.055 -14.695  0.00  0.00    -0.273 OA
ATOM     19  N   UNL     1      37.401 -24.982 -15.095  0.00  0.00    -0.303 N 
ATOM     20  C   UNL     1      36.142 -24.432 -14.917  0.00  0.00    +0.241 C 
ATOM     21  H   UNL     1      38.157 -24.377 -15.267  0.00  0.00    +0.149 HD
BRANCH  19  22
ATOM     22  C   UNL     1      37.656 -26.404 -15.040  0.00  0.00    +0.094 C 
BRANCH  22  23
ATOM     23  C   UNL     1      38.153 -26.857 -13.670  0.00  0.00    +0.048 C 
BRANCH  23  26
ATOM     24  O   UNL     1      35.305 -25.231  -9.978  0.00  0.00    -0.435 OA
ATOM     25  O   UNL     1      36.739 -23.342  -9.551  0.00  0.00    -0.435 OA
ATOM     26  C   UNL     1      37.802 -25.889 -12.566  0.00  0.00    -0.017 C 
ATOM     27  C   UNL     1      36.654 -26.107 -11.815  0.00  0.00    +0.036 C 
ATOM     28  C   UNL     1      38.642 -24.797 -12.329  0.00  0.00    -0.001 C 
ATOM     29  C   UNL     1      36.376 -25.194 -10.818  0.00  0.00    +0.176 C 
ATOM     30  C   UNL     1      37.195 -24.116 -10.574  0.00  0.00    +0.176 C 
ATOM     31  C   UNL     1      38.337 -23.888 -11.314  0.00  0.00    +0.040 C 
ATOM     32  C   UNL     1      35.542 -24.056  -9.178  0.00  0.00    +0.429 C 
ENDBRANCH  23  26
ENDBRANCH  22  23
ENDBRANCH  19  22
ENDBRANCH   6  20
TORSDOF 4
ENDMDL
