MODEL 1
REMARK VINA RESULT:     -11.9      0.000      0.000
REMARK  Name = 24755471
REMARK  13 active torsions:
REMARK  status: ('A' for Active; 'I' for Inactive)
REMARK    1  A    between atoms: C_1  and  S_11
REMARK    2  A    between atoms: C_9  and  O_27
REMARK    3  A    between atoms: S_11  and  N_14
REMARK    4  A    between atoms: N_14  and  C_16
REMARK    5  A    between atoms: C_16  and  C_18
REMARK    6  A    between atoms: C_16  and  C_21
REMARK    7  A    between atoms: C_18  and  O_19
REMARK    8  A    between atoms: C_21  and  C_22
REMARK    9  A    between atoms: C_22  and  C_24
REMARK   10  A    between atoms: C_24  and  O_25
REMARK   11  A    between atoms: O_27  and  C_28
REMARK   12  A    between atoms: C_28  and  C_29
REMARK   13  A    between atoms: C_34  and  C_36
REMARK                            x       y       z     vdW  Elec       q    Type
REMARK                         _______ _______ _______ _____ _____    ______ ____
ROOT
ATOM      1  C   UNL     1      34.210 -23.622 -15.108  0.00  0.00    +0.122 C 
ATOM      2  C   UNL     1      35.393 -22.423 -16.864  0.00  0.00    +0.002 C 
ATOM      3  C   UNL     1      35.377 -23.034 -15.600  0.00  0.00    +0.020 C 
ATOM      4  C   UNL     1      34.210 -22.407 -17.641  0.00  0.00    +0.003 C 
ATOM      5  C   UNL     1      33.047 -23.607 -15.872  0.00  0.00    +0.020 C 
ATOM      6  C   UNL     1      33.045 -23.004 -17.130  0.00  0.00    +0.001 C 
ATOM      7  C   UNL     1      34.226 -21.796 -18.905  0.00  0.00    +0.037 C 
ATOM      8  C   UNL     1      36.558 -21.825 -17.375  0.00  0.00    +0.003 C 
ATOM      9  C   UNL     1      35.392 -21.208 -19.396  0.00  0.00    +0.139 C 
ATOM     10  C   UNL     1      36.556 -21.222 -18.633  0.00  0.00    +0.037 C 
ENDROOT
BRANCH   1  11
ATOM     11  S   UNL     1      34.212 -24.387 -13.514  0.00  0.00    +0.061 S 
ATOM     12  O   UNL     1      34.468 -23.357 -12.526  0.00  0.00    -0.153 OA
ATOM     13  O   UNL     1      33.010 -25.195 -13.433  0.00  0.00    -0.153 OA
BRANCH  11  14
ATOM     14  N   UNL     1      35.561 -25.415 -13.621  0.00  0.00    -0.170 NA
ATOM     15  H   UNL     1      35.692 -25.626 -14.610  0.00  0.00    +0.149 HD
BRANCH  14  16
ATOM     16  C   UNL     1      36.872 -24.969 -13.101  0.00  0.00    +0.174 C 
BRANCH  16  18
ATOM     17  O   UNL     1      37.099 -24.650 -10.700  0.00  0.00    -0.249 OA
ATOM     18  C   UNL     1      36.975 -25.403 -11.658  0.00  0.00    +0.330 C 
BRANCH  18  19
ATOM     19  O   UNL     1      36.895 -26.752 -11.523  0.00  0.00    -0.479 OA
ATOM     20  H   UNL     1      36.058 -27.171 -11.499  0.00  0.00    +0.295 HD
ENDBRANCH  18  19
ENDBRANCH  16  18
BRANCH  16  21
ATOM     21  C   UNL     1      38.005 -25.473 -14.002  0.00  0.00    +0.040 C 
BRANCH  21  22
ATOM     22  C   UNL     1      39.420 -25.408 -13.418  0.00  0.00    +0.111 C 
BRANCH  22  24
ATOM     23  O   UNL     1      41.322 -26.856 -13.764  0.00  0.00    -0.250 OA
ATOM     24  C   UNL     1      40.453 -26.137 -14.240  0.00  0.00    +0.314 C 
BRANCH  24  25
ATOM     25  O   UNL     1      40.331 -25.897 -15.570  0.00  0.00    -0.480 OA
ATOM     26  H   UNL     1      39.839 -25.157 -15.868  0.00  0.00    +0.295 HD
ENDBRANCH  24  25
ENDBRANCH  22  24
ENDBRANCH  21  22
ENDBRANCH  16  21
ENDBRANCH  14  16
ENDBRANCH  11  14
ENDBRANCH   1  11
BRANCH   9  27
ATOM     27  O   UNL     1      35.392 -20.621 -20.624  0.00  0.00    -0.471 OA
BRANCH  27  28
ATOM     28  C   UNL     1      36.187 -19.447 -20.783  0.00  0.00    +0.232 C 
BRANCH  28  29
ATOM     29  C   UNL     1      35.585 -18.589 -21.857  0.00  0.00    +0.021 C 
ATOM     30  C   UNL     1      35.662 -17.199 -21.764  0.00  0.00    -0.000 C 
ATOM     31  C   UNL     1      34.947 -19.181 -22.947  0.00  0.00    -0.000 C 
ATOM     32  C   UNL     1      35.102 -16.402 -22.761  0.00  0.00    +0.010 C 
ATOM     33  C   UNL     1      34.388 -18.384 -23.945  0.00  0.00    +0.010 C 
ATOM     34  C   UNL     1      34.465 -16.994 -23.852  0.00  0.00    +0.068 C 
BRANCH  34  36
ATOM     35  N   UNL     1      33.427 -15.512 -25.705  0.00  0.00    -0.191 NA
ATOM     36  C   UNL     1      33.891 -16.176 -24.875  0.00  0.00    +0.100 C 
ENDBRANCH  34  36
ENDBRANCH  28  29
ENDBRANCH  27  28
ENDBRANCH   9  27
TORSDOF 13
ENDMDL
MODEL 2
REMARK VINA RESULT:     -11.9      1.645      3.394
REMARK  Name = 24755471
REMARK  13 active torsions:
REMARK  status: ('A' for Active; 'I' for Inactive)
REMARK    1  A    between atoms: C_1  and  S_11
REMARK    2  A    between atoms: C_9  and  O_27
REMARK    3  A    between atoms: S_11  and  N_14
REMARK    4  A    between atoms: N_14  and  C_16
REMARK    5  A    between atoms: C_16  and  C_18
REMARK    6  A    between atoms: C_16  and  C_21
REMARK    7  A    between atoms: C_18  and  O_19
REMARK    8  A    between atoms: C_21  and  C_22
REMARK    9  A    between atoms: C_22  and  C_24
REMARK   10  A    between atoms: C_24  and  O_25
REMARK   11  A    between atoms: O_27  and  C_28
REMARK   12  A    between atoms: C_28  and  C_29
REMARK   13  A    between atoms: C_34  and  C_36
REMARK                            x       y       z     vdW  Elec       q    Type
REMARK                         _______ _______ _______ _____ _____    ______ ____
ROOT
ATOM      1  C   UNL     1      35.583 -23.087 -16.102  0.00  0.00    +0.122 C 
ATOM      2  C   UNL     1      34.454 -22.065 -18.000  0.00  0.00    +0.002 C 
ATOM      3  C   UNL     1      34.428 -22.881 -16.858  0.00  0.00    +0.020 C 
ATOM      4  C   UNL     1      35.669 -21.448 -18.382  0.00  0.00    +0.003 C 
ATOM      5  C   UNL     1      36.777 -22.480 -16.478  0.00  0.00    +0.020 C 
ATOM      6  C   UNL     1      36.822 -21.666 -17.610  0.00  0.00    +0.001 C 
ATOM      7  C   UNL     1      35.695 -20.632 -19.524  0.00  0.00    +0.037 C 
ATOM      8  C   UNL     1      33.301 -21.848 -18.773  0.00  0.00    +0.003 C 
ATOM      9  C   UNL     1      34.540 -20.427 -20.279  0.00  0.00    +0.139 C 
ATOM     10  C   UNL     1      33.345 -21.034 -19.905  0.00  0.00    +0.037 C 
ENDROOT
BRANCH   1  11
ATOM     11  S   UNL     1      35.528 -24.118 -14.668  0.00  0.00    +0.061 S 
ATOM     12  O   UNL     1      34.593 -23.529 -13.730  0.00  0.00    -0.153 OA
ATOM     13  O   UNL     1      35.336 -25.478 -15.133  0.00  0.00    -0.153 OA
BRANCH  11  14
ATOM     14  N   UNL     1      37.109 -23.960 -14.063  0.00  0.00    -0.170 NA
ATOM     15  H   UNL     1      37.080 -23.232 -13.350  0.00  0.00    +0.149 HD
BRANCH  14  16
ATOM     16  C   UNL     1      37.787 -25.127 -13.457  0.00  0.00    +0.174 C 
BRANCH  16  18
ATOM     17  O   UNL     1      39.677 -26.446 -14.233  0.00  0.00    -0.249 OA
ATOM     18  C   UNL     1      39.050 -25.394 -14.240  0.00  0.00    +0.330 C 
BRANCH  18  19
ATOM     19  O   UNL     1      39.421 -24.325 -14.992  0.00  0.00    -0.479 OA
ATOM     20  H   UNL     1      39.502 -24.412 -15.921  0.00  0.00    +0.295 HD
ENDBRANCH  18  19
ENDBRANCH  16  18
BRANCH  16  21
ATOM     21  C   UNL     1      38.004 -24.899 -11.956  0.00  0.00    +0.040 C 
BRANCH  21  22
ATOM     22  C   UNL     1      37.110 -23.848 -11.291  0.00  0.00    +0.111 C 
BRANCH  22  24
ATOM     23  O   UNL     1      35.995 -24.386  -9.217  0.00  0.00    -0.250 OA
ATOM     24  C   UNL     1      36.011 -24.432 -10.440  0.00  0.00    +0.314 C 
BRANCH  24  25
ATOM     25  O   UNL     1      35.041 -25.032 -11.175  0.00  0.00    -0.480 OA
ATOM     26  H   UNL     1      35.040 -24.946 -12.108  0.00  0.00    +0.295 HD
ENDBRANCH  24  25
ENDBRANCH  22  24
ENDBRANCH  21  22
ENDBRANCH  16  21
ENDBRANCH  14  16
ENDBRANCH  11  14
ENDBRANCH   1  11
BRANCH   9  27
ATOM     27  O   UNL     1      34.582 -19.631 -21.383  0.00  0.00    -0.471 OA
BRANCH  27  28
ATOM     28  C   UNL     1      35.747 -18.828 -21.561  0.00  0.00    +0.232 C 
BRANCH  28  29
ATOM     29  C   UNL     1      35.330 -17.425 -21.892  0.00  0.00    +0.021 C 
ATOM     30  C   UNL     1      35.166 -17.042 -23.223  0.00  0.00    -0.000 C 
ATOM     31  C   UNL     1      35.109 -16.504 -20.869  0.00  0.00    -0.000 C 
ATOM     32  C   UNL     1      34.780 -15.739 -23.531  0.00  0.00    +0.010 C 
ATOM     33  C   UNL     1      34.722 -15.200 -21.176  0.00  0.00    +0.010 C 
ATOM     34  C   UNL     1      34.558 -14.817 -22.507  0.00  0.00    +0.068 C 
BRANCH  34  36
ATOM     35  N   UNL     1      33.838 -12.395 -23.079  0.00  0.00    -0.191 NA
ATOM     36  C   UNL     1      34.160 -13.481 -22.823  0.00  0.00    +0.100 C 
ENDBRANCH  34  36
ENDBRANCH  28  29
ENDBRANCH  27  28
ENDBRANCH   9  27
TORSDOF 13
ENDMDL
MODEL 3
REMARK VINA RESULT:     -11.8      3.690      5.957
REMARK  Name = 24755471
REMARK  13 active torsions:
REMARK  status: ('A' for Active; 'I' for Inactive)
REMARK    1  A    between atoms: C_1  and  S_11
REMARK    2  A    between atoms: C_9  and  O_27
REMARK    3  A    between atoms: S_11  and  N_14
REMARK    4  A    between atoms: N_14  and  C_16
REMARK    5  A    between atoms: C_16  and  C_18
REMARK    6  A    between atoms: C_16  and  C_21
REMARK    7  A    between atoms: C_18  and  O_19
REMARK    8  A    between atoms: C_21  and  C_22
REMARK    9  A    between atoms: C_22  and  C_24
REMARK   10  A    between atoms: C_24  and  O_25
REMARK   11  A    between atoms: O_27  and  C_28
REMARK   12  A    between atoms: C_28  and  C_29
REMARK   13  A    between atoms: C_34  and  C_36
REMARK                            x       y       z     vdW  Elec       q    Type
REMARK                         _______ _______ _______ _____ _____    ______ ____
ROOT
ATOM      1  C   UNL     1      34.159 -22.109 -18.379  0.00  0.00    +0.122 C 
ATOM      2  C   UNL     1      35.580 -20.592 -19.644  0.00  0.00    +0.002 C 
ATOM      3  C   UNL     1      35.424 -21.607 -18.686  0.00  0.00    +0.020 C 
ATOM      4  C   UNL     1      34.436 -20.079 -20.301  0.00  0.00    +0.003 C 
ATOM      5  C   UNL     1      33.034 -21.603 -19.025  0.00  0.00    +0.020 C 
ATOM      6  C   UNL     1      33.170 -20.595 -19.979  0.00  0.00    +0.001 C 
ATOM      7  C   UNL     1      34.591 -19.064 -21.259  0.00  0.00    +0.037 C 
ATOM      8  C   UNL     1      36.846 -20.074 -19.965  0.00  0.00    +0.003 C 
ATOM      9  C   UNL     1      35.857 -18.562 -21.566  0.00  0.00    +0.139 C 
ATOM     10  C   UNL     1      36.982 -19.066 -20.920  0.00  0.00    +0.037 C 
ENDROOT
BRANCH   1  11
ATOM     11  S   UNL     1      33.985 -23.386 -17.170  0.00  0.00    +0.061 S 
ATOM     12  O   UNL     1      33.531 -24.584 -17.848  0.00  0.00    -0.153 OA
ATOM     13  O   UNL     1      35.212 -23.405 -16.397  0.00  0.00    -0.153 OA
BRANCH  11  14
ATOM     14  N   UNL     1      32.731 -22.778 -16.197  0.00  0.00    -0.170 NA
ATOM     15  H   UNL     1      32.113 -22.248 -16.811  0.00  0.00    +0.149 HD
BRANCH  14  16
ATOM     16  C   UNL     1      31.875 -23.709 -15.429  0.00  0.00    +0.174 C 
BRANCH  16  18
ATOM     17  O   UNL     1      32.381 -25.053 -13.465  0.00  0.00    -0.249 OA
ATOM     18  C   UNL     1      32.597 -24.060 -14.149  0.00  0.00    +0.330 C 
BRANCH  18  19
ATOM     19  O   UNL     1      33.552 -23.148 -13.834  0.00  0.00    -0.479 OA
ATOM     20  H   UNL     1      34.005 -23.207 -13.016  0.00  0.00    +0.295 HD
ENDBRANCH  18  19
ENDBRANCH  16  18
BRANCH  16  21
ATOM     21  C   UNL     1      30.478 -23.111 -15.229  0.00  0.00    +0.040 C 
BRANCH  21  22
ATOM     22  C   UNL     1      29.293 -24.017 -15.577  0.00  0.00    +0.111 C 
BRANCH  22  24
ATOM     23  O   UNL     1      27.546 -23.996 -17.246  0.00  0.00    -0.250 OA
ATOM     24  C   UNL     1      28.278 -23.373 -16.487  0.00  0.00    +0.314 C 
BRANCH  24  25
ATOM     25  O   UNL     1      28.270 -22.019 -16.390  0.00  0.00    -0.480 OA
ATOM     26  H   UNL     1      28.007 -21.609 -15.589  0.00  0.00    +0.295 HD
ENDBRANCH  24  25
ENDBRANCH  22  24
ENDBRANCH  21  22
ENDBRANCH  16  21
ENDBRANCH  14  16
ENDBRANCH  11  14
ENDBRANCH   1  11
BRANCH   9  27
ATOM     27  O   UNL     1      35.991 -17.580 -22.498  0.00  0.00    -0.471 OA
BRANCH  27  28
ATOM     28  C   UNL     1      34.954 -17.462 -23.471  0.00  0.00    +0.232 C 
BRANCH  28  29
ATOM     29  C   UNL     1      34.539 -16.024 -23.574  0.00  0.00    +0.021 C 
ATOM     30  C   UNL     1      34.818 -15.142 -22.530  0.00  0.00    -0.000 C 
ATOM     31  C   UNL     1      33.872 -15.570 -24.711  0.00  0.00    -0.000 C 
ATOM     32  C   UNL     1      34.432 -13.805 -22.625  0.00  0.00    +0.010 C 
ATOM     33  C   UNL     1      33.485 -14.234 -24.806  0.00  0.00    +0.010 C 
ATOM     34  C   UNL     1      33.765 -13.351 -23.763  0.00  0.00    +0.068 C 
BRANCH  34  36
ATOM     35  N   UNL     1      33.048 -10.868 -23.938  0.00  0.00    -0.191 NA
ATOM     36  C   UNL     1      33.369 -11.981 -23.860  0.00  0.00    +0.100 C 
ENDBRANCH  34  36
ENDBRANCH  28  29
ENDBRANCH  27  28
ENDBRANCH   9  27
TORSDOF 13
ENDMDL
MODEL 4
REMARK VINA RESULT:     -11.6      1.723      2.730
REMARK  Name = 24755471
REMARK  13 active torsions:
REMARK  status: ('A' for Active; 'I' for Inactive)
REMARK    1  A    between atoms: C_1  and  S_11
REMARK    2  A    between atoms: C_9  and  O_27
REMARK    3  A    between atoms: S_11  and  N_14
REMARK    4  A    between atoms: N_14  and  C_16
REMARK    5  A    between atoms: C_16  and  C_18
REMARK    6  A    between atoms: C_16  and  C_21
REMARK    7  A    between atoms: C_18  and  O_19
REMARK    8  A    between atoms: C_21  and  C_22
REMARK    9  A    between atoms: C_22  and  C_24
REMARK   10  A    between atoms: C_24  and  O_25
REMARK   11  A    between atoms: O_27  and  C_28
REMARK   12  A    between atoms: C_28  and  C_29
REMARK   13  A    between atoms: C_34  and  C_36
REMARK                            x       y       z     vdW  Elec       q    Type
REMARK                         _______ _______ _______ _____ _____    ______ ____
ROOT
ATOM      1  C   UNL     1      34.625 -23.068 -16.238  0.00  0.00    +0.122 C 
ATOM      2  C   UNL     1      35.381 -21.738 -18.130  0.00  0.00    +0.002 C 
ATOM      3  C   UNL     1      35.645 -22.408 -16.924  0.00  0.00    +0.020 C 
ATOM      4  C   UNL     1      34.064 -21.738 -18.648  0.00  0.00    +0.003 C 
ATOM      5  C   UNL     1      33.330 -23.067 -16.747  0.00  0.00    +0.020 C 
ATOM      6  C   UNL     1      33.050 -22.407 -17.944  0.00  0.00    +0.001 C 
ATOM      7  C   UNL     1      33.800 -21.069 -19.854  0.00  0.00    +0.037 C 
ATOM      8  C   UNL     1      36.396 -21.068 -18.834  0.00  0.00    +0.003 C 
ATOM      9  C   UNL     1      34.821 -20.409 -20.539  0.00  0.00    +0.139 C 
ATOM     10  C   UNL     1      36.116 -20.408 -20.031  0.00  0.00    +0.037 C 
ENDROOT
BRANCH   1  11
ATOM     11  S   UNL     1      34.979 -23.904 -14.721  0.00  0.00    +0.061 S 
ATOM     12  O   UNL     1      35.370 -22.908 -13.743  0.00  0.00    -0.153 OA
ATOM     13  O   UNL     1      33.861 -24.789 -14.456  0.00  0.00    -0.153 OA
BRANCH  11  14
ATOM     14  N   UNL     1      36.333 -24.840 -15.146  0.00  0.00    -0.170 NA
ATOM     15  H   UNL     1      37.014 -24.202 -15.557  0.00  0.00    +0.149 HD
BRANCH  14  16
ATOM     16  C   UNL     1      37.046 -25.619 -14.110  0.00  0.00    +0.174 C 
BRANCH  16  18
ATOM     17  O   UNL     1      38.492 -27.562 -14.337  0.00  0.00    -0.249 OA
ATOM     18  C   UNL     1      37.553 -26.891 -14.748  0.00  0.00    +0.330 C 
BRANCH  18  19
ATOM     19  O   UNL     1      36.830 -27.238 -15.844  0.00  0.00    -0.479 OA
ATOM     20  H   UNL     1      36.906 -26.738 -16.633  0.00  0.00    +0.295 HD
ENDBRANCH  18  19
ENDBRANCH  16  18
BRANCH  16  21
ATOM     21  C   UNL     1      38.130 -24.762 -13.447  0.00  0.00    +0.040 C 
BRANCH  21  22
ATOM     22  C   UNL     1      38.088 -24.672 -11.919  0.00  0.00    +0.111 C 
BRANCH  22  24
ATOM     23  O   UNL     1      38.327 -22.339 -11.338  0.00  0.00    -0.250 OA
ATOM     24  C   UNL     1      37.619 -23.337 -11.399  0.00  0.00    +0.314 C 
BRANCH  24  25
ATOM     25  O   UNL     1      36.326 -23.358 -10.985  0.00  0.00    -0.480 OA
ATOM     26  H   UNL     1      36.122 -23.217 -10.082  0.00  0.00    +0.295 HD
ENDBRANCH  24  25
ENDBRANCH  22  24
ENDBRANCH  21  22
ENDBRANCH  16  21
ENDBRANCH  14  16
ENDBRANCH  11  14
ENDBRANCH   1  11
BRANCH   9  27
ATOM     27  O   UNL     1      34.549 -19.766 -21.708  0.00  0.00    -0.471 OA
BRANCH  27  28
ATOM     28  C   UNL     1      35.627 -19.070 -22.332  0.00  0.00    +0.232 C 
BRANCH  28  29
ATOM     29  C   UNL     1      35.243 -17.631 -22.511  0.00  0.00    +0.021 C 
ATOM     30  C   UNL     1      35.243 -16.768 -21.415  0.00  0.00    -0.000 C 
ATOM     31  C   UNL     1      34.884 -17.156 -23.773  0.00  0.00    -0.000 C 
ATOM     32  C   UNL     1      34.886 -15.431 -21.581  0.00  0.00    +0.010 C 
ATOM     33  C   UNL     1      34.527 -15.818 -23.938  0.00  0.00    +0.010 C 
ATOM     34  C   UNL     1      34.527 -14.956 -22.842  0.00  0.00    +0.068 C 
BRANCH  34  36
ATOM     35  N   UNL     1      33.865 -12.471 -23.150  0.00  0.00    -0.191 NA
ATOM     36  C   UNL     1      34.161 -13.584 -23.012  0.00  0.00    +0.100 C 
ENDBRANCH  34  36
ENDBRANCH  28  29
ENDBRANCH  27  28
ENDBRANCH   9  27
TORSDOF 13
ENDMDL
MODEL 5
REMARK VINA RESULT:     -11.4      2.383      3.617
REMARK  Name = 24755471
REMARK  13 active torsions:
REMARK  status: ('A' for Active; 'I' for Inactive)
REMARK    1  A    between atoms: C_1  and  S_11
REMARK    2  A    between atoms: C_9  and  O_27
REMARK    3  A    between atoms: S_11  and  N_14
REMARK    4  A    between atoms: N_14  and  C_16
REMARK    5  A    between atoms: C_16  and  C_18
REMARK    6  A    between atoms: C_16  and  C_21
REMARK    7  A    between atoms: C_18  and  O_19
REMARK    8  A    between atoms: C_21  and  C_22
REMARK    9  A    between atoms: C_22  and  C_24
REMARK   10  A    between atoms: C_24  and  O_25
REMARK   11  A    between atoms: O_27  and  C_28
REMARK   12  A    between atoms: C_28  and  C_29
REMARK   13  A    between atoms: C_34  and  C_36
REMARK                            x       y       z     vdW  Elec       q    Type
REMARK                         _______ _______ _______ _____ _____    ______ ____
ROOT
ATOM      1  C   UNL     1      34.149 -21.987 -18.366  0.00  0.00    +0.122 C 
ATOM      2  C   UNL     1      35.574 -20.512 -19.675  0.00  0.00    +0.002 C 
ATOM      3  C   UNL     1      35.415 -21.492 -18.682  0.00  0.00    +0.020 C 
ATOM      4  C   UNL     1      34.433 -20.028 -20.359  0.00  0.00    +0.003 C 
ATOM      5  C   UNL     1      33.027 -21.511 -19.038  0.00  0.00    +0.020 C 
ATOM      6  C   UNL     1      33.167 -20.538 -20.029  0.00  0.00    +0.001 C 
ATOM      7  C   UNL     1      34.592 -19.049 -21.353  0.00  0.00    +0.037 C 
ATOM      8  C   UNL     1      36.841 -20.002 -20.006  0.00  0.00    +0.003 C 
ATOM      9  C   UNL     1      35.858 -18.554 -21.668  0.00  0.00    +0.139 C 
ATOM     10  C   UNL     1      36.980 -19.029 -20.996  0.00  0.00    +0.037 C 
ENDROOT
BRANCH   1  11
ATOM     11  S   UNL     1      33.971 -23.220 -17.112  0.00  0.00    +0.061 S 
ATOM     12  O   UNL     1      33.032 -22.721 -16.126  0.00  0.00    -0.153 OA
ATOM     13  O   UNL     1      33.721 -24.478 -17.788  0.00  0.00    -0.153 OA
BRANCH  11  14
ATOM     14  N   UNL     1      35.531 -23.259 -16.436  0.00  0.00    -0.170 NA
ATOM     15  H   UNL     1      35.942 -22.339 -16.593  0.00  0.00    +0.149 HD
BRANCH  14  16
ATOM     16  C   UNL     1      35.705 -23.567 -15.000  0.00  0.00    +0.174 C 
BRANCH  16  18
ATOM     17  O   UNL     1      35.655 -25.975 -15.344  0.00  0.00    -0.249 OA
ATOM     18  C   UNL     1      35.232 -24.982 -14.765  0.00  0.00    +0.330 C 
BRANCH  18  19
ATOM     19  O   UNL     1      34.276 -25.048 -13.803  0.00  0.00    -0.479 OA
ATOM     20  H   UNL     1      34.171 -25.831 -13.299  0.00  0.00    +0.295 HD
ENDBRANCH  18  19
ENDBRANCH  16  18
BRANCH  16  21
ATOM     21  C   UNL     1      37.151 -23.298 -14.567  0.00  0.00    +0.040 C 
BRANCH  21  22
ATOM     22  C   UNL     1      37.763 -24.294 -13.577  0.00  0.00    +0.111 C 
BRANCH  22  24
ATOM     23  O   UNL     1      40.089 -24.903 -13.802  0.00  0.00    -0.250 OA
ATOM     24  C   UNL     1      38.924 -25.075 -14.137  0.00  0.00    +0.314 C 
BRANCH  24  25
ATOM     25  O   UNL     1      38.545 -25.985 -15.070  0.00  0.00    -0.480 OA
ATOM     26  H   UNL     1      39.179 -26.565 -15.442  0.00  0.00    +0.295 HD
ENDBRANCH  24  25
ENDBRANCH  22  24
ENDBRANCH  21  22
ENDBRANCH  16  21
ENDBRANCH  14  16
ENDBRANCH  11  14
ENDBRANCH   1  11
BRANCH   9  27
ATOM     27  O   UNL     1      35.995 -17.606 -22.635  0.00  0.00    -0.471 OA
BRANCH  27  28
ATOM     28  C   UNL     1      34.922 -17.465 -23.565  0.00  0.00    +0.232 C 
BRANCH  28  29
ATOM     29  C   UNL     1      34.511 -16.024 -23.624  0.00  0.00    +0.021 C 
ATOM     30  C   UNL     1      33.816 -15.543 -24.734  0.00  0.00    -0.000 C 
ATOM     31  C   UNL     1      34.825 -15.164 -22.572  0.00  0.00    -0.000 C 
ATOM     32  C   UNL     1      33.434 -14.203 -24.790  0.00  0.00    +0.010 C 
ATOM     33  C   UNL     1      34.443 -13.825 -22.628  0.00  0.00    +0.010 C 
ATOM     34  C   UNL     1      33.748 -13.344 -23.737  0.00  0.00    +0.068 C 
BRANCH  34  36
ATOM     35  N   UNL     1      33.037 -10.855 -23.842  0.00  0.00    -0.191 NA
ATOM     36  C   UNL     1      33.356 -11.970 -23.795  0.00  0.00    +0.100 C 
ENDBRANCH  34  36
ENDBRANCH  28  29
ENDBRANCH  27  28
ENDBRANCH   9  27
TORSDOF 13
ENDMDL
MODEL 6
REMARK VINA RESULT:     -11.4      7.805     14.313
REMARK  Name = 24755471
REMARK  13 active torsions:
REMARK  status: ('A' for Active; 'I' for Inactive)
REMARK    1  A    between atoms: C_1  and  S_11
REMARK    2  A    between atoms: C_9  and  O_27
REMARK    3  A    between atoms: S_11  and  N_14
REMARK    4  A    between atoms: N_14  and  C_16
REMARK    5  A    between atoms: C_16  and  C_18
REMARK    6  A    between atoms: C_16  and  C_21
REMARK    7  A    between atoms: C_18  and  O_19
REMARK    8  A    between atoms: C_21  and  C_22
REMARK    9  A    between atoms: C_22  and  C_24
REMARK   10  A    between atoms: C_24  and  O_25
REMARK   11  A    between atoms: O_27  and  C_28
REMARK   12  A    between atoms: C_28  and  C_29
REMARK   13  A    between atoms: C_34  and  C_36
REMARK                            x       y       z     vdW  Elec       q    Type
REMARK                         _______ _______ _______ _____ _____    ______ ____
ROOT
ATOM      1  C   UNL     1      32.599 -11.906 -21.963  0.00  0.00    +0.122 C 
ATOM      2  C   UNL     1      33.913 -13.933 -22.257  0.00  0.00    +0.002 C 
ATOM      3  C   UNL     1      33.360 -12.750 -22.773  0.00  0.00    +0.020 C 
ATOM      4  C   UNL     1      33.691 -14.266 -20.900  0.00  0.00    +0.003 C 
ATOM      5  C   UNL     1      32.381 -12.235 -20.628  0.00  0.00    +0.020 C 
ATOM      6  C   UNL     1      32.922 -13.406 -20.099  0.00  0.00    +0.001 C 
ATOM      7  C   UNL     1      34.243 -15.450 -20.384  0.00  0.00    +0.037 C 
ATOM      8  C   UNL     1      34.681 -14.794 -23.059  0.00  0.00    +0.003 C 
ATOM      9  C   UNL     1      35.004 -16.293 -21.195  0.00  0.00    +0.139 C 
ATOM     10  C   UNL     1      35.222 -15.966 -22.530  0.00  0.00    +0.037 C 
ENDROOT
BRANCH   1  11
ATOM     11  S   UNL     1      31.913 -10.421 -22.632  0.00  0.00    +0.061 S 
ATOM     12  O   UNL     1      32.325 -10.325 -24.019  0.00  0.00    -0.153 OA
ATOM     13  O   UNL     1      30.505 -10.414 -22.287  0.00  0.00    -0.153 OA
BRANCH  11  14
ATOM     14  N   UNL     1      32.710  -9.227 -21.722  0.00  0.00    -0.170 NA
ATOM     15  H   UNL     1      33.187  -8.620 -22.387  0.00  0.00    +0.149 HD
BRANCH  14  16
ATOM     16  C   UNL     1      31.934  -8.348 -20.819  0.00  0.00    +0.174 C 
BRANCH  16  18
ATOM     17  O   UNL     1      32.398  -9.251 -18.609  0.00  0.00    -0.249 OA
ATOM     18  C   UNL     1      32.584  -8.386 -19.457  0.00  0.00    +0.330 C 
BRANCH  18  19
ATOM     19  O   UNL     1      33.437  -7.347 -19.266  0.00  0.00    -0.479 OA
ATOM     20  H   UNL     1      34.360  -7.475 -19.360  0.00  0.00    +0.295 HD
ENDBRANCH  18  19
ENDBRANCH  16  18
BRANCH  16  21
ATOM     21  C   UNL     1      31.802  -6.945 -21.423  0.00  0.00    +0.040 C 
BRANCH  21  22
ATOM     22  C   UNL     1      30.781  -6.784 -22.553  0.00  0.00    +0.111 C 
BRANCH  22  24
ATOM     23  O   UNL     1      31.000  -5.617 -24.657  0.00  0.00    -0.250 OA
ATOM     24  C   UNL     1      31.399  -6.490 -23.897  0.00  0.00    +0.314 C 
BRANCH  24  25
ATOM     25  O   UNL     1      32.440  -7.311 -24.187  0.00  0.00    -0.480 OA
ATOM     26  H   UNL     1      32.362  -7.939 -24.877  0.00  0.00    +0.295 HD
ENDBRANCH  24  25
ENDBRANCH  22  24
ENDBRANCH  21  22
ENDBRANCH  16  21
ENDBRANCH  14  16
ENDBRANCH  11  14
ENDBRANCH   1  11
BRANCH   9  27
ATOM     27  O   UNL     1      35.534 -17.436 -20.679  0.00  0.00    -0.471 OA
BRANCH  27  28
ATOM     28  C   UNL     1      35.392 -18.625 -21.454  0.00  0.00    +0.232 C 
BRANCH  28  29
ATOM     29  C   UNL     1      34.998 -19.755 -20.550  0.00  0.00    +0.021 C 
ATOM     30  C   UNL     1      35.980 -20.502 -19.899  0.00  0.00    -0.000 C 
ATOM     31  C   UNL     1      33.650 -20.060 -20.362  0.00  0.00    -0.000 C 
ATOM     32  C   UNL     1      35.613 -21.553 -19.059  0.00  0.00    +0.010 C 
ATOM     33  C   UNL     1      33.283 -21.111 -19.522  0.00  0.00    +0.010 C 
ATOM     34  C   UNL     1      34.265 -21.858 -18.871  0.00  0.00    +0.068 C 
BRANCH  34  36
ATOM     35  N   UNL     1      33.586 -23.810 -17.310  0.00  0.00    -0.191 NA
ATOM     36  C   UNL     1      33.890 -22.936 -18.010  0.00  0.00    +0.100 C 
ENDBRANCH  34  36
ENDBRANCH  28  29
ENDBRANCH  27  28
ENDBRANCH   9  27
TORSDOF 13
ENDMDL
MODEL 7
REMARK VINA RESULT:     -11.2      2.600      4.475
REMARK  Name = 24755471
REMARK  13 active torsions:
REMARK  status: ('A' for Active; 'I' for Inactive)
REMARK    1  A    between atoms: C_1  and  S_11
REMARK    2  A    between atoms: C_9  and  O_27
REMARK    3  A    between atoms: S_11  and  N_14
REMARK    4  A    between atoms: N_14  and  C_16
REMARK    5  A    between atoms: C_16  and  C_18
REMARK    6  A    between atoms: C_16  and  C_21
REMARK    7  A    between atoms: C_18  and  O_19
REMARK    8  A    between atoms: C_21  and  C_22
REMARK    9  A    between atoms: C_22  and  C_24
REMARK   10  A    between atoms: C_24  and  O_25
REMARK   11  A    between atoms: O_27  and  C_28
REMARK   12  A    between atoms: C_28  and  C_29
REMARK   13  A    between atoms: C_34  and  C_36
REMARK                            x       y       z     vdW  Elec       q    Type
REMARK                         _______ _______ _______ _____ _____    ______ ____
ROOT
ATOM      1  C   UNL     1      35.309 -22.704 -16.688  0.00  0.00    +0.122 C 
ATOM      2  C   UNL     1      35.753 -21.295 -18.621  0.00  0.00    +0.002 C 
ATOM      3  C   UNL     1      36.186 -21.924 -17.443  0.00  0.00    +0.020 C 
ATOM      4  C   UNL     1      34.412 -21.459 -19.042  0.00  0.00    +0.003 C 
ATOM      5  C   UNL     1      33.990 -22.865 -17.101  0.00  0.00    +0.020 C 
ATOM      6  C   UNL     1      33.542 -22.247 -18.270  0.00  0.00    +0.001 C 
ATOM      7  C   UNL     1      33.979 -20.830 -20.220  0.00  0.00    +0.037 C 
ATOM      8  C   UNL     1      36.623 -20.506 -19.393  0.00  0.00    +0.003 C 
ATOM      9  C   UNL     1      34.857 -20.051 -20.974  0.00  0.00    +0.139 C 
ATOM     10  C   UNL     1      36.176 -19.889 -20.561  0.00  0.00    +0.037 C 
ENDROOT
BRANCH   1  11
ATOM     11  S   UNL     1      35.874 -23.487 -15.208  0.00  0.00    +0.061 S 
ATOM     12  O   UNL     1      35.863 -24.920 -15.429  0.00  0.00    -0.153 OA
ATOM     13  O   UNL     1      37.099 -22.817 -14.817  0.00  0.00    -0.153 OA
BRANCH  11  14
ATOM     14  N   UNL     1      34.646 -23.077 -14.105  0.00  0.00    -0.170 NA
ATOM     15  H   UNL     1      33.871 -22.705 -14.653  0.00  0.00    +0.149 HD
BRANCH  14  16
ATOM     16  C   UNL     1      34.081 -24.112 -13.212  0.00  0.00    +0.174 C 
BRANCH  16  18
ATOM     17  O   UNL     1      34.795 -24.957 -11.046  0.00  0.00    -0.249 OA
ATOM     18  C   UNL     1      34.889 -24.121 -11.936  0.00  0.00    +0.330 C 
BRANCH  18  19
ATOM     19  O   UNL     1      35.771 -23.090 -11.882  0.00  0.00    -0.479 OA
ATOM     20  H   UNL     1      35.461 -22.214 -11.761  0.00  0.00    +0.295 HD
ENDBRANCH  18  19
ENDBRANCH  16  18
BRANCH  16  21
ATOM     21  C   UNL     1      32.578 -23.885 -13.013  0.00  0.00    +0.040 C 
BRANCH  21  22
ATOM     22  C   UNL     1      31.671 -25.100 -13.230  0.00  0.00    +0.111 C 
BRANCH  22  24
ATOM     23  O   UNL     1      30.028 -23.651 -14.250  0.00  0.00    -0.250 OA
ATOM     24  C   UNL     1      30.328 -24.760 -13.827  0.00  0.00    +0.314 C 
BRANCH  24  25
ATOM     25  O   UNL     1      29.473 -25.814 -13.831  0.00  0.00    -0.480 OA
ATOM     26  H   UNL     1      29.801 -26.683 -13.709  0.00  0.00    +0.295 HD
ENDBRANCH  24  25
ENDBRANCH  22  24
ENDBRANCH  21  22
ENDBRANCH  16  21
ENDBRANCH  14  16
ENDBRANCH  11  14
ENDBRANCH   1  11
BRANCH   9  27
ATOM     27  O   UNL     1      34.423 -19.449 -22.115  0.00  0.00    -0.471 OA
BRANCH  27  28
ATOM     28  C   UNL     1      35.403 -18.791 -22.916  0.00  0.00    +0.232 C 
BRANCH  28  29
ATOM     29  C   UNL     1      35.013 -17.353 -23.086  0.00  0.00    +0.021 C 
ATOM     30  C   UNL     1      34.531 -16.902 -24.315  0.00  0.00    -0.000 C 
ATOM     31  C   UNL     1      35.134 -16.466 -22.017  0.00  0.00    -0.000 C 
ATOM     32  C   UNL     1      34.169 -15.565 -24.473  0.00  0.00    +0.010 C 
ATOM     33  C   UNL     1      34.772 -15.129 -22.175  0.00  0.00    +0.010 C 
ATOM     34  C   UNL     1      34.290 -14.678 -23.404  0.00  0.00    +0.068 C 
BRANCH  34  36
ATOM     35  N   UNL     1      33.616 -12.194 -23.699  0.00  0.00    -0.191 NA
ATOM     36  C   UNL     1      33.918 -13.307 -23.566  0.00  0.00    +0.100 C 
ENDBRANCH  34  36
ENDBRANCH  28  29
ENDBRANCH  27  28
ENDBRANCH   9  27
TORSDOF 13
ENDMDL
MODEL 8
REMARK VINA RESULT:     -11.1      8.094     14.507
REMARK  Name = 24755471
REMARK  13 active torsions:
REMARK  status: ('A' for Active; 'I' for Inactive)
REMARK    1  A    between atoms: C_1  and  S_11
REMARK    2  A    between atoms: C_9  and  O_27
REMARK    3  A    between atoms: S_11  and  N_14
REMARK    4  A    between atoms: N_14  and  C_16
REMARK    5  A    between atoms: C_16  and  C_18
REMARK    6  A    between atoms: C_16  and  C_21
REMARK    7  A    between atoms: C_18  and  O_19
REMARK    8  A    between atoms: C_21  and  C_22
REMARK    9  A    between atoms: C_22  and  C_24
REMARK   10  A    between atoms: C_24  and  O_25
REMARK   11  A    between atoms: O_27  and  C_28
REMARK   12  A    between atoms: C_28  and  C_29
REMARK   13  A    between atoms: C_34  and  C_36
REMARK                            x       y       z     vdW  Elec       q    Type
REMARK                         _______ _______ _______ _____ _____    ______ ____
ROOT
ATOM      1  C   UNL     1      32.866 -11.955 -22.742  0.00  0.00    +0.122 C 
ATOM      2  C   UNL     1      33.730 -13.821 -21.441  0.00  0.00    +0.002 C 
ATOM      3  C   UNL     1      33.043 -12.599 -21.516  0.00  0.00    +0.020 C 
ATOM      4  C   UNL     1      34.244 -14.401 -22.625  0.00  0.00    +0.003 C 
ATOM      5  C   UNL     1      33.373 -12.525 -23.907  0.00  0.00    +0.020 C 
ATOM      6  C   UNL     1      34.057 -13.740 -23.850  0.00  0.00    +0.001 C 
ATOM      7  C   UNL     1      34.931 -15.623 -22.550  0.00  0.00    +0.037 C 
ATOM      8  C   UNL     1      33.917 -14.482 -20.215  0.00  0.00    +0.003 C 
ATOM      9  C   UNL     1      35.107 -16.266 -21.324  0.00  0.00    +0.139 C 
ATOM     10  C   UNL     1      34.602 -15.697 -20.159  0.00  0.00    +0.037 C 
ENDROOT
BRANCH   1  11
ATOM     11  S   UNL     1      31.999 -10.417 -22.815  0.00  0.00    +0.061 S 
ATOM     12  O   UNL     1      32.254  -9.822 -24.112  0.00  0.00    -0.153 OA
ATOM     13  O   UNL     1      30.638 -10.679 -22.387  0.00  0.00    -0.153 OA
BRANCH  11  14
ATOM     14  N   UNL     1      32.791  -9.512 -21.613  0.00  0.00    -0.170 NA
ATOM     15  H   UNL     1      33.636  -9.134 -22.039  0.00  0.00    +0.149 HD
BRANCH  14  16
ATOM     16  C   UNL     1      32.095  -8.380 -20.963  0.00  0.00    +0.174 C 
BRANCH  16  18
ATOM     17  O   UNL     1      32.404  -9.050 -18.645  0.00  0.00    -0.249 OA
ATOM     18  C   UNL     1      32.620  -8.256 -19.553  0.00  0.00    +0.330 C 
BRANCH  18  19
ATOM     19  O   UNL     1      33.395  -7.153 -19.391  0.00  0.00    -0.479 OA
ATOM     20  H   UNL     1      34.274  -7.239 -19.078  0.00  0.00    +0.295 HD
ENDBRANCH  18  19
ENDBRANCH  16  18
BRANCH  16  21
ATOM     21  C   UNL     1      32.233  -7.110 -21.810  0.00  0.00    +0.040 C 
BRANCH  21  22
ATOM     22  C   UNL     1      30.952  -6.301 -22.038  0.00  0.00    +0.111 C 
BRANCH  22  24
ATOM     23  O   UNL     1      30.117  -4.072 -21.625  0.00  0.00    -0.250 OA
ATOM     24  C   UNL     1      31.013  -4.896 -21.495  0.00  0.00    +0.314 C 
BRANCH  24  25
ATOM     25  O   UNL     1      32.181  -4.630 -20.855  0.00  0.00    -0.480 OA
ATOM     26  H   UNL     1      32.997  -4.819 -21.275  0.00  0.00    +0.295 HD
ENDBRANCH  24  25
ENDBRANCH  22  24
ENDBRANCH  21  22
ENDBRANCH  16  21
ENDBRANCH  14  16
ENDBRANCH  11  14
ENDBRANCH   1  11
BRANCH   9  27
ATOM     27  O   UNL     1      35.773 -17.452 -21.268  0.00  0.00    -0.471 OA
BRANCH  27  28
ATOM     28  C   UNL     1      35.166 -18.569 -21.913  0.00  0.00    +0.232 C 
BRANCH  28  29
ATOM     29  C   UNL     1      34.894 -19.636 -20.894  0.00  0.00    +0.021 C 
ATOM     30  C   UNL     1      35.956 -20.273 -20.252  0.00  0.00    -0.000 C 
ATOM     31  C   UNL     1      33.580 -19.993 -20.591  0.00  0.00    -0.000 C 
ATOM     32  C   UNL     1      35.703 -21.265 -19.305  0.00  0.00    +0.010 C 
ATOM     33  C   UNL     1      33.328 -20.985 -19.644  0.00  0.00    +0.010 C 
ATOM     34  C   UNL     1      34.389 -21.621 -19.001  0.00  0.00    +0.068 C 
BRANCH  34  36
ATOM     35  N   UNL     1      33.921 -23.464 -17.242  0.00  0.00    -0.191 NA
ATOM     36  C   UNL     1      34.131 -22.638 -18.030  0.00  0.00    +0.100 C 
ENDBRANCH  34  36
ENDBRANCH  28  29
ENDBRANCH  27  28
ENDBRANCH   9  27
TORSDOF 13
ENDMDL
MODEL 9
REMARK VINA RESULT:     -10.9      2.400      3.984
REMARK  Name = 24755471
REMARK  13 active torsions:
REMARK  status: ('A' for Active; 'I' for Inactive)
REMARK    1  A    between atoms: C_1  and  S_11
REMARK    2  A    between atoms: C_9  and  O_27
REMARK    3  A    between atoms: S_11  and  N_14
REMARK    4  A    between atoms: N_14  and  C_16
REMARK    5  A    between atoms: C_16  and  C_18
REMARK    6  A    between atoms: C_16  and  C_21
REMARK    7  A    between atoms: C_18  and  O_19
REMARK    8  A    between atoms: C_21  and  C_22
REMARK    9  A    between atoms: C_22  and  C_24
REMARK   10  A    between atoms: C_24  and  O_25
REMARK   11  A    between atoms: O_27  and  C_28
REMARK   12  A    between atoms: C_28  and  C_29
REMARK   13  A    between atoms: C_34  and  C_36
REMARK                            x       y       z     vdW  Elec       q    Type
REMARK                         _______ _______ _______ _____ _____    ______ ____
ROOT
ATOM      1  C   UNL     1      33.990 -22.085 -18.304  0.00  0.00    +0.122 C 
ATOM      2  C   UNL     1      35.478 -20.652 -19.591  0.00  0.00    +0.002 C 
ATOM      3  C   UNL     1      35.275 -21.628 -18.602  0.00  0.00    +0.020 C 
ATOM      4  C   UNL     1      34.362 -20.132 -20.289  0.00  0.00    +0.003 C 
ATOM      5  C   UNL     1      32.894 -21.573 -18.990  0.00  0.00    +0.020 C 
ATOM      6  C   UNL     1      33.076 -20.603 -19.976  0.00  0.00    +0.001 C 
ATOM      7  C   UNL     1      34.564 -19.156 -21.278  0.00  0.00    +0.037 C 
ATOM      8  C   UNL     1      36.764 -20.181 -19.903  0.00  0.00    +0.003 C 
ATOM      9  C   UNL     1      35.849 -18.700 -21.575  0.00  0.00    +0.139 C 
ATOM     10  C   UNL     1      36.947 -19.211 -20.889  0.00  0.00    +0.037 C 
ENDROOT
BRANCH   1  11
ATOM     11  S   UNL     1      33.758 -23.314 -17.055  0.00  0.00    +0.061 S 
ATOM     12  O   UNL     1      32.614 -22.925 -16.254  0.00  0.00    -0.153 OA
ATOM     13  O   UNL     1      33.779 -24.602 -17.721  0.00  0.00    -0.153 OA
BRANCH  11  14
ATOM     14  N   UNL     1      35.176 -23.148 -16.133  0.00  0.00    -0.170 NA
ATOM     15  H   UNL     1      35.176 -22.198 -15.762  0.00  0.00    +0.149 HD
BRANCH  14  16
ATOM     16  C   UNL     1      35.423 -24.054 -14.990  0.00  0.00    +0.174 C 
BRANCH  16  18
ATOM     17  O   UNL     1      37.331 -25.521 -14.636  0.00  0.00    -0.249 OA
ATOM     18  C   UNL     1      36.882 -24.444 -15.009  0.00  0.00    +0.330 C 
BRANCH  18  19
ATOM     19  O   UNL     1      37.669 -23.459 -15.515  0.00  0.00    -0.479 OA
ATOM     20  H   UNL     1      37.797 -22.667 -15.031  0.00  0.00    +0.295 HD
ENDBRANCH  18  19
ENDBRANCH  16  18
BRANCH  16  21
ATOM     21  C   UNL     1      34.953 -23.406 -13.682  0.00  0.00    +0.040 C 
BRANCH  21  22
ATOM     22  C   UNL     1      34.657 -24.357 -12.519  0.00  0.00    +0.111 C 
BRANCH  22  24
ATOM     23  O   UNL     1      36.051 -25.436 -10.867  0.00  0.00    -0.250 OA
ATOM     24  C   UNL     1      35.757 -24.423 -11.489  0.00  0.00    +0.314 C 
BRANCH  24  25
ATOM     25  O   UNL     1      36.380 -23.231 -11.309  0.00  0.00    -0.480 OA
ATOM     26  H   UNL     1      37.195 -23.060 -11.739  0.00  0.00    +0.295 HD
ENDBRANCH  24  25
ENDBRANCH  22  24
ENDBRANCH  21  22
ENDBRANCH  16  21
ENDBRANCH  14  16
ENDBRANCH  11  14
ENDBRANCH   1  11
BRANCH   9  27
ATOM     27  O   UNL     1      36.029 -17.755 -22.538  0.00  0.00    -0.471 OA
BRANCH  27  28
ATOM     28  C   UNL     1      35.002 -17.624 -23.519  0.00  0.00    +0.232 C 
BRANCH  28  29
ATOM     29  C   UNL     1      34.587 -16.185 -23.606  0.00  0.00    +0.021 C 
ATOM     30  C   UNL     1      34.889 -15.308 -22.563  0.00  0.00    -0.000 C 
ATOM     31  C   UNL     1      33.898 -15.723 -24.728  0.00  0.00    -0.000 C 
ATOM     32  C   UNL     1      34.503 -13.971 -22.643  0.00  0.00    +0.010 C 
ATOM     33  C   UNL     1      33.512 -14.386 -24.808  0.00  0.00    +0.010 C 
ATOM     34  C   UNL     1      33.814 -13.510 -23.765  0.00  0.00    +0.068 C 
BRANCH  34  36
ATOM     35  N   UNL     1      33.099 -11.025 -23.913  0.00  0.00    -0.191 NA
ATOM     36  C   UNL     1      33.419 -12.138 -23.847  0.00  0.00    +0.100 C 
ENDBRANCH  34  36
ENDBRANCH  28  29
ENDBRANCH  27  28
ENDBRANCH   9  27
TORSDOF 13
ENDMDL
