MODEL 1
REMARK VINA RESULT:     -12.0      0.000      0.000
REMARK  Name = 135565042
REMARK  5 active torsions:
REMARK  status: ('A' for Active; 'I' for Inactive)
REMARK    1  A    between atoms: C_3  and  O_21
REMARK    2  A    between atoms: C_6  and  C_7
REMARK    3  A    between atoms: C_8  and  O_19
REMARK    4  A    between atoms: C_10  and  C_15
REMARK    5  A    between atoms: O_21  and  C_27
REMARK                            x       y       z     vdW  Elec       q    Type
REMARK                         _______ _______ _______ _____ _____    ______ ____
ROOT
ATOM      1  N   UNL     1      35.323 -23.094 -16.484  0.00  0.00    -0.110 NA
ATOM      2  N   UNL     1      35.347 -22.300 -17.588  0.00  0.00    -0.145 NA
ATOM      3  C   UNL     1      34.139 -23.564 -16.037  0.00  0.00    +0.244 C 
ATOM      4  C   UNL     1      32.938 -23.274 -16.651  0.00  0.00    +0.061 C 
ATOM      5  C   UNL     1      32.962 -22.466 -17.775  0.00  0.00    +0.026 C 
ATOM      6  C   UNL     1      34.186 -22.000 -18.208  0.00  0.00    +0.106 C 
ENDROOT
BRANCH   6   7
ATOM      7  C   UNL     1      34.306 -21.156 -19.371  0.00  0.00    +0.053 C 
ATOM      8  C   UNL     1      35.556 -20.854 -19.911  0.00  0.00    +0.135 C 
ATOM      9  C   UNL     1      33.150 -20.638 -19.956  0.00  0.00    +0.005 C 
ATOM     10  C   UNL     1      34.494 -19.517 -21.621  0.00  0.00    +0.006 C 
ATOM     11  C   UNL     1      35.650 -20.035 -21.036  0.00  0.00    +0.037 C 
ATOM     12  C   UNL     1      33.244 -19.819 -21.080  0.00  0.00    +0.000 C 
BRANCH  10  15
ATOM     13  N   UNL     1      35.107 -16.993 -24.075  0.00  0.00    -0.235 N 
ATOM     14  N   UNL     1      34.405 -17.805 -24.884  0.00  0.00    -0.180 NA
ATOM     15  C   UNL     1      34.591 -18.675 -22.780  0.00  0.00    +0.037 C 
ATOM     16  C   UNL     1      35.247 -17.469 -22.804  0.00  0.00    +0.081 C 
ATOM     17  C   UNL     1      34.093 -18.831 -24.088  0.00  0.00    +0.119 C 
ATOM     18  H   UNL     1      35.485 -16.134 -24.373  0.00  0.00    +0.174 HD
ENDBRANCH  10  15
BRANCH   8  19
ATOM     19  O   UNL     1      36.702 -21.347 -19.360  0.00  0.00    -0.505 OA
ATOM     20  H   UNL     1      37.462 -21.470 -19.894  0.00  0.00    +0.292 HD
ENDBRANCH   8  19
ENDBRANCH   6   7
BRANCH   3  21
ATOM     21  O   UNL     1      34.159 -24.360 -14.924  0.00  0.00    -0.463 OA
BRANCH  21  27
ATOM     22  N   UNL     1      37.125 -25.527 -12.151  0.00  0.00    +0.389 N 
ATOM     23  C   UNL     1      37.420 -25.717 -13.578  0.00  0.00    -0.042 C 
ATOM     24  C   UNL     1      36.222 -24.442 -11.746  0.00  0.00    -0.042 C 
ATOM     25  C   UNL     1      36.161 -25.588 -14.456  0.00  0.00    +0.024 C 
ATOM     26  C   UNL     1      34.987 -24.337 -12.661  0.00  0.00    +0.024 C 
ATOM     27  C   UNL     1      35.349 -24.338 -14.142  0.00  0.00    +0.164 C 
ATOM     28  C   UNL     1      36.953 -23.090 -11.648  0.00  0.00    -0.021 C 
ATOM     29  C   UNL     1      37.956 -27.158 -13.708  0.00  0.00    -0.021 C 
ATOM     30  C   UNL     1      38.535 -24.773 -14.067  0.00  0.00    -0.021 C 
ATOM     31  C   UNL     1      35.743 -24.805 -10.324  0.00  0.00    -0.021 C 
ATOM     32  H   UNL     1      38.016 -25.366 -11.681  0.00  0.00    -0.084 HD
ATOM     33  H   UNL     1      36.619 -26.374 -11.894  0.00  0.00    -0.084 HD
ENDBRANCH  21  27
ENDBRANCH   3  21
TORSDOF 5
ENDMDL
MODEL 2
REMARK VINA RESULT:     -11.0      7.807     14.567
REMARK  Name = 135565042
REMARK  5 active torsions:
REMARK  status: ('A' for Active; 'I' for Inactive)
REMARK    1  A    between atoms: C_3  and  O_21
REMARK    2  A    between atoms: C_6  and  C_7
REMARK    3  A    between atoms: C_8  and  O_19
REMARK    4  A    between atoms: C_10  and  C_15
REMARK    5  A    between atoms: O_21  and  C_27
REMARK                            x       y       z     vdW  Elec       q    Type
REMARK                         _______ _______ _______ _____ _____    ______ ____
ROOT
ATOM      1  N   UNL     1      33.688 -11.385 -23.904  0.00  0.00    -0.110 NA
ATOM      2  N   UNL     1      34.168 -12.594 -23.507  0.00  0.00    -0.145 NA
ATOM      3  C   UNL     1      32.544 -10.919 -23.356  0.00  0.00    +0.244 C 
ATOM      4  C   UNL     1      31.832 -11.617 -22.403  0.00  0.00    +0.061 C 
ATOM      5  C   UNL     1      32.321 -12.847 -21.998  0.00  0.00    +0.026 C 
ATOM      6  C   UNL     1      33.490 -13.298 -22.576  0.00  0.00    +0.106 C 
ENDROOT
BRANCH   6   7
ATOM      7  C   UNL     1      34.073 -14.566 -22.213  0.00  0.00    +0.053 C 
ATOM      8  C   UNL     1      34.400 -15.509 -23.187  0.00  0.00    +0.135 C 
ATOM      9  C   UNL     1      34.309 -14.844 -20.866  0.00  0.00    +0.005 C 
ATOM     10  C   UNL     1      35.199 -17.008 -21.469  0.00  0.00    +0.006 C 
ATOM     11  C   UNL     1      34.963 -16.730 -22.816  0.00  0.00    +0.037 C 
ATOM     12  C   UNL     1      34.871 -16.065 -20.494  0.00  0.00    +0.000 C 
BRANCH  10  15
ATOM     13  N   UNL     1      35.967 -20.347 -20.456  0.00  0.00    -0.235 N 
ATOM     14  N   UNL     1      37.243 -19.941 -20.572  0.00  0.00    -0.180 NA
ATOM     15  C   UNL     1      35.779 -18.264 -21.086  0.00  0.00    +0.037 C 
ATOM     16  C   UNL     1      35.052 -19.380 -20.753  0.00  0.00    +0.081 C 
ATOM     17  C   UNL     1      37.122 -18.667 -20.957  0.00  0.00    +0.119 C 
ATOM     18  H   UNL     1      35.717 -21.259 -20.182  0.00  0.00    +0.174 HD
ENDBRANCH  10  15
BRANCH   8  19
ATOM     19  O   UNL     1      34.181 -15.263 -24.511  0.00  0.00    -0.505 OA
ATOM     20  H   UNL     1      33.741 -15.901 -25.038  0.00  0.00    +0.292 HD
ENDBRANCH   8  19
ENDBRANCH   6   7
BRANCH   3  21
ATOM     21  O   UNL     1      32.096  -9.699 -23.782  0.00  0.00    -0.463 OA
BRANCH  21  27
ATOM     22  N   UNL     1      33.017  -5.657 -22.966  0.00  0.00    +0.389 N 
ATOM     23  C   UNL     1      32.227  -6.386 -21.965  0.00  0.00    -0.042 C 
ATOM     24  C   UNL     1      33.962  -6.399 -23.812  0.00  0.00    -0.042 C 
ATOM     25  C   UNL     1      31.667  -7.711 -22.516  0.00  0.00    +0.024 C 
ATOM     26  C   UNL     1      33.367  -7.725 -24.326  0.00  0.00    +0.024 C 
ATOM     27  C   UNL     1      32.726  -8.552 -23.218  0.00  0.00    +0.164 C 
ATOM     28  C   UNL     1      35.307  -6.636 -23.103  0.00  0.00    -0.021 C 
ATOM     29  C   UNL     1      31.039  -5.466 -21.616  0.00  0.00    -0.021 C 
ATOM     30  C   UNL     1      33.018  -6.619 -20.664  0.00  0.00    -0.021 C 
ATOM     31  C   UNL     1      34.241  -5.489 -25.026  0.00  0.00    -0.021 C 
ATOM     32  H   UNL     1      33.557  -4.951 -22.464  0.00  0.00    -0.084 HD
ATOM     33  H   UNL     1      32.318  -5.315 -23.625  0.00  0.00    -0.084 HD
ENDBRANCH  21  27
ENDBRANCH   3  21
TORSDOF 5
ENDMDL
MODEL 3
REMARK VINA RESULT:     -11.0      7.882     14.639
REMARK  Name = 135565042
REMARK  5 active torsions:
REMARK  status: ('A' for Active; 'I' for Inactive)
REMARK    1  A    between atoms: C_3  and  O_21
REMARK    2  A    between atoms: C_6  and  C_7
REMARK    3  A    between atoms: C_8  and  O_19
REMARK    4  A    between atoms: C_10  and  C_15
REMARK    5  A    between atoms: O_21  and  C_27
REMARK                            x       y       z     vdW  Elec       q    Type
REMARK                         _______ _______ _______ _____ _____    ______ ____
ROOT
ATOM      1  N   UNL     1      31.906 -11.620 -22.357  0.00  0.00    -0.110 NA
ATOM      2  N   UNL     1      32.471 -12.812 -22.026  0.00  0.00    -0.145 NA
ATOM      3  C   UNL     1      32.484 -10.860 -23.312  0.00  0.00    +0.244 C 
ATOM      4  C   UNL     1      33.632 -11.238 -23.977  0.00  0.00    +0.061 C 
ATOM      5  C   UNL     1      34.207 -12.452 -23.641  0.00  0.00    +0.026 C 
ATOM      6  C   UNL     1      33.596 -13.206 -22.661  0.00  0.00    +0.106 C 
ENDROOT
BRANCH   6   7
ATOM      7  C   UNL     1      34.123 -14.483 -22.250  0.00  0.00    +0.053 C 
ATOM      8  C   UNL     1      34.295 -14.786 -20.900  0.00  0.00    +0.135 C 
ATOM      9  C   UNL     1      34.465 -15.422 -23.224  0.00  0.00    +0.005 C 
ATOM     10  C   UNL     1      35.148 -16.966 -21.496  0.00  0.00    +0.006 C 
ATOM     11  C   UNL     1      34.806 -16.027 -20.522  0.00  0.00    +0.037 C 
ATOM     12  C   UNL     1      34.977 -16.663 -22.848  0.00  0.00    +0.000 C 
BRANCH  10  15
ATOM     13  N   UNL     1      35.775 -20.351 -20.539  0.00  0.00    -0.235 N 
ATOM     14  N   UNL     1      37.061 -19.963 -20.525  0.00  0.00    -0.180 NA
ATOM     15  C   UNL     1      35.674 -18.245 -21.108  0.00  0.00    +0.037 C 
ATOM     16  C   UNL     1      34.904 -19.359 -20.882  0.00  0.00    +0.081 C 
ATOM     17  C   UNL     1      36.994 -18.675 -20.874  0.00  0.00    +0.119 C 
ATOM     18  H   UNL     1      35.488 -21.268 -20.321  0.00  0.00    +0.174 HD
ENDBRANCH  10  15
BRANCH   8  19
ATOM     19  O   UNL     1      33.969 -13.888 -19.926  0.00  0.00    -0.505 OA
ATOM     20  H   UNL     1      33.352 -14.122 -19.261  0.00  0.00    +0.292 HD
ENDBRANCH   8  19
ENDBRANCH   6   7
BRANCH   3  21
ATOM     21  O   UNL     1      31.884  -9.668 -23.615  0.00  0.00    -0.463 OA
BRANCH  21  27
ATOM     22  N   UNL     1      32.724  -5.583 -22.939  0.00  0.00    +0.389 N 
ATOM     23  C   UNL     1      31.991  -6.306 -21.890  0.00  0.00    -0.042 C 
ATOM     24  C   UNL     1      33.657  -6.323 -23.800  0.00  0.00    -0.042 C 
ATOM     25  C   UNL     1      31.447  -7.659 -22.386  0.00  0.00    +0.024 C 
ATOM     26  C   UNL     1      33.081  -7.677 -24.257  0.00  0.00    +0.024 C 
ATOM     27  C   UNL     1      32.502  -8.491 -23.105  0.00  0.00    +0.164 C 
ATOM     28  C   UNL     1      35.033  -6.506 -23.135  0.00  0.00    -0.021 C 
ATOM     29  C   UNL     1      30.791  -5.408 -21.522  0.00  0.00    -0.021 C 
ATOM     30  C   UNL     1      32.834  -6.483 -20.614  0.00  0.00    -0.021 C 
ATOM     31  C   UNL     1      33.867  -5.439 -25.047  0.00  0.00    -0.021 C 
ATOM     32  H   UNL     1      33.262  -4.851 -22.476  0.00  0.00    -0.084 HD
ATOM     33  H   UNL     1      31.992  -5.278 -23.580  0.00  0.00    -0.084 HD
ENDBRANCH  21  27
ENDBRANCH   3  21
TORSDOF 5
ENDMDL
MODEL 4
REMARK VINA RESULT:     -10.7      1.315      2.592
REMARK  Name = 135565042
REMARK  5 active torsions:
REMARK  status: ('A' for Active; 'I' for Inactive)
REMARK    1  A    between atoms: C_3  and  O_21
REMARK    2  A    between atoms: C_6  and  C_7
REMARK    3  A    between atoms: C_8  and  O_19
REMARK    4  A    between atoms: C_10  and  C_15
REMARK    5  A    between atoms: O_21  and  C_27
REMARK                            x       y       z     vdW  Elec       q    Type
REMARK                         _______ _______ _______ _____ _____    ______ ____
ROOT
ATOM      1  N   UNL     1      33.838 -24.143 -16.783  0.00  0.00    -0.110 NA
ATOM      2  N   UNL     1      33.914 -23.281 -17.832  0.00  0.00    -0.145 NA
ATOM      3  C   UNL     1      34.637 -23.949 -15.712  0.00  0.00    +0.244 C 
ATOM      4  C   UNL     1      35.537 -22.906 -15.628  0.00  0.00    +0.061 C 
ATOM      5  C   UNL     1      35.615 -22.028 -16.695  0.00  0.00    +0.026 C 
ATOM      6  C   UNL     1      34.787 -22.252 -17.776  0.00  0.00    +0.106 C 
ENDROOT
BRANCH   6   7
ATOM      7  C   UNL     1      34.798 -21.387 -18.930  0.00  0.00    +0.053 C 
ATOM      8  C   UNL     1      33.611 -20.880 -19.456  0.00  0.00    +0.135 C 
ATOM      9  C   UNL     1      36.019 -21.059 -19.520  0.00  0.00    +0.005 C 
ATOM     10  C   UNL     1      34.863 -19.716 -21.163  0.00  0.00    +0.006 C 
ATOM     11  C   UNL     1      33.643 -20.044 -20.572  0.00  0.00    +0.037 C 
ATOM     12  C   UNL     1      36.052 -20.224 -20.636  0.00  0.00    +0.000 C 
BRANCH  10  15
ATOM     13  N   UNL     1      35.319 -17.139 -23.596  0.00  0.00    -0.235 N 
ATOM     14  N   UNL     1      34.617 -17.961 -24.395  0.00  0.00    -0.180 NA
ATOM     15  C   UNL     1      34.897 -18.855 -22.311  0.00  0.00    +0.037 C 
ATOM     16  C   UNL     1      35.514 -17.628 -22.338  0.00  0.00    +0.081 C 
ATOM     17  C   UNL     1      34.363 -19.008 -23.605  0.00  0.00    +0.119 C 
ATOM     18  H   UNL     1      35.660 -16.264 -23.892  0.00  0.00    +0.174 HD
ENDBRANCH  10  15
BRANCH   8  19
ATOM     19  O   UNL     1      32.403 -21.184 -18.899  0.00  0.00    -0.505 OA
ATOM     20  H   UNL     1      32.273 -22.017 -18.491  0.00  0.00    +0.292 HD
ENDBRANCH   8  19
ENDBRANCH   6   7
BRANCH   3  21
ATOM     21  O   UNL     1      34.529 -24.839 -14.678  0.00  0.00    -0.463 OA
BRANCH  21  27
ATOM     22  N   UNL     1      38.272 -24.195 -12.829  0.00  0.00    +0.389 N 
ATOM     23  C   UNL     1      37.076 -24.121 -11.979  0.00  0.00    -0.042 C 
ATOM     24  C   UNL     1      38.254 -25.059 -14.017  0.00  0.00    -0.042 C 
ATOM     25  C   UNL     1      35.779 -24.025 -12.804  0.00  0.00    +0.024 C 
ATOM     26  C   UNL     1      36.933 -24.946 -14.802  0.00  0.00    +0.024 C 
ATOM     27  C   UNL     1      35.704 -25.073 -13.908  0.00  0.00    +0.164 C 
ATOM     28  C   UNL     1      38.563 -26.526 -13.667  0.00  0.00    -0.021 C 
ATOM     29  C   UNL     1      37.225 -22.824 -11.157  0.00  0.00    -0.021 C 
ATOM     30  C   UNL     1      37.008 -25.288 -10.976  0.00  0.00    -0.021 C 
ATOM     31  C   UNL     1      39.400 -24.555 -14.919  0.00  0.00    -0.021 C 
ATOM     32  H   UNL     1      39.039 -24.516 -12.238  0.00  0.00    -0.084 HD
ATOM     33  H   UNL     1      38.354 -23.254 -13.214  0.00  0.00    -0.084 HD
ENDBRANCH  21  27
ENDBRANCH   3  21
TORSDOF 5
ENDMDL
MODEL 5
REMARK VINA RESULT:     -10.5      7.593     14.020
REMARK  Name = 135565042
REMARK  5 active torsions:
REMARK  status: ('A' for Active; 'I' for Inactive)
REMARK    1  A    between atoms: C_3  and  O_21
REMARK    2  A    between atoms: C_6  and  C_7
REMARK    3  A    between atoms: C_8  and  O_19
REMARK    4  A    between atoms: C_10  and  C_15
REMARK    5  A    between atoms: O_21  and  C_27
REMARK                            x       y       z     vdW  Elec       q    Type
REMARK                         _______ _______ _______ _____ _____    ______ ____
ROOT
ATOM      1  N   UNL     1      31.591 -11.615 -22.455  0.00  0.00    -0.110 NA
ATOM      2  N   UNL     1      32.227 -12.772 -22.128  0.00  0.00    -0.145 NA
ATOM      3  C   UNL     1      32.145 -10.797 -23.376  0.00  0.00    +0.244 C 
ATOM      4  C   UNL     1      33.336 -11.082 -24.011  0.00  0.00    +0.061 C 
ATOM      5  C   UNL     1      33.983 -12.259 -23.680  0.00  0.00    +0.026 C 
ATOM      6  C   UNL     1      33.395 -13.074 -22.734  0.00  0.00    +0.106 C 
ENDROOT
BRANCH   6   7
ATOM      7  C   UNL     1      33.997 -14.321 -22.330  0.00  0.00    +0.053 C 
ATOM      8  C   UNL     1      34.161 -14.633 -20.981  0.00  0.00    +0.135 C 
ATOM      9  C   UNL     1      34.420 -15.220 -23.310  0.00  0.00    +0.005 C 
ATOM     10  C   UNL     1      35.168 -16.743 -21.590  0.00  0.00    +0.006 C 
ATOM     11  C   UNL     1      34.746 -15.844 -20.610  0.00  0.00    +0.037 C 
ATOM     12  C   UNL     1      35.005 -16.430 -22.941  0.00  0.00    +0.000 C 
BRANCH  10  15
ATOM     13  N   UNL     1      35.993 -20.048 -20.511  0.00  0.00    -0.235 N 
ATOM     14  N   UNL     1      37.257 -19.665 -20.762  0.00  0.00    -0.180 NA
ATOM     15  C   UNL     1      35.769 -17.990 -21.210  0.00  0.00    +0.037 C 
ATOM     16  C   UNL     1      35.064 -19.081 -20.763  0.00  0.00    +0.081 C 
ATOM     17  C   UNL     1      37.113 -18.407 -21.188  0.00  0.00    +0.119 C 
ATOM     18  H   UNL     1      35.760 -20.944 -20.176  0.00  0.00    +0.174 HD
ENDBRANCH  10  15
BRANCH   8  19
ATOM     19  O   UNL     1      33.757 -13.773 -20.002  0.00  0.00    -0.505 OA
ATOM     20  H   UNL     1      32.926 -13.346 -20.068  0.00  0.00    +0.292 HD
ENDBRANCH   8  19
ENDBRANCH   6   7
BRANCH   3  21
ATOM     21  O   UNL     1      31.472  -9.644 -23.676  0.00  0.00    -0.463 OA
BRANCH  21  27
ATOM     22  N   UNL     1      33.886  -7.017 -21.412  0.00  0.00    +0.389 N 
ATOM     23  C   UNL     1      34.081  -7.029 -22.868  0.00  0.00    -0.042 C 
ATOM     24  C   UNL     1      32.563  -7.349 -20.864  0.00  0.00    -0.042 C 
ATOM     25  C   UNL     1      33.413  -8.246 -23.536  0.00  0.00    +0.024 C 
ATOM     26  C   UNL     1      31.924  -8.559 -21.572  0.00  0.00    +0.024 C 
ATOM     27  C   UNL     1      31.968  -8.443 -23.092  0.00  0.00    +0.164 C 
ATOM     28  C   UNL     1      31.614  -6.137 -20.878  0.00  0.00    -0.021 C 
ATOM     29  C   UNL     1      35.605  -7.133 -23.087  0.00  0.00    -0.021 C 
ATOM     30  C   UNL     1      33.617  -5.715 -23.524  0.00  0.00    -0.021 C 
ATOM     31  C   UNL     1      32.804  -7.722 -19.387  0.00  0.00    -0.021 C 
ATOM     32  H   UNL     1      34.116  -6.078 -21.088  0.00  0.00    -0.084 HD
ATOM     33  H   UNL     1      34.483  -7.775 -21.081  0.00  0.00    -0.084 HD
ENDBRANCH  21  27
ENDBRANCH   3  21
TORSDOF 5
ENDMDL
MODEL 6
REMARK VINA RESULT:     -10.4      8.994     15.670
REMARK  Name = 135565042
REMARK  5 active torsions:
REMARK  status: ('A' for Active; 'I' for Inactive)
REMARK    1  A    between atoms: C_3  and  O_21
REMARK    2  A    between atoms: C_6  and  C_7
REMARK    3  A    between atoms: C_8  and  O_19
REMARK    4  A    between atoms: C_10  and  C_15
REMARK    5  A    between atoms: O_21  and  C_27
REMARK                            x       y       z     vdW  Elec       q    Type
REMARK                         _______ _______ _______ _____ _____    ______ ____
ROOT
ATOM      1  N   UNL     1      30.820 -10.650 -22.263  0.00  0.00    -0.110 NA
ATOM      2  N   UNL     1      31.496 -11.823 -22.132  0.00  0.00    -0.145 NA
ATOM      3  C   UNL     1      31.358  -9.659 -23.006  0.00  0.00    +0.244 C 
ATOM      4  C   UNL     1      32.574  -9.778 -23.646  0.00  0.00    +0.061 C 
ATOM      5  C   UNL     1      33.263 -10.972 -23.514  0.00  0.00    +0.026 C 
ATOM      6  C   UNL     1      32.689 -11.966 -22.748  0.00  0.00    +0.106 C 
ENDROOT
BRANCH   6   7
ATOM      7  C   UNL     1      33.335 -13.242 -22.559  0.00  0.00    +0.053 C 
ATOM      8  C   UNL     1      33.557 -13.748 -21.279  0.00  0.00    +0.135 C 
ATOM      9  C   UNL     1      33.739 -13.971 -23.677  0.00  0.00    +0.005 C 
ATOM     10  C   UNL     1      34.587 -15.713 -22.234  0.00  0.00    +0.006 C 
ATOM     11  C   UNL     1      34.183 -14.984 -21.116  0.00  0.00    +0.037 C 
ATOM     12  C   UNL     1      34.365 -15.207 -23.516  0.00  0.00    +0.000 C 
BRANCH  10  15
ATOM     13  N   UNL     1      36.023 -18.974 -22.506  0.00  0.00    -0.235 N 
ATOM     14  N   UNL     1      36.332 -18.794 -21.210  0.00  0.00    -0.180 NA
ATOM     15  C   UNL     1      35.230 -16.986 -22.068  0.00  0.00    +0.037 C 
ATOM     16  C   UNL     1      35.362 -17.920 -23.066  0.00  0.00    +0.081 C 
ATOM     17  C   UNL     1      35.845 -17.578 -20.948  0.00  0.00    +0.119 C 
ATOM     18  H   UNL     1      36.252 -19.792 -23.005  0.00  0.00    +0.174 HD
ENDBRANCH  10  15
BRANCH   8  19
ATOM     19  O   UNL     1      33.173 -13.057 -20.168  0.00  0.00    -0.505 OA
ATOM     20  H   UNL     1      33.470 -13.328 -19.321  0.00  0.00    +0.292 HD
ENDBRANCH   8  19
ENDBRANCH   6   7
BRANCH   3  21
ATOM     21  O   UNL     1      30.645  -8.496 -23.112  0.00  0.00    -0.463 OA
BRANCH  21  27
ATOM     22  N   UNL     1      31.608  -4.394 -23.423  0.00  0.00    +0.389 N 
ATOM     23  C   UNL     1      31.300  -4.917 -22.085  0.00  0.00    -0.042 C 
ATOM     24  C   UNL     1      32.190  -5.295 -24.427  0.00  0.00    -0.042 C 
ATOM     25  C   UNL     1      30.637  -6.307 -22.141  0.00  0.00    +0.024 C 
ATOM     26  C   UNL     1      31.510  -6.678 -24.436  0.00  0.00    +0.024 C 
ATOM     27  C   UNL     1      31.386  -7.281 -23.041  0.00  0.00    +0.164 C 
ATOM     28  C   UNL     1      33.715  -5.431 -24.264  0.00  0.00    -0.021 C 
ATOM     29  C   UNL     1      30.293  -3.925 -21.468  0.00  0.00    -0.021 C 
ATOM     30  C   UNL     1      32.540  -4.932 -21.172  0.00  0.00    -0.021 C 
ATOM     31  C   UNL     1      31.936  -4.621 -25.792  0.00  0.00    -0.021 C 
ATOM     32  H   UNL     1      32.263  -3.622 -23.298  0.00  0.00    -0.084 HD
ATOM     33  H   UNL     1      30.693  -4.160 -23.808  0.00  0.00    -0.084 HD
ENDBRANCH  21  27
ENDBRANCH   3  21
TORSDOF 5
ENDMDL
MODEL 7
REMARK VINA RESULT:     -10.2      1.763      2.751
REMARK  Name = 135565042
REMARK  5 active torsions:
REMARK  status: ('A' for Active; 'I' for Inactive)
REMARK    1  A    between atoms: C_3  and  O_21
REMARK    2  A    between atoms: C_6  and  C_7
REMARK    3  A    between atoms: C_8  and  O_19
REMARK    4  A    between atoms: C_10  and  C_15
REMARK    5  A    between atoms: O_21  and  C_27
REMARK                            x       y       z     vdW  Elec       q    Type
REMARK                         _______ _______ _______ _____ _____    ______ ____
ROOT
ATOM      1  N   UNL     1      37.619 -20.679 -16.690  0.00  0.00    -0.110 NA
ATOM      2  N   UNL     1      37.174 -20.123 -17.849  0.00  0.00    -0.145 NA
ATOM      3  C   UNL     1      37.096 -21.855 -16.281  0.00  0.00    +0.244 C 
ATOM      4  C   UNL     1      36.122 -22.529 -16.989  0.00  0.00    +0.061 C 
ATOM      5  C   UNL     1      35.669 -21.964 -18.169  0.00  0.00    +0.026 C 
ATOM      6  C   UNL     1      36.220 -20.761 -18.561  0.00  0.00    +0.106 C 
ENDROOT
BRANCH   6   7
ATOM      7  C   UNL     1      35.811 -20.102 -19.777  0.00  0.00    +0.053 C 
ATOM      8  C   UNL     1      36.697 -19.291 -20.485  0.00  0.00    +0.135 C 
ATOM      9  C   UNL     1      34.508 -20.283 -20.241  0.00  0.00    +0.005 C 
ATOM     10  C   UNL     1      34.979 -18.844 -22.123  0.00  0.00    +0.006 C 
ATOM     11  C   UNL     1      36.282 -18.662 -21.659  0.00  0.00    +0.037 C 
ATOM     12  C   UNL     1      34.092 -19.654 -21.414  0.00  0.00    +0.000 C 
BRANCH  10  15
ATOM     13  N   UNL     1      34.288 -16.682 -24.884  0.00  0.00    -0.235 N 
ATOM     14  N   UNL     1      33.585 -17.729 -25.348  0.00  0.00    -0.180 NA
ATOM     15  C   UNL     1      34.551 -18.197 -23.332  0.00  0.00    +0.037 C 
ATOM     16  C   UNL     1      34.887 -16.912 -23.680  0.00  0.00    +0.081 C 
ATOM     17  C   UNL     1      33.749 -18.651 -24.396  0.00  0.00    +0.119 C 
ATOM     18  H   UNL     1      34.365 -15.828 -25.368  0.00  0.00    +0.174 HD
ENDBRANCH  10  15
BRANCH   8  19
ATOM     19  O   UNL     1      37.976 -19.097 -20.054  0.00  0.00    -0.505 OA
ATOM     20  H   UNL     1      38.148 -18.497 -19.355  0.00  0.00    +0.292 HD
ENDBRANCH   8  19
ENDBRANCH   6   7
BRANCH   3  21
ATOM     21  O   UNL     1      37.572 -22.381 -15.111  0.00  0.00    -0.463 OA
BRANCH  21  27
ATOM     22  N   UNL     1      36.594 -25.650 -12.619  0.00  0.00    +0.389 N 
ATOM     23  C   UNL     1      35.801 -24.422 -12.468  0.00  0.00    -0.042 C 
ATOM     24  C   UNL     1      37.189 -25.961 -13.926  0.00  0.00    -0.042 C 
ATOM     25  C   UNL     1      36.458 -23.214 -13.161  0.00  0.00    +0.024 C 
ATOM     26  C   UNL     1      37.818 -24.722 -14.592  0.00  0.00    +0.024 C 
ATOM     27  C   UNL     1      36.885 -23.516 -14.592  0.00  0.00    +0.164 C 
ATOM     28  C   UNL     1      36.182 -26.642 -14.870  0.00  0.00    -0.021 C 
ATOM     29  C   UNL     1      35.748 -24.141 -10.951  0.00  0.00    -0.021 C 
ATOM     30  C   UNL     1      34.349 -24.611 -12.945  0.00  0.00    -0.021 C 
ATOM     31  C   UNL     1      38.311 -26.982 -13.643  0.00  0.00    -0.021 C 
ATOM     32  H   UNL     1      35.985 -26.431 -12.375  0.00  0.00    -0.084 HD
ATOM     33  H   UNL     1      37.402 -25.492 -12.016  0.00  0.00    -0.084 HD
ENDBRANCH  21  27
ENDBRANCH   3  21
TORSDOF 5
ENDMDL
MODEL 8
REMARK VINA RESULT:     -10.1      0.826      2.114
REMARK  Name = 135565042
REMARK  5 active torsions:
REMARK  status: ('A' for Active; 'I' for Inactive)
REMARK    1  A    between atoms: C_3  and  O_21
REMARK    2  A    between atoms: C_6  and  C_7
REMARK    3  A    between atoms: C_8  and  O_19
REMARK    4  A    between atoms: C_10  and  C_15
REMARK    5  A    between atoms: O_21  and  C_27
REMARK                            x       y       z     vdW  Elec       q    Type
REMARK                         _______ _______ _______ _____ _____    ______ ____
ROOT
ATOM      1  N   UNL     1      35.322 -23.237 -15.827  0.00  0.00    -0.110 NA
ATOM      2  N   UNL     1      35.379 -22.430 -16.920  0.00  0.00    -0.145 NA
ATOM      3  C   UNL     1      34.182 -23.913 -15.567  0.00  0.00    +0.244 C 
ATOM      4  C   UNL     1      33.060 -23.825 -16.365  0.00  0.00    +0.061 C 
ATOM      5  C   UNL     1      33.118 -23.004 -17.478  0.00  0.00    +0.026 C 
ATOM      6  C   UNL     1      34.295 -22.325 -17.718  0.00  0.00    +0.106 C 
ENDROOT
BRANCH   6   7
ATOM      7  C   UNL     1      34.446 -21.451 -18.855  0.00  0.00    +0.053 C 
ATOM      8  C   UNL     1      35.711 -21.116 -19.338  0.00  0.00    +0.135 C 
ATOM      9  C   UNL     1      33.305 -20.937 -19.472  0.00  0.00    +0.005 C 
ATOM     10  C   UNL     1      34.695 -19.756 -21.057  0.00  0.00    +0.006 C 
ATOM     11  C   UNL     1      35.835 -20.269 -20.439  0.00  0.00    +0.037 C 
ATOM     12  C   UNL     1      33.429 -20.090 -20.573  0.00  0.00    +0.000 C 
BRANCH  10  15
ATOM     13  N   UNL     1      35.375 -17.172 -23.429  0.00  0.00    -0.235 N 
ATOM     14  N   UNL     1      34.691 -17.961 -24.276  0.00  0.00    -0.180 NA
ATOM     15  C   UNL     1      34.823 -18.885 -22.191  0.00  0.00    +0.037 C 
ATOM     16  C   UNL     1      35.482 -17.681 -22.168  0.00  0.00    +0.081 C 
ATOM     17  C   UNL     1      34.356 -19.005 -23.514  0.00  0.00    +0.119 C 
ATOM     18  H   UNL     1      35.763 -16.307 -23.696  0.00  0.00    +0.174 HD
ENDBRANCH  10  15
BRANCH   8  19
ATOM     19  O   UNL     1      36.843 -21.604 -18.754  0.00  0.00    -0.505 OA
ATOM     20  H   UNL     1      37.085 -21.321 -17.894  0.00  0.00    +0.292 HD
ENDBRANCH   8  19
ENDBRANCH   6   7
BRANCH   3  21
ATOM     21  O   UNL     1      34.167 -24.714 -14.458  0.00  0.00    -0.463 OA
BRANCH  21  27
ATOM     22  N   UNL     1      38.060 -24.070 -12.948  0.00  0.00    +0.389 N 
ATOM     23  C   UNL     1      36.955 -24.096 -11.981  0.00  0.00    -0.042 C 
ATOM     24  C   UNL     1      37.945 -24.852 -14.187  0.00  0.00    -0.042 C 
ATOM     25  C   UNL     1      35.578 -23.988 -12.664  0.00  0.00    +0.024 C 
ATOM     26  C   UNL     1      36.548 -24.730 -14.827  0.00  0.00    +0.024 C 
ATOM     27  C   UNL     1      35.420 -24.960 -13.827  0.00  0.00    +0.164 C 
ATOM     28  C   UNL     1      38.328 -26.328 -13.976  0.00  0.00    -0.021 C 
ATOM     29  C   UNL     1      37.150 -22.854 -11.087  0.00  0.00    -0.021 C 
ATOM     30  C   UNL     1      37.021 -25.331 -11.062  0.00  0.00    -0.021 C 
ATOM     31  C   UNL     1      38.979 -24.248 -15.161  0.00  0.00    -0.021 C 
ATOM     32  H   UNL     1      38.892 -24.405 -12.461  0.00  0.00    -0.084 HD
ATOM     33  H   UNL     1      38.077 -23.103 -13.272  0.00  0.00    -0.084 HD
ENDBRANCH  21  27
ENDBRANCH   3  21
TORSDOF 5
ENDMDL
MODEL 9
REMARK VINA RESULT:      -9.1      8.599     15.068
REMARK  Name = 135565042
REMARK  5 active torsions:
REMARK  status: ('A' for Active; 'I' for Inactive)
REMARK    1  A    between atoms: C_3  and  O_21
REMARK    2  A    between atoms: C_6  and  C_7
REMARK    3  A    between atoms: C_8  and  O_19
REMARK    4  A    between atoms: C_10  and  C_15
REMARK    5  A    between atoms: O_21  and  C_27
REMARK                            x       y       z     vdW  Elec       q    Type
REMARK                         _______ _______ _______ _____ _____    ______ ____
ROOT
ATOM      1  N   UNL     1      32.138 -10.106 -22.631  0.00  0.00    -0.110 NA
ATOM      2  N   UNL     1      32.729 -11.330 -22.663  0.00  0.00    -0.145 NA
ATOM      3  C   UNL     1      31.566  -9.680 -21.484  0.00  0.00    +0.244 C 
ATOM      4  C   UNL     1      31.553 -10.434 -20.329  0.00  0.00    +0.061 C 
ATOM      5  C   UNL     1      32.155 -11.680 -20.360  0.00  0.00    +0.026 C 
ATOM      6  C   UNL     1      32.730 -12.089 -21.546  0.00  0.00    +0.106 C 
ENDROOT
BRANCH   6   7
ATOM      7  C   UNL     1      33.381 -13.370 -21.669  0.00  0.00    +0.053 C 
ATOM      8  C   UNL     1      33.521 -13.986 -22.913  0.00  0.00    +0.135 C 
ATOM      9  C   UNL     1      33.874 -13.994 -20.523  0.00  0.00    +0.005 C 
ATOM     10  C   UNL     1      34.647 -15.848 -21.864  0.00  0.00    +0.006 C 
ATOM     11  C   UNL     1      34.154 -15.224 -23.011  0.00  0.00    +0.037 C 
ATOM     12  C   UNL     1      34.507 -15.232 -20.620  0.00  0.00    +0.000 C 
BRANCH  10  15
ATOM     13  N   UNL     1      35.970 -19.044 -22.760  0.00  0.00    -0.235 N 
ATOM     14  N   UNL     1      36.538 -18.996 -21.542  0.00  0.00    -0.180 NA
ATOM     15  C   UNL     1      35.300 -17.123 -21.965  0.00  0.00    +0.037 C 
ATOM     16  C   UNL     1      35.219 -17.947 -23.061  0.00  0.00    +0.081 C 
ATOM     17  C   UNL     1      36.125 -17.820 -21.061  0.00  0.00    +0.119 C 
ATOM     18  H   UNL     1      36.087 -19.803 -23.377  0.00  0.00    +0.174 HD
ENDBRANCH  10  15
BRANCH   8  19
ATOM     19  O   UNL     1      33.048 -13.399 -24.050  0.00  0.00    -0.505 OA
ATOM     20  H   UNL     1      32.902 -13.916 -24.817  0.00  0.00    +0.292 HD
ENDBRANCH   8  19
ENDBRANCH   6   7
BRANCH   3  21
ATOM     21  O   UNL     1      30.983  -8.442 -21.494  0.00  0.00    -0.463 OA
BRANCH  21  27
ATOM     22  N   UNL     1      33.056  -5.257 -23.340  0.00  0.00    +0.389 N 
ATOM     23  C   UNL     1      33.545  -6.619 -23.592  0.00  0.00    -0.042 C 
ATOM     24  C   UNL     1      31.628  -5.050 -23.058  0.00  0.00    -0.042 C 
ATOM     25  C   UNL     1      32.946  -7.645 -22.612  0.00  0.00    +0.024 C 
ATOM     26  C   UNL     1      31.066  -6.108 -22.089  0.00  0.00    +0.024 C 
ATOM     27  C   UNL     1      31.431  -7.532 -22.494  0.00  0.00    +0.164 C 
ATOM     28  C   UNL     1      30.790  -4.982 -24.347  0.00  0.00    -0.021 C 
ATOM     29  C   UNL     1      35.071  -6.565 -23.363  0.00  0.00    -0.021 C 
ATOM     30  C   UNL     1      33.321  -7.053 -25.053  0.00  0.00    -0.021 C 
ATOM     31  C   UNL     1      31.532  -3.669 -22.378  0.00  0.00    -0.021 C 
ATOM     32  H   UNL     1      33.280  -4.701 -24.167  0.00  0.00    -0.084 HD
ATOM     33  H   UNL     1      33.517  -4.990 -22.471  0.00  0.00    -0.084 HD
ENDBRANCH  21  27
ENDBRANCH   3  21
TORSDOF 5
ENDMDL
