MODEL 1
REMARK VINA RESULT:     -11.5      0.000      0.000
REMARK  Name = 11314340
REMARK  7 active torsions:
REMARK  status: ('A' for Active; 'I' for Inactive)
REMARK    1  A    between atoms: C_2  and  C_10
REMARK    2  A    between atoms: C_3  and  O_18
REMARK    3  A    between atoms: O_18  and  C_19
REMARK    4  A    between atoms: C_19  and  C_20
REMARK    5  A    between atoms: C_20  and  N_21
REMARK    6  A    between atoms: C_20  and  C_25
REMARK    7  A    between atoms: C_25  and  C_26
REMARK                            x       y       z     vdW  Elec       q    Type
REMARK                         _______ _______ _______ _____ _____    ______ ____
ROOT
ATOM      1  N   UNL     1      33.524 -15.390 -25.439  0.00  0.00    -0.239 NA
ATOM      2  C   UNL     1      33.419 -14.134 -23.383  0.00  0.00    +0.022 C 
ATOM      3  C   UNL     1      34.800 -16.090 -23.510  0.00  0.00    +0.158 C 
ATOM      4  C   UNL     1      34.303 -15.016 -22.780  0.00  0.00    +0.040 C 
ATOM      5  C   UNL     1      33.061 -14.357 -24.699  0.00  0.00    +0.099 C 
ATOM      6  C   UNL     1      34.383 -16.232 -24.823  0.00  0.00    +0.136 C 
ENDROOT
BRANCH   2  10
ATOM      7  N   UNL     1      31.558  -8.915 -21.669  0.00  0.00    -0.280 N 
ATOM      8  N   UNL     1      31.380  -9.773 -20.645  0.00  0.00    -0.173 NA
ATOM      9  C   UNL     1      32.292 -10.783 -22.465  0.00  0.00    +0.032 A 
ATOM     10  C   UNL     1      32.882 -13.003 -22.649  0.00  0.00    +0.002 C 
ATOM     11  C   UNL     1      31.829 -10.954 -21.109  0.00  0.00    +0.102 A 
ATOM     12  C   UNL     1      32.830 -11.755 -23.299  0.00  0.00    +0.003 C 
ATOM     13  C   UNL     1      32.104  -9.470 -22.790  0.00  0.00    +0.053 A 
ATOM     14  C   UNL     1      32.435 -13.225 -21.308  0.00  0.00    +0.002 C 
ATOM     15  C   UNL     1      31.892 -12.213 -20.484  0.00  0.00    +0.021 C 
ATOM     16  C   UNL     1      32.367  -8.677 -24.003  0.00  0.00    +0.051 C 
ATOM     17  H   UNL     1      31.313  -7.963 -21.612  0.00  0.00    +0.189 HD
ENDBRANCH   2  10
BRANCH   3  18
ATOM     18  O   UNL     1      35.667 -16.972 -22.951  0.00  0.00    -0.476 OA
BRANCH  18  19
ATOM     19  C   UNL     1      35.297 -18.351 -22.962  0.00  0.00    +0.184 C 
BRANCH  19  20
ATOM     20  C   UNL     1      35.429 -18.948 -21.556  0.00  0.00    -0.017 C 
BRANCH  20  21
ATOM     21  N   UNL     1      35.677 -17.855 -20.612  0.00  0.00    +0.384 N 
ATOM     22  H   UNL     1      35.224 -18.064 -19.722  0.00  0.00    -0.089 HD
ATOM     23  H   UNL     1      35.298 -16.986 -20.990  0.00  0.00    -0.089 HD
ATOM     24  H   UNL     1      36.682 -17.752 -20.466  0.00  0.00    -0.089 HD
ENDBRANCH  20  21
BRANCH  20  25
ATOM     25  C   UNL     1      34.166 -19.706 -21.096  0.00  0.00    +0.008 C 
BRANCH  25  26
ATOM     26  C   UNL     1      34.393 -20.681 -19.966  0.00  0.00    -0.024 C 
ATOM     27  C   UNL     1      33.304 -21.306 -19.378  0.00  0.00    -0.004 C 
ATOM     28  C   UNL     1      35.686 -20.933 -19.536  0.00  0.00    -0.004 C 
ATOM     29  C   UNL     1      33.513 -22.206 -18.335  0.00  0.00    -0.000 C 
ATOM     30  C   UNL     1      35.895 -21.834 -18.491  0.00  0.00    -0.000 C 
ATOM     31  C   UNL     1      34.809 -22.471 -17.890  0.00  0.00    -0.000 C 
ENDBRANCH  25  26
ENDBRANCH  20  25
ENDBRANCH  19  20
ENDBRANCH  18  19
ENDBRANCH   3  18
TORSDOF 7
ENDMDL
MODEL 2
REMARK VINA RESULT:     -11.5      0.746      1.646
REMARK  Name = 11314340
REMARK  7 active torsions:
REMARK  status: ('A' for Active; 'I' for Inactive)
REMARK    1  A    between atoms: C_2  and  C_10
REMARK    2  A    between atoms: C_3  and  O_18
REMARK    3  A    between atoms: O_18  and  C_19
REMARK    4  A    between atoms: C_19  and  C_20
REMARK    5  A    between atoms: C_20  and  N_21
REMARK    6  A    between atoms: C_20  and  C_25
REMARK    7  A    between atoms: C_25  and  C_26
REMARK                            x       y       z     vdW  Elec       q    Type
REMARK                         _______ _______ _______ _____ _____    ______ ____
ROOT
ATOM      1  N   UNL     1      33.441 -15.665 -25.510  0.00  0.00    -0.239 NA
ATOM      2  C   UNL     1      33.699 -13.921 -23.865  0.00  0.00    +0.022 C 
ATOM      3  C   UNL     1      34.760 -16.044 -23.520  0.00  0.00    +0.158 C 
ATOM      4  C   UNL     1      34.491 -14.750 -23.086  0.00  0.00    +0.040 C 
ATOM      5  C   UNL     1      33.201 -14.415 -25.056  0.00  0.00    +0.099 C 
ATOM      6  C   UNL     1      34.216 -16.449 -24.727  0.00  0.00    +0.136 C 
ENDROOT
BRANCH   2  10
ATOM      7  N   UNL     1      31.545  -9.174 -21.323  0.00  0.00    -0.280 N 
ATOM      8  N   UNL     1      32.499  -8.780 -22.190  0.00  0.00    -0.173 NA
ATOM      9  C   UNL     1      32.232 -11.037 -22.170  0.00  0.00    +0.032 A 
ATOM     10  C   UNL     1      33.399 -12.566 -23.440  0.00  0.00    +0.002 C 
ATOM     11  C   UNL     1      32.952  -9.922 -22.739  0.00  0.00    +0.102 A 
ATOM     12  C   UNL     1      32.397 -12.383 -22.467  0.00  0.00    +0.003 C 
ATOM     13  C   UNL     1      31.342 -10.522 -21.270  0.00  0.00    +0.053 A 
ATOM     14  C   UNL     1      34.140 -11.496 -24.033  0.00  0.00    +0.002 C 
ATOM     15  C   UNL     1      33.948 -10.134 -23.708  0.00  0.00    +0.021 C 
ATOM     16  C   UNL     1      30.339 -11.126 -20.377  0.00  0.00    +0.051 C 
ATOM     17  H   UNL     1      31.035  -8.538 -20.771  0.00  0.00    +0.189 HD
ENDBRANCH   2  10
BRANCH   3  18
ATOM     18  O   UNL     1      35.532 -16.881 -22.783  0.00  0.00    -0.476 OA
BRANCH  18  19
ATOM     19  C   UNL     1      35.265 -18.280 -22.887  0.00  0.00    +0.184 C 
BRANCH  19  20
ATOM     20  C   UNL     1      35.441 -18.958 -21.524  0.00  0.00    -0.017 C 
BRANCH  20  21
ATOM     21  N   UNL     1      35.982 -17.972 -20.584  0.00  0.00    +0.384 N 
ATOM     22  H   UNL     1      35.906 -18.331 -19.632  0.00  0.00    -0.089 HD
ATOM     23  H   UNL     1      35.454 -17.102 -20.663  0.00  0.00    -0.089 HD
ATOM     24  H   UNL     1      36.963 -17.795 -20.803  0.00  0.00    -0.089 HD
ENDBRANCH  20  21
BRANCH  20  25
ATOM     25  C   UNL     1      34.121 -19.506 -20.942  0.00  0.00    +0.008 C 
BRANCH  25  26
ATOM     26  C   UNL     1      34.292 -20.582 -19.897  0.00  0.00    -0.024 C 
ATOM     27  C   UNL     1      33.168 -21.181 -19.349  0.00  0.00    -0.004 C 
ATOM     28  C   UNL     1      35.569 -20.953 -19.505  0.00  0.00    -0.004 C 
ATOM     29  C   UNL     1      33.325 -22.176 -18.384  0.00  0.00    -0.000 C 
ATOM     30  C   UNL     1      35.725 -21.948 -18.540  0.00  0.00    -0.000 C 
ATOM     31  C   UNL     1      34.604 -22.559 -17.979  0.00  0.00    -0.000 C 
ENDBRANCH  25  26
ENDBRANCH  20  25
ENDBRANCH  19  20
ENDBRANCH  18  19
ENDBRANCH   3  18
TORSDOF 7
ENDMDL
MODEL 3
REMARK VINA RESULT:     -11.2      2.061      9.167
REMARK  Name = 11314340
REMARK  7 active torsions:
REMARK  status: ('A' for Active; 'I' for Inactive)
REMARK    1  A    between atoms: C_2  and  C_10
REMARK    2  A    between atoms: C_3  and  O_18
REMARK    3  A    between atoms: O_18  and  C_19
REMARK    4  A    between atoms: C_19  and  C_20
REMARK    5  A    between atoms: C_20  and  N_21
REMARK    6  A    between atoms: C_20  and  C_25
REMARK    7  A    between atoms: C_25  and  C_26
REMARK                            x       y       z     vdW  Elec       q    Type
REMARK                         _______ _______ _______ _____ _____    ______ ____
ROOT
ATOM      1  N   UNL     1      34.242 -17.608 -24.680  0.00  0.00    -0.239 NA
ATOM      2  C   UNL     1      35.122 -17.964 -22.463  0.00  0.00    +0.022 C 
ATOM      3  C   UNL     1      34.869 -15.729 -23.294  0.00  0.00    +0.158 C 
ATOM      4  C   UNL     1      35.248 -16.596 -22.275  0.00  0.00    +0.040 C 
ATOM      5  C   UNL     1      34.620 -18.420 -23.668  0.00  0.00    +0.099 C 
ATOM      6  C   UNL     1      34.378 -16.280 -24.466  0.00  0.00    +0.136 C 
ENDROOT
BRANCH   2  10
ATOM      7  N   UNL     1      35.282 -22.051 -18.351  0.00  0.00    -0.280 N 
ATOM      8  N   UNL     1      36.525 -21.546 -18.479  0.00  0.00    -0.173 NA
ATOM      9  C   UNL     1      35.047 -20.566 -19.900  0.00  0.00    +0.032 A 
ATOM     10  C   UNL     1      35.509 -18.896 -21.420  0.00  0.00    +0.002 C 
ATOM     11  C   UNL     1      36.415 -20.612 -19.441  0.00  0.00    +0.102 A 
ATOM     12  C   UNL     1      34.517 -19.738 -20.881  0.00  0.00    +0.003 C 
ATOM     13  C   UNL     1      34.352 -21.498 -19.183  0.00  0.00    +0.053 A 
ATOM     14  C   UNL     1      36.877 -18.904 -21.000  0.00  0.00    +0.002 C 
ATOM     15  C   UNL     1      37.385 -19.759 -19.997  0.00  0.00    +0.021 C 
ATOM     16  C   UNL     1      32.945 -21.931 -19.178  0.00  0.00    +0.051 C 
ATOM     17  H   UNL     1      35.063 -22.765 -17.709  0.00  0.00    +0.189 HD
ENDBRANCH   2  10
BRANCH   3  18
ATOM     18  O   UNL     1      34.977 -14.385 -23.143  0.00  0.00    -0.476 OA
BRANCH  18  19
ATOM     19  C   UNL     1      34.293 -13.793 -22.038  0.00  0.00    +0.184 C 
BRANCH  19  20
ATOM     20  C   UNL     1      33.439 -12.611 -22.512  0.00  0.00    -0.017 C 
BRANCH  20  21
ATOM     21  N   UNL     1      33.196 -12.765 -23.949  0.00  0.00    +0.384 N 
ATOM     22  H   UNL     1      32.230 -12.516 -24.160  0.00  0.00    -0.089 HD
ATOM     23  H   UNL     1      33.365 -13.734 -24.221  0.00  0.00    -0.089 HD
ATOM     24  H   UNL     1      33.827 -12.152 -24.468  0.00  0.00    -0.089 HD
ENDBRANCH  20  21
BRANCH  20  25
ATOM     25  C   UNL     1      32.074 -12.522 -21.799  0.00  0.00    +0.008 C 
BRANCH  25  26
ATOM     26  C   UNL     1      31.946 -11.377 -20.824  0.00  0.00    -0.024 C 
ATOM     27  C   UNL     1      31.812 -10.084 -21.308  0.00  0.00    -0.004 C 
ATOM     28  C   UNL     1      31.966 -11.637 -19.462  0.00  0.00    -0.004 C 
ATOM     29  C   UNL     1      31.694  -9.026 -20.408  0.00  0.00    -0.000 C 
ATOM     30  C   UNL     1      31.848 -10.577 -18.563  0.00  0.00    -0.000 C 
ATOM     31  C   UNL     1      31.712  -9.272 -19.035  0.00  0.00    -0.000 C 
ENDBRANCH  25  26
ENDBRANCH  20  25
ENDBRANCH  19  20
ENDBRANCH  18  19
ENDBRANCH   3  18
TORSDOF 7
ENDMDL
MODEL 4
REMARK VINA RESULT:     -11.2      5.410     12.197
REMARK  Name = 11314340
REMARK  7 active torsions:
REMARK  status: ('A' for Active; 'I' for Inactive)
REMARK    1  A    between atoms: C_2  and  C_10
REMARK    2  A    between atoms: C_3  and  O_18
REMARK    3  A    between atoms: O_18  and  C_19
REMARK    4  A    between atoms: C_19  and  C_20
REMARK    5  A    between atoms: C_20  and  N_21
REMARK    6  A    between atoms: C_20  and  C_25
REMARK    7  A    between atoms: C_25  and  C_26
REMARK                            x       y       z     vdW  Elec       q    Type
REMARK                         _______ _______ _______ _____ _____    ______ ____
ROOT
ATOM      1  N   UNL     1      31.536 -23.118 -15.095  0.00  0.00    -0.239 NA
ATOM      2  C   UNL     1      33.942 -23.281 -15.118  0.00  0.00    +0.022 C 
ATOM      3  C   UNL     1      32.767 -22.786 -17.149  0.00  0.00    +0.158 C 
ATOM      4  C   UNL     1      33.964 -23.007 -16.477  0.00  0.00    +0.040 C 
ATOM      5  C   UNL     1      32.719 -23.326 -14.475  0.00  0.00    +0.099 C 
ATOM      6  C   UNL     1      31.591 -22.854 -16.420  0.00  0.00    +0.136 C 
ENDROOT
BRANCH   2  10
ATOM      7  N   UNL     1      37.970 -24.357 -11.086  0.00  0.00    -0.280 N 
ATOM      8  N   UNL     1      38.601 -24.188 -12.264  0.00  0.00    -0.173 NA
ATOM      9  C   UNL     1      36.347 -23.971 -12.457  0.00  0.00    +0.032 A 
ATOM     10  C   UNL     1      35.174 -23.515 -14.388  0.00  0.00    +0.002 C 
ATOM     11  C   UNL     1      37.615 -23.944 -13.146  0.00  0.00    +0.102 A 
ATOM     12  C   UNL     1      35.088 -23.767 -13.004  0.00  0.00    +0.003 C 
ATOM     13  C   UNL     1      36.612 -24.238 -11.143  0.00  0.00    +0.053 A 
ATOM     14  C   UNL     1      36.405 -23.479 -15.117  0.00  0.00    +0.002 C 
ATOM     15  C   UNL     1      37.672 -23.691 -14.529  0.00  0.00    +0.021 C 
ATOM     16  C   UNL     1      35.763 -24.393  -9.950  0.00  0.00    +0.051 C 
ATOM     17  H   UNL     1      38.451 -24.553 -10.249  0.00  0.00    +0.189 HD
ENDBRANCH   2  10
BRANCH   3  18
ATOM     18  O   UNL     1      32.753 -22.515 -18.478  0.00  0.00    -0.476 OA
BRANCH  18  19
ATOM     19  C   UNL     1      34.004 -22.212 -19.098  0.00  0.00    +0.184 C 
BRANCH  19  20
ATOM     20  C   UNL     1      33.831 -21.085 -20.122  0.00  0.00    -0.017 C 
BRANCH  20  21
ATOM     21  N   UNL     1      32.678 -20.271 -19.723  0.00  0.00    +0.384 N 
ATOM     22  H   UNL     1      32.653 -20.191 -18.707  0.00  0.00    -0.089 HD
ATOM     23  H   UNL     1      31.819 -20.714 -20.052  0.00  0.00    -0.089 HD
ATOM     24  H   UNL     1      32.760 -19.341 -20.136  0.00  0.00    -0.089 HD
ENDBRANCH  20  21
BRANCH  20  25
ATOM     25  C   UNL     1      35.062 -20.160 -20.223  0.00  0.00    +0.008 C 
BRANCH  25  26
ATOM     26  C   UNL     1      35.018 -19.175 -21.366  0.00  0.00    -0.024 C 
ATOM     27  C   UNL     1      34.597 -19.603 -22.616  0.00  0.00    -0.004 C 
ATOM     28  C   UNL     1      35.399 -17.860 -21.146  0.00  0.00    -0.004 C 
ATOM     29  C   UNL     1      34.556 -18.693 -23.672  0.00  0.00    -0.000 C 
ATOM     30  C   UNL     1      35.357 -16.951 -22.203  0.00  0.00    -0.000 C 
ATOM     31  C   UNL     1      34.936 -17.367 -23.465  0.00  0.00    -0.000 C 
ENDBRANCH  25  26
ENDBRANCH  20  25
ENDBRANCH  19  20
ENDBRANCH  18  19
ENDBRANCH   3  18
TORSDOF 7
ENDMDL
MODEL 5
REMARK VINA RESULT:     -11.0      3.079      6.137
REMARK  Name = 11314340
REMARK  7 active torsions:
REMARK  status: ('A' for Active; 'I' for Inactive)
REMARK    1  A    between atoms: C_2  and  C_10
REMARK    2  A    between atoms: C_3  and  O_18
REMARK    3  A    between atoms: O_18  and  C_19
REMARK    4  A    between atoms: C_19  and  C_20
REMARK    5  A    between atoms: C_20  and  N_21
REMARK    6  A    between atoms: C_20  and  C_25
REMARK    7  A    between atoms: C_25  and  C_26
REMARK                            x       y       z     vdW  Elec       q    Type
REMARK                         _______ _______ _______ _____ _____    ______ ____
ROOT
ATOM      1  N   UNL     1      37.472 -19.171 -19.934  0.00  0.00    -0.239 NA
ATOM      2  C   UNL     1      35.670 -18.864 -21.507  0.00  0.00    +0.022 C 
ATOM      3  C   UNL     1      35.680 -20.787 -20.074  0.00  0.00    +0.158 C 
ATOM      4  C   UNL     1      35.075 -20.041 -21.080  0.00  0.00    +0.040 C 
ATOM      5  C   UNL     1      36.855 -18.472 -20.913  0.00  0.00    +0.099 C 
ATOM      6  C   UNL     1      36.867 -20.314 -19.540  0.00  0.00    +0.136 C 
ENDROOT
BRANCH   2  10
ATOM      7  N   UNL     1      33.569 -14.581 -24.806  0.00  0.00    -0.280 N 
ATOM      8  N   UNL     1      33.374 -15.742 -25.463  0.00  0.00    -0.173 NA
ATOM      9  C   UNL     1      34.397 -16.050 -23.458  0.00  0.00    +0.032 A 
ATOM     10  C   UNL     1      35.064 -18.063 -22.555  0.00  0.00    +0.002 C 
ATOM     11  C   UNL     1      33.880 -16.684 -24.647  0.00  0.00    +0.102 A 
ATOM     12  C   UNL     1      35.001 -16.668 -22.371  0.00  0.00    +0.003 C 
ATOM     13  C   UNL     1      34.182 -14.708 -23.593  0.00  0.00    +0.053 A 
ATOM     14  C   UNL     1      34.568 -18.738 -23.715  0.00  0.00    +0.002 C 
ATOM     15  C   UNL     1      33.957 -18.079 -24.805  0.00  0.00    +0.021 C 
ATOM     16  C   UNL     1      34.474 -13.543 -22.741  0.00  0.00    +0.051 C 
ATOM     17  H   UNL     1      33.292 -13.711 -25.173  0.00  0.00    +0.189 HD
ENDBRANCH   2  10
BRANCH   3  18
ATOM     18  O   UNL     1      35.124 -21.943 -19.632  0.00  0.00    -0.476 OA
BRANCH  18  19
ATOM     19  C   UNL     1      35.077 -22.148 -18.219  0.00  0.00    +0.184 C 
BRANCH  19  20
ATOM     20  C   UNL     1      33.624 -22.283 -17.749  0.00  0.00    -0.017 C 
BRANCH  20  21
ATOM     21  N   UNL     1      32.752 -22.236 -18.926  0.00  0.00    +0.384 N 
ATOM     22  H   UNL     1      33.321 -22.207 -19.771  0.00  0.00    -0.089 HD
ATOM     23  H   UNL     1      32.166 -21.401 -18.881  0.00  0.00    -0.089 HD
ATOM     24  H   UNL     1      32.158 -23.066 -18.943  0.00  0.00    -0.089 HD
ENDBRANCH  20  21
BRANCH  20  25
ATOM     25  C   UNL     1      33.348 -23.602 -16.997  0.00  0.00    +0.008 C 
BRANCH  25  26
ATOM     26  C   UNL     1      32.469 -23.460 -15.778  0.00  0.00    -0.024 C 
ATOM     27  C   UNL     1      31.106 -23.267 -15.943  0.00  0.00    -0.004 C 
ATOM     28  C   UNL     1      33.040 -23.525 -14.517  0.00  0.00    -0.004 C 
ATOM     29  C   UNL     1      30.293 -23.136 -14.817  0.00  0.00    -0.000 C 
ATOM     30  C   UNL     1      32.226 -23.393 -13.391  0.00  0.00    -0.000 C 
ATOM     31  C   UNL     1      30.854 -23.199 -13.541  0.00  0.00    -0.000 C 
ENDBRANCH  25  26
ENDBRANCH  20  25
ENDBRANCH  19  20
ENDBRANCH  18  19
ENDBRANCH   3  18
TORSDOF 7
ENDMDL
MODEL 6
REMARK VINA RESULT:     -10.9      3.737     11.047
REMARK  Name = 11314340
REMARK  7 active torsions:
REMARK  status: ('A' for Active; 'I' for Inactive)
REMARK    1  A    between atoms: C_2  and  C_10
REMARK    2  A    between atoms: C_3  and  O_18
REMARK    3  A    between atoms: O_18  and  C_19
REMARK    4  A    between atoms: C_19  and  C_20
REMARK    5  A    between atoms: C_20  and  N_21
REMARK    6  A    between atoms: C_20  and  C_25
REMARK    7  A    between atoms: C_25  and  C_26
REMARK                            x       y       z     vdW  Elec       q    Type
REMARK                         _______ _______ _______ _____ _____    ______ ____
ROOT
ATOM      1  N   UNL     1      32.966 -21.992 -19.079  0.00  0.00    -0.239 NA
ATOM      2  C   UNL     1      35.013 -22.016 -17.804  0.00  0.00    +0.022 C 
ATOM      3  C   UNL     1      34.933 -20.852 -19.899  0.00  0.00    +0.158 C 
ATOM      4  C   UNL     1      35.644 -21.250 -18.772  0.00  0.00    +0.040 C 
ATOM      5  C   UNL     1      33.689 -22.360 -17.997  0.00  0.00    +0.099 C 
ATOM      6  C   UNL     1      33.610 -21.246 -20.004  0.00  0.00    +0.136 C 
ENDROOT
BRANCH   2  10
ATOM      7  N   UNL     1      36.554 -24.118 -12.623  0.00  0.00    -0.280 N 
ATOM      8  N   UNL     1      37.671 -23.689 -13.243  0.00  0.00    -0.173 NA
ATOM      9  C   UNL     1      35.811 -23.378 -14.510  0.00  0.00    +0.032 A 
ATOM     10  C   UNL     1      35.728 -22.448 -16.617  0.00  0.00    +0.002 C 
ATOM     11  C   UNL     1      37.243 -23.219 -14.428  0.00  0.00    +0.102 A 
ATOM     12  C   UNL     1      34.984 -23.018 -15.566  0.00  0.00    +0.003 C 
ATOM     13  C   UNL     1      35.405 -23.954 -13.340  0.00  0.00    +0.053 A 
ATOM     14  C   UNL     1      37.147 -22.270 -16.585  0.00  0.00    +0.002 C 
ATOM     15  C   UNL     1      37.961 -22.646 -15.494  0.00  0.00    +0.021 C 
ATOM     16  C   UNL     1      34.092 -24.368 -12.816  0.00  0.00    +0.051 C 
ATOM     17  H   UNL     1      36.567 -24.518 -11.723  0.00  0.00    +0.189 HD
ENDBRANCH   2  10
BRANCH   3  18
ATOM     18  O   UNL     1      35.519 -20.101 -20.865  0.00  0.00    -0.476 OA
BRANCH  18  19
ATOM     19  C   UNL     1      34.662 -19.307 -21.687  0.00  0.00    +0.184 C 
BRANCH  19  20
ATOM     20  C   UNL     1      35.386 -18.030 -22.132  0.00  0.00    -0.017 C 
BRANCH  20  21
ATOM     21  N   UNL     1      36.830 -18.276 -22.082  0.00  0.00    +0.384 N 
ATOM     22  H   UNL     1      37.146 -18.638 -22.981  0.00  0.00    -0.089 HD
ATOM     23  H   UNL     1      37.034 -18.958 -21.350  0.00  0.00    -0.089 HD
ATOM     24  H   UNL     1      37.317 -17.403 -21.876  0.00  0.00    -0.089 HD
ENDBRANCH  20  21
BRANCH  20  25
ATOM     25  C   UNL     1      35.021 -17.593 -23.566  0.00  0.00    +0.008 C 
BRANCH  25  26
ATOM     26  C   UNL     1      34.530 -16.170 -23.684  0.00  0.00    -0.024 C 
ATOM     27  C   UNL     1      33.801 -15.793 -24.803  0.00  0.00    -0.004 C 
ATOM     28  C   UNL     1      34.815 -15.266 -22.673  0.00  0.00    -0.004 C 
ATOM     29  C   UNL     1      33.347 -14.480 -24.912  0.00  0.00    -0.000 C 
ATOM     30  C   UNL     1      34.360 -13.952 -22.784  0.00  0.00    -0.000 C 
ATOM     31  C   UNL     1      33.627 -13.558 -23.902  0.00  0.00    -0.000 C 
ENDBRANCH  25  26
ENDBRANCH  20  25
ENDBRANCH  19  20
ENDBRANCH  18  19
ENDBRANCH   3  18
TORSDOF 7
ENDMDL
MODEL 7
REMARK VINA RESULT:     -10.7      1.885      9.264
REMARK  Name = 11314340
REMARK  7 active torsions:
REMARK  status: ('A' for Active; 'I' for Inactive)
REMARK    1  A    between atoms: C_2  and  C_10
REMARK    2  A    between atoms: C_3  and  O_18
REMARK    3  A    between atoms: O_18  and  C_19
REMARK    4  A    between atoms: C_19  and  C_20
REMARK    5  A    between atoms: C_20  and  N_21
REMARK    6  A    between atoms: C_20  and  C_25
REMARK    7  A    between atoms: C_25  and  C_26
REMARK                            x       y       z     vdW  Elec       q    Type
REMARK                         _______ _______ _______ _____ _____    ______ ____
ROOT
ATOM      1  N   UNL     1      34.365 -17.355 -24.649  0.00  0.00    -0.239 NA
ATOM      2  C   UNL     1      35.148 -17.804 -22.413  0.00  0.00    +0.022 C 
ATOM      3  C   UNL     1      34.833 -15.537 -23.127  0.00  0.00    +0.158 C 
ATOM      4  C   UNL     1      35.200 -16.446 -22.141  0.00  0.00    +0.040 C 
ATOM      5  C   UNL     1      34.729 -18.209 -23.666  0.00  0.00    +0.099 C 
ATOM      6  C   UNL     1      34.427 -16.037 -24.353  0.00  0.00    +0.136 C 
ENDROOT
BRANCH   2  10
ATOM      7  N   UNL     1      35.264 -22.038 -18.451  0.00  0.00    -0.280 N 
ATOM      8  N   UNL     1      36.514 -21.547 -18.566  0.00  0.00    -0.173 NA
ATOM      9  C   UNL     1      35.045 -20.495 -19.945  0.00  0.00    +0.032 A 
ATOM     10  C   UNL     1      35.526 -18.778 -21.405  0.00  0.00    +0.002 C 
ATOM     11  C   UNL     1      36.414 -20.578 -19.494  0.00  0.00    +0.102 A 
ATOM     12  C   UNL     1      34.523 -19.625 -20.893  0.00  0.00    +0.003 C 
ATOM     13  C   UNL     1      34.339 -21.442 -19.258  0.00  0.00    +0.053 A 
ATOM     14  C   UNL     1      36.895 -18.821 -20.993  0.00  0.00    +0.002 C 
ATOM     15  C   UNL     1      37.394 -19.719 -20.023  0.00  0.00    +0.021 C 
ATOM     16  C   UNL     1      32.926 -21.854 -19.263  0.00  0.00    +0.051 C 
ATOM     17  H   UNL     1      35.037 -22.771 -17.834  0.00  0.00    +0.189 HD
ENDBRANCH   2  10
BRANCH   3  18
ATOM     18  O   UNL     1      34.871 -14.201 -22.894  0.00  0.00    -0.476 OA
BRANCH  18  19
ATOM     19  C   UNL     1      34.412 -13.745 -21.620  0.00  0.00    +0.184 C 
BRANCH  19  20
ATOM     20  C   UNL     1      32.881 -13.795 -21.558  0.00  0.00    -0.017 C 
BRANCH  20  21
ATOM     21  N   UNL     1      32.452 -13.227 -20.277  0.00  0.00    +0.384 N 
ATOM     22  H   UNL     1      33.138 -12.543 -19.960  0.00  0.00    -0.089 HD
ATOM     23  H   UNL     1      32.370 -13.973 -19.585  0.00  0.00    -0.089 HD
ATOM     24  H   UNL     1      31.545 -12.771 -20.393  0.00  0.00    -0.089 HD
ENDBRANCH  20  21
BRANCH  20  25
ATOM     25  C   UNL     1      32.200 -12.999 -22.691  0.00  0.00    +0.008 C 
BRANCH  25  26
ATOM     26  C   UNL     1      32.454 -11.511 -22.656  0.00  0.00    -0.024 C 
ATOM     27  C   UNL     1      33.463 -10.976 -23.442  0.00  0.00    -0.004 C 
ATOM     28  C   UNL     1      31.674 -10.707 -21.840  0.00  0.00    -0.004 C 
ATOM     29  C   UNL     1      33.698  -9.602 -23.411  0.00  0.00    -0.000 C 
ATOM     30  C   UNL     1      31.910  -9.332 -21.809  0.00  0.00    -0.000 C 
ATOM     31  C   UNL     1      32.922  -8.779 -22.593  0.00  0.00    -0.000 C 
ENDBRANCH  25  26
ENDBRANCH  20  25
ENDBRANCH  19  20
ENDBRANCH  18  19
ENDBRANCH   3  18
TORSDOF 7
ENDMDL
MODEL 8
REMARK VINA RESULT:     -10.7      5.377     12.476
REMARK  Name = 11314340
REMARK  7 active torsions:
REMARK  status: ('A' for Active; 'I' for Inactive)
REMARK    1  A    between atoms: C_2  and  C_10
REMARK    2  A    between atoms: C_3  and  O_18
REMARK    3  A    between atoms: O_18  and  C_19
REMARK    4  A    between atoms: C_19  and  C_20
REMARK    5  A    between atoms: C_20  and  N_21
REMARK    6  A    between atoms: C_20  and  C_25
REMARK    7  A    between atoms: C_25  and  C_26
REMARK                            x       y       z     vdW  Elec       q    Type
REMARK                         _______ _______ _______ _____ _____    ______ ____
ROOT
ATOM      1  N   UNL     1      31.610 -22.983 -15.582  0.00  0.00    -0.239 NA
ATOM      2  C   UNL     1      33.853 -23.680 -15.036  0.00  0.00    +0.022 C 
ATOM      3  C   UNL     1      33.323 -23.042 -17.286  0.00  0.00    +0.158 C 
ATOM      4  C   UNL     1      34.250 -23.489 -16.350  0.00  0.00    +0.040 C 
ATOM      5  C   UNL     1      32.538 -23.418 -14.700  0.00  0.00    +0.099 C 
ATOM      6  C   UNL     1      32.028 -22.807 -16.855  0.00  0.00    +0.136 C 
ENDROOT
BRANCH   2  10
ATOM      7  N   UNL     1      38.481 -25.698 -12.181  0.00  0.00    -0.280 N 
ATOM      8  N   UNL     1      37.507 -25.468 -11.278  0.00  0.00    -0.173 NA
ATOM      9  C   UNL     1      36.855 -24.961 -13.395  0.00  0.00    +0.032 A 
ATOM     10  C   UNL     1      34.796 -24.146 -14.036  0.00  0.00    +0.002 C 
ATOM     11  C   UNL     1      36.473 -25.006 -12.003  0.00  0.00    +0.102 A 
ATOM     12  C   UNL     1      36.076 -24.546 -14.467  0.00  0.00    +0.003 C 
ATOM     13  C   UNL     1      38.142 -25.410 -13.471  0.00  0.00    +0.053 A 
ATOM     14  C   UNL     1      34.370 -24.170 -12.670  0.00  0.00    +0.002 C 
ATOM     15  C   UNL     1      35.187 -24.600 -11.601  0.00  0.00    +0.021 C 
ATOM     16  C   UNL     1      39.085 -25.600 -14.586  0.00  0.00    +0.051 C 
ATOM     17  H   UNL     1      39.367 -26.045 -11.929  0.00  0.00    +0.189 HD
ENDBRANCH   2  10
BRANCH   3  18
ATOM     18  O   UNL     1      33.678 -22.844 -18.580  0.00  0.00    -0.476 OA
BRANCH  18  19
ATOM     19  C   UNL     1      34.784 -21.975 -18.830  0.00  0.00    +0.184 C 
BRANCH  19  20
ATOM     20  C   UNL     1      34.483 -21.060 -20.023  0.00  0.00    -0.017 C 
BRANCH  20  21
ATOM     21  N   UNL     1      33.244 -20.328 -19.743  0.00  0.00    +0.384 N 
ATOM     22  H   UNL     1      33.268 -19.972 -18.788  0.00  0.00    -0.089 HD
ATOM     23  H   UNL     1      32.446 -20.955 -19.853  0.00  0.00    -0.089 HD
ATOM     24  H   UNL     1      33.156 -19.548 -20.395  0.00  0.00    -0.089 HD
ENDBRANCH  20  21
BRANCH  20  25
ATOM     25  C   UNL     1      35.600 -20.032 -20.299  0.00  0.00    +0.008 C 
BRANCH  25  26
ATOM     26  C   UNL     1      35.321 -19.093 -21.447  0.00  0.00    -0.024 C 
ATOM     27  C   UNL     1      35.611 -17.744 -21.307  0.00  0.00    -0.004 C 
ATOM     28  C   UNL     1      34.781 -19.594 -22.621  0.00  0.00    -0.004 C 
ATOM     29  C   UNL     1      35.355 -16.876 -22.368  0.00  0.00    -0.000 C 
ATOM     30  C   UNL     1      34.524 -18.725 -23.681  0.00  0.00    -0.000 C 
ATOM     31  C   UNL     1      34.811 -17.366 -23.555  0.00  0.00    -0.000 C 
ENDBRANCH  25  26
ENDBRANCH  20  25
ENDBRANCH  19  20
ENDBRANCH  18  19
ENDBRANCH   3  18
TORSDOF 7
ENDMDL
MODEL 9
REMARK VINA RESULT:     -10.7      4.938     11.221
REMARK  Name = 11314340
REMARK  7 active torsions:
REMARK  status: ('A' for Active; 'I' for Inactive)
REMARK    1  A    between atoms: C_2  and  C_10
REMARK    2  A    between atoms: C_3  and  O_18
REMARK    3  A    between atoms: O_18  and  C_19
REMARK    4  A    between atoms: C_19  and  C_20
REMARK    5  A    between atoms: C_20  and  N_21
REMARK    6  A    between atoms: C_20  and  C_25
REMARK    7  A    between atoms: C_25  and  C_26
REMARK                            x       y       z     vdW  Elec       q    Type
REMARK                         _______ _______ _______ _____ _____    ______ ____
ROOT
ATOM      1  N   UNL     1      36.586 -22.273 -15.631  0.00  0.00    -0.239 NA
ATOM      2  C   UNL     1      34.313 -23.042 -15.866  0.00  0.00    +0.022 C 
ATOM      3  C   UNL     1      35.505 -22.258 -17.793  0.00  0.00    +0.158 C 
ATOM      4  C   UNL     1      34.346 -22.777 -17.226  0.00  0.00    +0.040 C 
ATOM      5  C   UNL     1      35.443 -22.778 -15.115  0.00  0.00    +0.099 C 
ATOM      6  C   UNL     1      36.587 -22.025 -16.960  0.00  0.00    +0.136 C 
ENDROOT
BRANCH   2  10
ATOM      7  N   UNL     1      28.885 -24.541 -14.474  0.00  0.00    -0.280 N 
ATOM      8  N   UNL     1      29.710 -25.076 -13.552  0.00  0.00    -0.173 NA
ATOM      9  C   UNL     1      30.837 -23.895 -15.133  0.00  0.00    +0.032 A 
ATOM     10  C   UNL     1      33.118 -23.584 -15.244  0.00  0.00    +0.002 C 
ATOM     11  C   UNL     1      30.942 -24.692 -13.934  0.00  0.00    +0.102 A 
ATOM     12  C   UNL     1      31.875 -23.308 -15.845  0.00  0.00    +0.003 C 
ATOM     13  C   UNL     1      29.511 -23.820 -15.449  0.00  0.00    +0.053 A 
ATOM     14  C   UNL     1      33.275 -24.367 -14.057  0.00  0.00    +0.002 C 
ATOM     15  C   UNL     1      32.197 -24.952 -13.355  0.00  0.00    +0.021 C 
ATOM     16  C   UNL     1      28.763 -23.166 -16.537  0.00  0.00    +0.051 C 
ATOM     17  H   UNL     1      27.909 -24.661 -14.446  0.00  0.00    +0.189 HD
ENDBRANCH   2  10
BRANCH   3  18
ATOM     18  O   UNL     1      35.573 -21.988 -19.120  0.00  0.00    -0.476 OA
BRANCH  18  19
ATOM     19  C   UNL     1      36.197 -20.763 -19.509  0.00  0.00    +0.184 C 
BRANCH  19  20
ATOM     20  C   UNL     1      35.399 -20.093 -20.633  0.00  0.00    -0.017 C 
BRANCH  20  21
ATOM     21  N   UNL     1      34.003 -19.974 -20.201  0.00  0.00    +0.384 N 
ATOM     22  H   UNL     1      33.960 -19.974 -19.183  0.00  0.00    -0.089 HD
ATOM     23  H   UNL     1      33.467 -20.763 -20.565  0.00  0.00    -0.089 HD
ATOM     24  H   UNL     1      33.609 -19.103 -20.559  0.00  0.00    -0.089 HD
ENDBRANCH  20  21
BRANCH  20  25
ATOM     25  C   UNL     1      35.915 -18.682 -20.989  0.00  0.00    +0.008 C 
BRANCH  25  26
ATOM     26  C   UNL     1      35.332 -18.099 -22.253  0.00  0.00    -0.024 C 
ATOM     27  C   UNL     1      35.360 -16.725 -22.443  0.00  0.00    -0.004 C 
ATOM     28  C   UNL     1      34.780 -18.945 -23.201  0.00  0.00    -0.004 C 
ATOM     29  C   UNL     1      34.822 -16.185 -23.610  0.00  0.00    -0.000 C 
ATOM     30  C   UNL     1      34.242 -18.404 -24.369  0.00  0.00    -0.000 C 
ATOM     31  C   UNL     1      34.262 -17.025 -24.574  0.00  0.00    -0.000 C 
ENDBRANCH  25  26
ENDBRANCH  20  25
ENDBRANCH  19  20
ENDBRANCH  18  19
ENDBRANCH   3  18
TORSDOF 7
ENDMDL
