MODEL 1
REMARK VINA RESULT:     -12.2      0.000      0.000
REMARK  Name = 445480
REMARK  5 active torsions:
REMARK  status: ('A' for Active; 'I' for Inactive)
REMARK    1  A    between atoms: N_2  and  C_21
REMARK    2  A    between atoms: C_3  and  N_7
REMARK    3  A    between atoms: N_7  and  S_9
REMARK    4  A    between atoms: S_9  and  C_14
REMARK    5  A    between atoms: C_21  and  C_24
REMARK                            x       y       z     vdW  Elec       q    Type
REMARK                         _______ _______ _______ _____ _____    ______ ____
ROOT
ATOM      1  O   UNL     1      36.742 -20.963 -19.451  0.00  0.00    -0.273 OA
ATOM      2  N   UNL     1      35.324 -19.702 -20.840  0.00  0.00    -0.274 N 
ATOM      3  C   UNL     1      34.350 -21.382 -19.551  0.00  0.00    +0.153 C 
ATOM      4  C   UNL     1      33.277 -20.399 -20.001  0.00  0.00    +0.048 C 
ATOM      5  C   UNL     1      33.919 -19.684 -21.175  0.00  0.00    +0.096 C 
ATOM      6  C   UNL     1      35.641 -20.682 -19.899  0.00  0.00    +0.242 C 
ENDROOT
BRANCH   3   7
ATOM      7  N   UNL     1      34.291 -21.602 -18.101  0.00  0.00    -0.171 NA
ATOM      8  H   UNL     1      35.252 -21.678 -17.766  0.00  0.00    +0.149 HD
BRANCH   7   9
ATOM      9  S   UNL     1      33.440 -22.975 -17.527  0.00  0.00    +0.066 S 
ATOM     10  O   UNL     1      33.818 -24.135 -18.314  0.00  0.00    -0.152 OA
ATOM     11  O   UNL     1      32.049 -22.622 -17.327  0.00  0.00    -0.152 OA
BRANCH   9  14
ATOM     12  S   UNL     1      35.638 -22.827 -15.612  0.00  0.00    -0.066 S 
ATOM     13  N   UNL     1      34.035 -24.432 -12.451  0.00  0.00    -0.243 NA
ATOM     14  C   UNL     1      34.035 -23.309 -15.869  0.00  0.00    +0.153 C 
ATOM     15  C   UNL     1      33.443 -23.873 -14.792  0.00  0.00    +0.046 C 
ATOM     16  C   UNL     1      34.334 -23.923 -13.678  0.00  0.00    +0.089 C 
ATOM     17  C   UNL     1      35.582 -23.381 -13.985  0.00  0.00    +0.048 C 
ATOM     18  C   UNL     1      36.590 -23.344 -13.011  0.00  0.00    +0.010 C 
ATOM     19  C   UNL     1      36.292 -23.861 -11.758  0.00  0.00    +0.021 C 
ATOM     20  C   UNL     1      35.028 -24.380 -11.540  0.00  0.00    +0.099 C 
ENDBRANCH   9  14
ENDBRANCH   7   9
ENDBRANCH   3   7
BRANCH   2  21
ATOM     21  C   UNL     1      36.278 -18.860 -21.528  0.00  0.00    +0.120 C 
BRANCH  21  24
ATOM     22  N   UNL     1      33.705 -13.306 -22.487  0.00  0.00    -0.230 NA
ATOM     23  N   UNL     1      34.721 -14.042 -20.495  0.00  0.00    -0.343 N 
ATOM     24  C   UNL     1      35.569 -17.780 -22.297  0.00  0.00    -0.002 C 
ATOM     25  C   UNL     1      35.303 -16.563 -21.683  0.00  0.00    +0.000 C 
ATOM     26  C   UNL     1      35.187 -18.013 -23.610  0.00  0.00    -0.003 C 
ATOM     27  C   UNL     1      34.639 -15.550 -22.394  0.00  0.00    +0.031 C 
ATOM     28  C   UNL     1      34.245 -15.774 -23.731  0.00  0.00    +0.004 C 
ATOM     29  C   UNL     1      34.527 -17.015 -24.327  0.00  0.00    -0.000 C 
ATOM     30  C   UNL     1      34.342 -14.306 -21.836  0.00  0.00    +0.125 C 
ATOM     31  C   UNL     1      33.585 -14.752 -24.423  0.00  0.00    +0.021 C 
ATOM     32  C   UNL     1      33.344 -13.557 -23.764  0.00  0.00    +0.100 C 
ATOM     33  H   UNL     1      34.517 -13.169 -20.088  0.00  0.00    +0.144 HD
ATOM     34  H   UNL     1      35.188 -14.733 -19.971  0.00  0.00    +0.144 HD
ENDBRANCH  21  24
ENDBRANCH   2  21
TORSDOF 5
ENDMDL
MODEL 2
REMARK VINA RESULT:     -12.2      1.476      2.310
REMARK  Name = 445480
REMARK  5 active torsions:
REMARK  status: ('A' for Active; 'I' for Inactive)
REMARK    1  A    between atoms: N_2  and  C_21
REMARK    2  A    between atoms: C_3  and  N_7
REMARK    3  A    between atoms: N_7  and  S_9
REMARK    4  A    between atoms: S_9  and  C_14
REMARK    5  A    between atoms: C_21  and  C_24
REMARK                            x       y       z     vdW  Elec       q    Type
REMARK                         _______ _______ _______ _____ _____    ______ ____
ROOT
ATOM      1  O   UNL     1      37.115 -19.288 -19.882  0.00  0.00    -0.273 OA
ATOM      2  N   UNL     1      35.490 -18.719 -21.483  0.00  0.00    -0.274 N 
ATOM      3  C   UNL     1      35.195 -20.713 -20.315  0.00  0.00    +0.153 C 
ATOM      4  C   UNL     1      33.870 -20.285 -20.934  0.00  0.00    +0.048 C 
ATOM      5  C   UNL     1      34.284 -19.307 -22.017  0.00  0.00    +0.096 C 
ATOM      6  C   UNL     1      36.076 -19.501 -20.488  0.00  0.00    +0.242 C 
ENDROOT
BRANCH   3   7
ATOM      7  N   UNL     1      35.040 -21.003 -18.885  0.00  0.00    -0.171 NA
ATOM      8  H   UNL     1      35.975 -21.142 -18.500  0.00  0.00    +0.149 HD
BRANCH   7   9
ATOM      9  S   UNL     1      34.097 -22.362 -18.434  0.00  0.00    +0.066 S 
ATOM     10  O   UNL     1      34.499 -23.508 -19.228  0.00  0.00    -0.152 OA
ATOM     11  O   UNL     1      32.707 -21.964 -18.337  0.00  0.00    -0.152 OA
BRANCH   9  14
ATOM     12  S   UNL     1      33.260 -23.431 -15.849  0.00  0.00    -0.066 S 
ATOM     13  N   UNL     1      36.540 -23.139 -13.778  0.00  0.00    -0.243 NA
ATOM     14  C   UNL     1      34.538 -22.773 -16.745  0.00  0.00    +0.153 C 
ATOM     15  C   UNL     1      35.697 -22.655 -16.058  0.00  0.00    +0.046 C 
ATOM     16  C   UNL     1      35.555 -23.125 -14.718  0.00  0.00    +0.089 C 
ATOM     17  C   UNL     1      34.262 -23.583 -14.461  0.00  0.00    +0.048 C 
ATOM     18  C   UNL     1      33.934 -24.084 -13.193  0.00  0.00    +0.010 C 
ATOM     19  C   UNL     1      34.934 -24.100 -12.230  0.00  0.00    +0.021 C 
ATOM     20  C   UNL     1      36.188 -23.626 -12.571  0.00  0.00    +0.099 C 
ENDBRANCH   9  14
ENDBRANCH   7   9
ENDBRANCH   3   7
BRANCH   2  21
ATOM     21  C   UNL     1      36.057 -17.512 -22.045  0.00  0.00    +0.120 C 
BRANCH  21  24
ATOM     22  N   UNL     1      32.426 -12.659 -23.323  0.00  0.00    -0.230 NA
ATOM     23  N   UNL     1      33.462 -14.071 -24.896  0.00  0.00    -0.343 N 
ATOM     24  C   UNL     1      35.177 -16.330 -21.750  0.00  0.00    -0.002 C 
ATOM     25  C   UNL     1      34.627 -15.606 -22.799  0.00  0.00    +0.000 C 
ATOM     26  C   UNL     1      34.926 -15.976 -20.432  0.00  0.00    -0.003 C 
ATOM     27  C   UNL     1      33.805 -14.499 -22.532  0.00  0.00    +0.031 C 
ATOM     28  C   UNL     1      33.542 -14.128 -21.196  0.00  0.00    +0.004 C 
ATOM     29  C   UNL     1      34.111 -14.877 -20.154  0.00  0.00    -0.000 C 
ATOM     30  C   UNL     1      33.222 -13.730 -23.540  0.00  0.00    +0.125 C 
ATOM     31  C   UNL     1      32.720 -13.021 -20.950  0.00  0.00    +0.021 C 
ATOM     32  C   UNL     1      32.196 -12.333 -22.033  0.00  0.00    +0.100 C 
ATOM     33  H   UNL     1      33.058 -13.538 -25.618  0.00  0.00    +0.144 HD
ATOM     34  H   UNL     1      34.034 -14.842 -25.115  0.00  0.00    +0.144 HD
ENDBRANCH  21  24
ENDBRANCH   2  21
TORSDOF 5
ENDMDL
MODEL 3
REMARK VINA RESULT:     -12.0      2.672     10.433
REMARK  Name = 445480
REMARK  5 active torsions:
REMARK  status: ('A' for Active; 'I' for Inactive)
REMARK    1  A    between atoms: N_2  and  C_21
REMARK    2  A    between atoms: C_3  and  N_7
REMARK    3  A    between atoms: N_7  and  S_9
REMARK    4  A    between atoms: S_9  and  C_14
REMARK    5  A    between atoms: C_21  and  C_24
REMARK                            x       y       z     vdW  Elec       q    Type
REMARK                         _______ _______ _______ _____ _____    ______ ____
ROOT
ATOM      1  O   UNL     1      32.406 -20.332 -19.655  0.00  0.00    -0.273 OA
ATOM      2  N   UNL     1      33.801 -21.935 -18.647  0.00  0.00    -0.274 N 
ATOM      3  C   UNL     1      34.699 -20.670 -20.386  0.00  0.00    +0.153 C 
ATOM      4  C   UNL     1      35.828 -21.290 -19.570  0.00  0.00    +0.048 C 
ATOM      5  C   UNL     1      35.148 -22.424 -18.826  0.00  0.00    +0.096 C 
ATOM      6  C   UNL     1      33.475 -20.912 -19.538  0.00  0.00    +0.242 C 
ENDROOT
BRANCH   3   7
ATOM      7  N   UNL     1      34.899 -19.226 -20.552  0.00  0.00    -0.171 NA
ATOM      8  H   UNL     1      33.975 -18.794 -20.590  0.00  0.00    +0.149 HD
BRANCH   7   9
ATOM      9  S   UNL     1      35.770 -18.685 -21.926  0.00  0.00    +0.066 S 
ATOM     10  O   UNL     1      35.428 -19.514 -23.067  0.00  0.00    -0.152 OA
ATOM     11  O   UNL     1      37.151 -18.453 -21.551  0.00  0.00    -0.152 OA
BRANCH   9  14
ATOM     12  S   UNL     1      34.645 -16.887 -23.932  0.00  0.00    -0.066 S 
ATOM     13  N   UNL     1      34.243 -13.594 -21.898  0.00  0.00    -0.243 NA
ATOM     14  C   UNL     1      35.160 -17.047 -22.326  0.00  0.00    +0.153 C 
ATOM     15  C   UNL     1      35.036 -15.922 -21.586  0.00  0.00    +0.046 C 
ATOM     16  C   UNL     1      34.489 -14.853 -22.357  0.00  0.00    +0.089 C 
ATOM     17  C   UNL     1      34.225 -15.240 -23.671  0.00  0.00    +0.048 C 
ATOM     18  C   UNL     1      33.682 -14.319 -24.579  0.00  0.00    +0.010 C 
ATOM     19  C   UNL     1      33.430 -13.034 -24.117  0.00  0.00    +0.021 C 
ATOM     20  C   UNL     1      33.723 -12.736 -22.799  0.00  0.00    +0.099 C 
ENDBRANCH   9  14
ENDBRANCH   7   9
ENDBRANCH   3   7
BRANCH   2  21
ATOM     21  C   UNL     1      32.886 -22.560 -17.716  0.00  0.00    +0.120 C 
BRANCH  21  24
ATOM     22  N   UNL     1      37.685 -23.255 -13.860  0.00  0.00    -0.230 NA
ATOM     23  N   UNL     1      37.797 -22.567 -16.109  0.00  0.00    -0.343 N 
ATOM     24  C   UNL     1      33.585 -22.879 -16.424  0.00  0.00    -0.002 C 
ATOM     25  C   UNL     1      34.967 -22.769 -16.347  0.00  0.00    +0.000 C 
ATOM     26  C   UNL     1      32.841 -23.282 -15.325  0.00  0.00    -0.003 C 
ATOM     27  C   UNL     1      35.628 -23.067 -15.144  0.00  0.00    +0.031 C 
ATOM     28  C   UNL     1      34.883 -23.478 -14.018  0.00  0.00    +0.004 C 
ATOM     29  C   UNL     1      33.486 -23.582 -14.125  0.00  0.00    -0.000 C 
ATOM     30  C   UNL     1      37.013 -22.977 -15.000  0.00  0.00    +0.125 C 
ATOM     31  C   UNL     1      35.559 -23.771 -12.828  0.00  0.00    +0.021 C 
ATOM     32  C   UNL     1      36.939 -23.645 -12.805  0.00  0.00    +0.100 C 
ATOM     33  H   UNL     1      38.776 -22.500 -16.023  0.00  0.00    +0.144 HD
ATOM     34  H   UNL     1      37.363 -22.351 -16.966  0.00  0.00    +0.144 HD
ENDBRANCH  21  24
ENDBRANCH   2  21
TORSDOF 5
ENDMDL
MODEL 4
REMARK VINA RESULT:     -11.9      2.548      3.344
REMARK  Name = 445480
REMARK  5 active torsions:
REMARK  status: ('A' for Active; 'I' for Inactive)
REMARK    1  A    between atoms: N_2  and  C_21
REMARK    2  A    between atoms: C_3  and  N_7
REMARK    3  A    between atoms: N_7  and  S_9
REMARK    4  A    between atoms: S_9  and  C_14
REMARK    5  A    between atoms: C_21  and  C_24
REMARK                            x       y       z     vdW  Elec       q    Type
REMARK                         _______ _______ _______ _____ _____    ______ ____
ROOT
ATOM      1  O   UNL     1      37.141 -19.163 -19.939  0.00  0.00    -0.273 OA
ATOM      2  N   UNL     1      35.453 -18.716 -21.513  0.00  0.00    -0.274 N 
ATOM      3  C   UNL     1      35.227 -20.636 -20.212  0.00  0.00    +0.153 C 
ATOM      4  C   UNL     1      33.875 -20.263 -20.809  0.00  0.00    +0.048 C 
ATOM      5  C   UNL     1      34.237 -19.351 -21.966  0.00  0.00    +0.096 C 
ATOM      6  C   UNL     1      36.084 -19.426 -20.493  0.00  0.00    +0.242 C 
ENDROOT
BRANCH   3   7
ATOM      7  N   UNL     1      35.127 -20.837 -18.763  0.00  0.00    -0.171 NA
ATOM      8  H   UNL     1      35.933 -20.378 -18.336  0.00  0.00    +0.149 HD
BRANCH   7   9
ATOM      9  S   UNL     1      35.087 -22.446 -18.172  0.00  0.00    +0.066 S 
ATOM     10  O   UNL     1      36.162 -22.631 -17.215  0.00  0.00    -0.152 OA
ATOM     11  O   UNL     1      34.905 -23.356 -19.285  0.00  0.00    -0.152 OA
BRANCH   9  14
ATOM     12  S   UNL     1      33.816 -23.193 -15.652  0.00  0.00    -0.066 S 
ATOM     13  N   UNL     1      30.062 -22.550 -16.444  0.00  0.00    -0.243 NA
ATOM     14  C   UNL     1      33.573 -22.624 -17.228  0.00  0.00    +0.153 C 
ATOM     15  C   UNL     1      32.279 -22.388 -17.542  0.00  0.00    +0.046 C 
ATOM     16  C   UNL     1      31.417 -22.684 -16.443  0.00  0.00    +0.089 C 
ATOM     17  C   UNL     1      32.128 -23.138 -15.332  0.00  0.00    +0.048 C 
ATOM     18  C   UNL     1      31.447 -23.478 -14.154  0.00  0.00    +0.010 C 
ATOM     19  C   UNL     1      30.065 -23.345 -14.149  0.00  0.00    +0.021 C 
ATOM     20  C   UNL     1      29.441 -22.887 -15.295  0.00  0.00    +0.099 C 
ENDBRANCH   9  14
ENDBRANCH   7   9
ENDBRANCH   3   7
BRANCH   2  21
ATOM     21  C   UNL     1      35.982 -17.540 -22.169  0.00  0.00    +0.120 C 
BRANCH  21  24
ATOM     22  N   UNL     1      32.408 -12.617 -23.343  0.00  0.00    -0.230 NA
ATOM     23  N   UNL     1      33.346 -14.068 -24.944  0.00  0.00    -0.343 N 
ATOM     24  C   UNL     1      35.141 -16.335 -21.849  0.00  0.00    -0.002 C 
ATOM     25  C   UNL     1      34.563 -15.609 -22.882  0.00  0.00    +0.000 C 
ATOM     26  C   UNL     1      34.955 -15.963 -20.526  0.00  0.00    -0.003 C 
ATOM     27  C   UNL     1      33.778 -14.481 -22.591  0.00  0.00    +0.031 C 
ATOM     28  C   UNL     1      33.580 -14.091 -21.250  0.00  0.00    +0.004 C 
ATOM     29  C   UNL     1      34.177 -14.844 -20.225  0.00  0.00    -0.000 C 
ATOM     30  C   UNL     1      33.170 -13.708 -23.582  0.00  0.00    +0.125 C 
ATOM     31  C   UNL     1      32.795 -12.964 -20.981  0.00  0.00    +0.021 C 
ATOM     32  C   UNL     1      32.241 -12.275 -22.048  0.00  0.00    +0.100 C 
ATOM     33  H   UNL     1      32.923 -13.532 -25.653  0.00  0.00    +0.144 HD
ATOM     34  H   UNL     1      33.891 -14.853 -25.179  0.00  0.00    +0.144 HD
ENDBRANCH  21  24
ENDBRANCH   2  21
TORSDOF 5
ENDMDL
MODEL 5
REMARK VINA RESULT:     -11.8      2.498     10.717
REMARK  Name = 445480
REMARK  5 active torsions:
REMARK  status: ('A' for Active; 'I' for Inactive)
REMARK    1  A    between atoms: N_2  and  C_21
REMARK    2  A    between atoms: C_3  and  N_7
REMARK    3  A    between atoms: N_7  and  S_9
REMARK    4  A    between atoms: S_9  and  C_14
REMARK    5  A    between atoms: C_21  and  C_24
REMARK                            x       y       z     vdW  Elec       q    Type
REMARK                         _______ _______ _______ _____ _____    ______ ____
ROOT
ATOM      1  O   UNL     1      32.448 -20.370 -19.504  0.00  0.00    -0.273 OA
ATOM      2  N   UNL     1      33.981 -21.979 -18.735  0.00  0.00    -0.274 N 
ATOM      3  C   UNL     1      34.638 -20.636 -20.523  0.00  0.00    +0.153 C 
ATOM      4  C   UNL     1      35.868 -21.261 -19.876  0.00  0.00    +0.048 C 
ATOM      5  C   UNL     1      35.304 -22.434 -19.097  0.00  0.00    +0.096 C 
ATOM      6  C   UNL     1      33.532 -20.933 -19.541  0.00  0.00    +0.242 C 
ENDROOT
BRANCH   3   7
ATOM      7  N   UNL     1      34.793 -19.183 -20.658  0.00  0.00    -0.171 NA
ATOM      8  H   UNL     1      33.857 -18.784 -20.737  0.00  0.00    +0.149 HD
BRANCH   7   9
ATOM      9  S   UNL     1      35.711 -18.589 -21.978  0.00  0.00    +0.066 S 
ATOM     10  O   UNL     1      35.421 -19.381 -23.158  0.00  0.00    -0.152 OA
ATOM     11  O   UNL     1      37.075 -18.359 -21.542  0.00  0.00    -0.152 OA
BRANCH   9  14
ATOM     12  S   UNL     1      34.630 -16.738 -23.960  0.00  0.00    -0.066 S 
ATOM     13  N   UNL     1      34.153 -13.510 -21.842  0.00  0.00    -0.243 NA
ATOM     14  C   UNL     1      35.102 -16.943 -22.346  0.00  0.00    +0.153 C 
ATOM     15  C   UNL     1      34.951 -15.842 -21.577  0.00  0.00    +0.046 C 
ATOM     16  C   UNL     1      34.419 -14.752 -22.330  0.00  0.00    +0.089 C 
ATOM     17  C   UNL     1      34.193 -15.102 -23.662  0.00  0.00    +0.048 C 
ATOM     18  C   UNL     1      33.670 -14.157 -24.557  0.00  0.00    +0.010 C 
ATOM     19  C   UNL     1      33.397 -12.888 -24.065  0.00  0.00    +0.021 C 
ATOM     20  C   UNL     1      33.652 -12.628 -22.730  0.00  0.00    +0.099 C 
ENDBRANCH   9  14
ENDBRANCH   7   9
ENDBRANCH   3   7
BRANCH   2  21
ATOM     21  C   UNL     1      33.199 -22.655 -17.723  0.00  0.00    +0.120 C 
BRANCH  21  24
ATOM     22  N   UNL     1      34.430 -24.662 -11.993  0.00  0.00    -0.230 NA
ATOM     23  N   UNL     1      32.421 -24.986 -13.178  0.00  0.00    -0.343 N 
ATOM     24  C   UNL     1      34.014 -22.863 -16.478  0.00  0.00    -0.002 C 
ATOM     25  C   UNL     1      33.469 -23.562 -15.410  0.00  0.00    +0.000 C 
ATOM     26  C   UNL     1      35.302 -22.351 -16.410  0.00  0.00    -0.003 C 
ATOM     27  C   UNL     1      34.224 -23.759 -14.242  0.00  0.00    +0.031 C 
ATOM     28  C   UNL     1      35.535 -23.243 -14.160  0.00  0.00    +0.004 C 
ATOM     29  C   UNL     1      36.062 -22.539 -15.255  0.00  0.00    -0.000 C 
ATOM     30  C   UNL     1      33.735 -24.452 -13.134  0.00  0.00    +0.125 C 
ATOM     31  C   UNL     1      36.271 -23.450 -12.988  0.00  0.00    +0.021 C 
ATOM     32  C   UNL     1      35.680 -24.155 -11.951  0.00  0.00    +0.100 C 
ATOM     33  H   UNL     1      32.062 -25.477 -12.403  0.00  0.00    +0.144 HD
ATOM     34  H   UNL     1      31.867 -24.865 -13.983  0.00  0.00    +0.144 HD
ENDBRANCH  21  24
ENDBRANCH   2  21
TORSDOF 5
ENDMDL
MODEL 6
REMARK VINA RESULT:     -11.8      2.943     10.428
REMARK  Name = 445480
REMARK  5 active torsions:
REMARK  status: ('A' for Active; 'I' for Inactive)
REMARK    1  A    between atoms: N_2  and  C_21
REMARK    2  A    between atoms: C_3  and  N_7
REMARK    3  A    between atoms: N_7  and  S_9
REMARK    4  A    between atoms: S_9  and  C_14
REMARK    5  A    between atoms: C_21  and  C_24
REMARK                            x       y       z     vdW  Elec       q    Type
REMARK                         _______ _______ _______ _____ _____    ______ ____
ROOT
ATOM      1  O   UNL     1      36.305 -21.652 -19.797  0.00  0.00    -0.273 OA
ATOM      2  N   UNL     1      34.107 -22.089 -19.084  0.00  0.00    -0.274 N 
ATOM      3  C   UNL     1      34.510 -20.048 -20.134  0.00  0.00    +0.153 C 
ATOM      4  C   UNL     1      33.018 -20.353 -20.170  0.00  0.00    +0.048 C 
ATOM      5  C   UNL     1      32.841 -21.394 -19.080  0.00  0.00    +0.096 C 
ATOM      6  C   UNL     1      35.127 -21.348 -19.681  0.00  0.00    +0.242 C 
ENDROOT
BRANCH   3   7
ATOM      7  N   UNL     1      35.013 -19.710 -21.470  0.00  0.00    -0.171 NA
ATOM      8  H   UNL     1      35.515 -20.526 -21.821  0.00  0.00    +0.149 HD
BRANCH   7   9
ATOM      9  S   UNL     1      36.062 -18.363 -21.621  0.00  0.00    +0.066 S 
ATOM     10  O   UNL     1      37.240 -18.756 -22.372  0.00  0.00    -0.152 OA
ATOM     11  O   UNL     1      36.174 -17.702 -20.336  0.00  0.00    -0.152 OA
BRANCH   9  14
ATOM     12  S   UNL     1      34.973 -15.666 -21.876  0.00  0.00    -0.066 S 
ATOM     13  N   UNL     1      33.593 -15.716 -25.513  0.00  0.00    -0.243 NA
ATOM     14  C   UNL     1      35.224 -17.154 -22.646  0.00  0.00    +0.153 C 
ATOM     15  C   UNL     1      34.757 -17.210 -23.914  0.00  0.00    +0.046 C 
ATOM     16  C   UNL     1      34.155 -15.975 -24.300  0.00  0.00    +0.089 C 
ATOM     17  C   UNL     1      34.201 -15.030 -23.275  0.00  0.00    +0.048 C 
ATOM     18  C   UNL     1      33.657 -13.753 -23.472  0.00  0.00    +0.010 C 
ATOM     19  C   UNL     1      33.082 -13.483 -24.706  0.00  0.00    +0.021 C 
ATOM     20  C   UNL     1      33.079 -14.479 -25.666  0.00  0.00    +0.099 C 
ENDBRANCH   9  14
ENDBRANCH   7   9
ENDBRANCH   3   7
BRANCH   2  21
ATOM     21  C   UNL     1      34.275 -23.361 -18.415  0.00  0.00    +0.120 C 
BRANCH  21  24
ATOM     22  N   UNL     1      29.813 -22.990 -14.133  0.00  0.00    -0.230 NA
ATOM     23  N   UNL     1      29.504 -22.977 -16.467  0.00  0.00    -0.343 N 
ATOM     24  C   UNL     1      33.688 -23.310 -17.032  0.00  0.00    -0.002 C 
ATOM     25  C   UNL     1      32.313 -23.201 -16.874  0.00  0.00    +0.000 C 
ATOM     26  C   UNL     1      34.529 -23.371 -15.930  0.00  0.00    -0.003 C 
ATOM     27  C   UNL     1      31.758 -23.151 -15.584  0.00  0.00    +0.031 C 
ATOM     28  C   UNL     1      32.602 -23.212 -14.455  0.00  0.00    +0.004 C 
ATOM     29  C   UNL     1      33.990 -23.322 -14.644  0.00  0.00    -0.000 C 
ATOM     30  C   UNL     1      30.386 -23.041 -15.357  0.00  0.00    +0.125 C 
ATOM     31  C   UNL     1      32.030 -23.161 -13.179  0.00  0.00    +0.021 C 
ATOM     32  C   UNL     1      30.652 -23.052 -13.076  0.00  0.00    +0.100 C 
ATOM     33  H   UNL     1      28.534 -22.899 -16.321  0.00  0.00    +0.144 HD
ATOM     34  H   UNL     1      29.864 -23.010 -17.383  0.00  0.00    +0.144 HD
ENDBRANCH  21  24
ENDBRANCH   2  21
TORSDOF 5
ENDMDL
MODEL 7
REMARK VINA RESULT:     -11.6      4.934     11.418
REMARK  Name = 445480
REMARK  5 active torsions:
REMARK  status: ('A' for Active; 'I' for Inactive)
REMARK    1  A    between atoms: N_2  and  C_21
REMARK    2  A    between atoms: C_3  and  N_7
REMARK    3  A    between atoms: N_7  and  S_9
REMARK    4  A    between atoms: S_9  and  C_14
REMARK    5  A    between atoms: C_21  and  C_24
REMARK                            x       y       z     vdW  Elec       q    Type
REMARK                         _______ _______ _______ _____ _____    ______ ____
ROOT
ATOM      1  O   UNL     1      35.105 -15.876 -20.593  0.00  0.00    -0.273 OA
ATOM      2  N   UNL     1      35.620 -17.507 -22.207  0.00  0.00    -0.274 N 
ATOM      3  C   UNL     1      34.191 -15.780 -22.843  0.00  0.00    +0.153 C 
ATOM      4  C   UNL     1      34.770 -16.445 -24.085  0.00  0.00    +0.048 C 
ATOM      5  C   UNL     1      35.256 -17.789 -23.576  0.00  0.00    +0.096 C 
ATOM      6  C   UNL     1      35.021 -16.347 -21.718  0.00  0.00    +0.242 C 
ENDROOT
BRANCH   3   7
ATOM      7  N   UNL     1      34.366 -14.324 -22.892  0.00  0.00    -0.171 NA
ATOM      8  H   UNL     1      34.526 -14.005 -21.936  0.00  0.00    +0.149 HD
BRANCH   7   9
ATOM      9  S   UNL     1      33.090 -13.379 -23.537  0.00  0.00    +0.066 S 
ATOM     10  O   UNL     1      31.920 -13.512 -22.689  0.00  0.00    -0.152 OA
ATOM     11  O   UNL     1      33.012 -13.600 -24.968  0.00  0.00    -0.152 OA
BRANCH   9  14
ATOM     12  S   UNL     1      32.394 -10.661 -22.731  0.00  0.00    -0.066 S 
ATOM     13  N   UNL     1      35.635  -8.714 -23.650  0.00  0.00    -0.243 NA
ATOM     14  C   UNL     1      33.585 -11.661 -23.402  0.00  0.00    +0.153 C 
ATOM     15  C   UNL     1      34.728 -11.020 -23.735  0.00  0.00    +0.046 C 
ATOM     16  C   UNL     1      34.648  -9.627 -23.432  0.00  0.00    +0.089 C 
ATOM     17  C   UNL     1      33.416  -9.286 -22.873  0.00  0.00    +0.048 C 
ATOM     18  C   UNL     1      33.155  -7.957 -22.509  0.00  0.00    +0.010 C 
ATOM     19  C   UNL     1      34.157  -7.021 -22.729  0.00  0.00    +0.021 C 
ATOM     20  C   UNL     1      35.348  -7.447 -23.289  0.00  0.00    +0.099 C 
ENDBRANCH   9  14
ENDBRANCH   7   9
ENDBRANCH   3   7
BRANCH   2  21
ATOM     21  C   UNL     1      36.422 -18.429 -21.432  0.00  0.00    +0.120 C 
BRANCH  21  24
ATOM     22  N   UNL     1      35.001 -22.847 -17.328  0.00  0.00    -0.230 NA
ATOM     23  N   UNL     1      37.119 -21.867 -17.637  0.00  0.00    -0.343 N 
ATOM     24  C   UNL     1      35.543 -19.409 -20.706  0.00  0.00    -0.002 C 
ATOM     25  C   UNL     1      36.084 -20.203 -19.704  0.00  0.00    +0.000 C 
ATOM     26  C   UNL     1      34.203 -19.510 -21.048  0.00  0.00    -0.003 C 
ATOM     27  C   UNL     1      35.270 -21.123 -19.022  0.00  0.00    +0.031 C 
ATOM     28  C   UNL     1      33.905 -21.236 -19.360  0.00  0.00    +0.004 C 
ATOM     29  C   UNL     1      33.384 -20.420 -20.378  0.00  0.00    -0.000 C 
ATOM     30  C   UNL     1      35.752 -21.950 -18.006  0.00  0.00    +0.125 C 
ATOM     31  C   UNL     1      33.110 -22.158 -18.670  0.00  0.00    +0.021 C 
ATOM     32  C   UNL     1      33.700 -22.926 -17.678  0.00  0.00    +0.100 C 
ATOM     33  H   UNL     1      37.473 -22.444 -16.923  0.00  0.00    +0.144 HD
ATOM     34  H   UNL     1      37.715 -21.231 -18.097  0.00  0.00    +0.144 HD
ENDBRANCH  21  24
ENDBRANCH   2  21
TORSDOF 5
ENDMDL
MODEL 8
REMARK VINA RESULT:     -11.4      2.541     10.607
REMARK  Name = 445480
REMARK  5 active torsions:
REMARK  status: ('A' for Active; 'I' for Inactive)
REMARK    1  A    between atoms: N_2  and  C_21
REMARK    2  A    between atoms: C_3  and  N_7
REMARK    3  A    between atoms: N_7  and  S_9
REMARK    4  A    between atoms: S_9  and  C_14
REMARK    5  A    between atoms: C_21  and  C_24
REMARK                            x       y       z     vdW  Elec       q    Type
REMARK                         _______ _______ _______ _____ _____    ______ ____
ROOT
ATOM      1  O   UNL     1      36.014 -21.995 -19.764  0.00  0.00    -0.273 OA
ATOM      2  N   UNL     1      33.820 -22.085 -18.924  0.00  0.00    -0.274 N 
ATOM      3  C   UNL     1      34.473 -20.132 -20.013  0.00  0.00    +0.153 C 
ATOM      4  C   UNL     1      32.952 -20.202 -19.962  0.00  0.00    +0.048 C 
ATOM      5  C   UNL     1      32.679 -21.202 -18.854  0.00  0.00    +0.096 C 
ATOM      6  C   UNL     1      34.906 -21.512 -19.584  0.00  0.00    +0.242 C 
ENDROOT
BRANCH   3   7
ATOM      7  N   UNL     1      34.945 -19.876 -21.379  0.00  0.00    -0.171 NA
ATOM      8  H   UNL     1      35.387 -20.733 -21.713  0.00  0.00    +0.149 HD
BRANCH   7   9
ATOM      9  S   UNL     1      36.062 -18.599 -21.622  0.00  0.00    +0.066 S 
ATOM     10  O   UNL     1      37.166 -19.077 -22.432  0.00  0.00    -0.152 OA
ATOM     11  O   UNL     1      36.291 -17.922 -20.360  0.00  0.00    -0.152 OA
BRANCH   9  14
ATOM     12  S   UNL     1      35.029 -15.876 -21.832  0.00  0.00    -0.066 S 
ATOM     13  N   UNL     1      33.602 -15.855 -25.451  0.00  0.00    -0.243 NA
ATOM     14  C   UNL     1      35.237 -17.360 -22.622  0.00  0.00    +0.153 C 
ATOM     15  C   UNL     1      34.753 -17.392 -23.884  0.00  0.00    +0.046 C 
ATOM     16  C   UNL     1      34.173 -16.140 -24.249  0.00  0.00    +0.089 C 
ATOM     17  C   UNL     1      34.254 -15.208 -23.213  0.00  0.00    +0.048 C 
ATOM     18  C   UNL     1      33.735 -13.917 -23.389  0.00  0.00    +0.010 C 
ATOM     19  C   UNL     1      33.151 -13.620 -24.613  0.00  0.00    +0.021 C 
ATOM     20  C   UNL     1      33.114 -14.605 -25.584  0.00  0.00    +0.099 C 
ENDBRANCH   9  14
ENDBRANCH   7   9
ENDBRANCH   3   7
BRANCH   2  21
ATOM     21  C   UNL     1      33.826 -23.367 -18.254  0.00  0.00    +0.120 C 
BRANCH  21  24
ATOM     22  N   UNL     1      34.521 -24.288 -12.167  0.00  0.00    -0.230 NA
ATOM     23  N   UNL     1      32.766 -25.107 -13.505  0.00  0.00    -0.343 N 
ATOM     24  C   UNL     1      34.481 -23.254 -16.905  0.00  0.00    -0.002 C 
ATOM     25  C   UNL     1      33.898 -23.871 -15.806  0.00  0.00    +0.000 C 
ATOM     26  C   UNL     1      35.658 -22.532 -16.775  0.00  0.00    -0.003 C 
ATOM     27  C   UNL     1      34.503 -23.768 -14.543  0.00  0.00    +0.031 C 
ATOM     28  C   UNL     1      35.701 -23.037 -14.397  0.00  0.00    +0.004 C 
ATOM     29  C   UNL     1      36.269 -22.422 -15.525  0.00  0.00    -0.000 C 
ATOM     30  C   UNL     1      33.970 -24.364 -13.399  0.00  0.00    +0.125 C 
ATOM     31  C   UNL     1      36.289 -22.946 -13.129  0.00  0.00    +0.021 C 
ATOM     32  C   UNL     1      35.667 -23.580 -12.065  0.00  0.00    +0.100 C 
ATOM     33  H   UNL     1      32.378 -25.533 -12.706  0.00  0.00    +0.144 HD
ATOM     34  H   UNL     1      32.319 -25.197 -14.377  0.00  0.00    +0.144 HD
ENDBRANCH  21  24
ENDBRANCH   2  21
TORSDOF 5
ENDMDL
MODEL 9
REMARK VINA RESULT:     -11.4      1.320      1.603
REMARK  Name = 445480
REMARK  5 active torsions:
REMARK  status: ('A' for Active; 'I' for Inactive)
REMARK    1  A    between atoms: N_2  and  C_21
REMARK    2  A    between atoms: C_3  and  N_7
REMARK    3  A    between atoms: N_7  and  S_9
REMARK    4  A    between atoms: S_9  and  C_14
REMARK    5  A    between atoms: C_21  and  C_24
REMARK                            x       y       z     vdW  Elec       q    Type
REMARK                         _______ _______ _______ _____ _____    ______ ____
ROOT
ATOM      1  O   UNL     1      35.806 -21.872 -18.353  0.00  0.00    -0.273 OA
ATOM      2  N   UNL     1      34.817 -20.460 -19.954  0.00  0.00    -0.274 N 
ATOM      3  C   UNL     1      33.412 -21.894 -18.771  0.00  0.00    +0.153 C 
ATOM      4  C   UNL     1      32.589 -20.770 -19.389  0.00  0.00    +0.048 C 
ATOM      5  C   UNL     1      33.492 -20.227 -20.480  0.00  0.00    +0.096 C 
ATOM      6  C   UNL     1      34.837 -21.433 -18.955  0.00  0.00    +0.242 C 
ENDROOT
BRANCH   3   7
ATOM      7  N   UNL     1      33.126 -22.033 -17.339  0.00  0.00    -0.171 NA
ATOM      8  H   UNL     1      33.819 -21.478 -16.835  0.00  0.00    +0.149 HD
BRANCH   7   9
ATOM      9  S   UNL     1      33.144 -23.607 -16.660  0.00  0.00    +0.066 S 
ATOM     10  O   UNL     1      33.729 -24.532 -17.613  0.00  0.00    -0.152 OA
ATOM     11  O   UNL     1      31.858 -23.873 -16.044  0.00  0.00    -0.152 OA
BRANCH   9  14
ATOM     12  S   UNL     1      33.604 -24.145 -13.828  0.00  0.00    -0.066 S 
ATOM     13  N   UNL     1      37.306 -23.024 -13.407  0.00  0.00    -0.243 NA
ATOM     14  C   UNL     1      34.278 -23.570 -15.272  0.00  0.00    +0.153 C 
ATOM     15  C   UNL     1      35.565 -23.171 -15.166  0.00  0.00    +0.046 C 
ATOM     16  C   UNL     1      36.051 -23.335 -13.834  0.00  0.00    +0.089 C 
ATOM     17  C   UNL     1      35.076 -23.863 -12.986  0.00  0.00    +0.048 C 
ATOM     18  C   UNL     1      35.373 -24.095 -11.635  0.00  0.00    +0.010 C 
ATOM     19  C   UNL     1      36.651 -23.779 -11.194  0.00  0.00    +0.021 C 
ATOM     20  C   UNL     1      37.554 -23.259 -12.103  0.00  0.00    +0.099 C 
ENDBRANCH   9  14
ENDBRANCH   7   9
ENDBRANCH   3   7
BRANCH   2  21
ATOM     21  C   UNL     1      35.982 -19.820 -20.525  0.00  0.00    +0.120 C 
BRANCH  21  24
ATOM     22  N   UNL     1      34.278 -14.130 -22.285  0.00  0.00    -0.230 NA
ATOM     23  N   UNL     1      34.761 -14.818 -20.086  0.00  0.00    -0.343 N 
ATOM     24  C   UNL     1      35.572 -18.734 -21.480  0.00  0.00    -0.002 C 
ATOM     25  C   UNL     1      35.312 -17.459 -20.998  0.00  0.00    +0.000 C 
ATOM     26  C   UNL     1      35.457 -19.022 -22.832  0.00  0.00    -0.003 C 
ATOM     27  C   UNL     1      34.927 -16.440 -21.884  0.00  0.00    +0.031 C 
ATOM     28  C   UNL     1      34.806 -16.718 -23.262  0.00  0.00    +0.004 C 
ATOM     29  C   UNL     1      35.075 -18.018 -23.723  0.00  0.00    -0.000 C 
ATOM     30  C   UNL     1      34.651 -15.138 -21.464  0.00  0.00    +0.125 C 
ATOM     31  C   UNL     1      34.420 -15.689 -24.129  0.00  0.00    +0.021 C 
ATOM     32  C   UNL     1      34.173 -14.434 -23.596  0.00  0.00    +0.100 C 
ATOM     33  H   UNL     1      34.569 -13.904 -19.775  0.00  0.00    +0.144 HD
ATOM     34  H   UNL     1      35.030 -15.512 -19.440  0.00  0.00    +0.144 HD
ENDBRANCH  21  24
ENDBRANCH   2  21
TORSDOF 5
ENDMDL
