MODEL 1
REMARK VINA RESULT:     -11.4      0.000      0.000
REMARK  Name = 446752
REMARK  3 active torsions:
REMARK  status: ('A' for Active; 'I' for Inactive)
REMARK    1  A    between atoms: C_6  and  C_18
REMARK    2  A    between atoms: C_18  and  N_19
REMARK    3  A    between atoms: N_19  and  C_22
REMARK                            x       y       z     vdW  Elec       q    Type
REMARK                         _______ _______ _______ _____ _____    ______ ____
ROOT
ATOM      1  N   UNL     1      32.873 -20.672 -20.200  0.00  0.00    -0.182 NA
ATOM      2  N   UNL     1      32.722 -22.127 -18.406  0.00  0.00    -0.273 NA
ATOM      3  N   UNL     1      34.669 -22.788 -17.154  0.00  0.00    -0.312 NA
ATOM      4  N   UNL     1      36.780 -21.989 -17.705  0.00  0.00    -0.332 N 
ATOM      5  N   UNL     1      32.548 -23.603 -16.589  0.00  0.00    -0.283 N 
ATOM      6  C   UNL     1      34.995 -19.769 -20.880  0.00  0.00    +0.010 C 
ATOM      7  C   UNL     1      35.619 -20.466 -19.871  0.00  0.00    -0.009 C 
ATOM      8  C   UNL     1      34.848 -21.272 -19.022  0.00  0.00    +0.115 C 
ATOM      9  C   UNL     1      33.464 -21.358 -19.212  0.00  0.00    +0.104 C 
ATOM     10  C   UNL     1      33.635 -19.899 -21.011  0.00  0.00    +0.107 C 
ATOM     11  C   UNL     1      37.104 -20.305 -19.752  0.00  0.00    +0.032 C 
ATOM     12  C   UNL     1      35.395 -22.011 -17.975  0.00  0.00    +0.201 C 
ATOM     13  C   UNL     1      33.357 -22.800 -17.422  0.00  0.00    +0.206 C 
ATOM     14  H   UNL     1      37.144 -22.520 -16.960  0.00  0.00    +0.145 HD
ATOM     15  H   UNL     1      37.382 -21.445 -18.263  0.00  0.00    +0.145 HD
ATOM     16  H   UNL     1      31.576 -23.648 -16.740  0.00  0.00    +0.156 HD
ATOM     17  H   UNL     1      32.957 -24.116 -15.855  0.00  0.00    +0.156 HD
ENDROOT
BRANCH   6  18
ATOM     18  C   UNL     1      35.749 -18.883 -21.834  0.00  0.00    +0.097 C 
BRANCH  18  19
ATOM     19  N   UNL     1      35.535 -17.509 -21.515  0.00  0.00    -0.288 NA
ATOM     20  H   UNL     1      35.816 -17.180 -20.629  0.00  0.00    +0.124 HD
BRANCH  19  22
ATOM     21  N   UNL     1      33.161 -13.372 -22.508  0.00  0.00    -0.248 NA
ATOM     22  C   UNL     1      34.936 -16.598 -22.418  0.00  0.00    +0.101 C 
ATOM     23  C   UNL     1      34.335 -15.408 -21.975  0.00  0.00    +0.010 C 
ATOM     24  C   UNL     1      33.746 -14.520 -22.899  0.00  0.00    +0.061 C 
ATOM     25  C   UNL     1      34.959 -16.914 -23.773  0.00  0.00    -0.010 C 
ATOM     26  C   UNL     1      34.299 -15.065 -20.616  0.00  0.00    +0.000 C 
ATOM     27  C   UNL     1      33.781 -14.861 -24.248  0.00  0.00    +0.071 C 
ATOM     28  C   UNL     1      34.380 -16.044 -24.689  0.00  0.00    -0.023 C 
ATOM     29  C   UNL     1      33.697 -13.884 -20.210  0.00  0.00    +0.020 C 
ATOM     30  C   UNL     1      33.148 -13.078 -21.187  0.00  0.00    +0.098 C 
ENDBRANCH  19  22
ENDBRANCH  18  19
ENDBRANCH   6  18
TORSDOF 3
ENDMDL
MODEL 2
REMARK VINA RESULT:     -11.4      1.091      2.942
REMARK  Name = 446752
REMARK  3 active torsions:
REMARK  status: ('A' for Active; 'I' for Inactive)
REMARK    1  A    between atoms: C_6  and  C_18
REMARK    2  A    between atoms: C_18  and  N_19
REMARK    3  A    between atoms: N_19  and  C_22
REMARK                            x       y       z     vdW  Elec       q    Type
REMARK                         _______ _______ _______ _____ _____    ______ ____
ROOT
ATOM      1  N   UNL     1      37.129 -20.080 -19.431  0.00  0.00    -0.182 NA
ATOM      2  N   UNL     1      36.814 -21.546 -17.667  0.00  0.00    -0.273 NA
ATOM      3  N   UNL     1      34.685 -22.599 -17.270  0.00  0.00    -0.312 NA
ATOM      4  N   UNL     1      32.862 -22.180 -18.648  0.00  0.00    -0.332 N 
ATOM      5  N   UNL     1      36.514 -23.030 -15.873  0.00  0.00    -0.283 N 
ATOM      6  C   UNL     1      35.329 -19.556 -20.935  0.00  0.00    +0.010 C 
ATOM      7  C   UNL     1      34.492 -20.390 -20.231  0.00  0.00    -0.009 C 
ATOM      8  C   UNL     1      34.994 -21.074 -19.114  0.00  0.00    +0.115 C 
ATOM      9  C   UNL     1      36.329 -20.898 -18.733  0.00  0.00    +0.104 C 
ATOM     10  C   UNL     1      36.626 -19.428 -20.507  0.00  0.00    +0.107 C 
ATOM     11  C   UNL     1      33.081 -20.510 -20.721  0.00  0.00    +0.032 C 
ATOM     12  C   UNL     1      34.219 -21.938 -18.343  0.00  0.00    +0.201 C 
ATOM     13  C   UNL     1      35.974 -22.360 -16.993  0.00  0.00    +0.206 C 
ATOM     14  H   UNL     1      32.334 -22.795 -18.089  0.00  0.00    +0.145 HD
ATOM     15  H   UNL     1      32.444 -21.732 -19.419  0.00  0.00    +0.145 HD
ATOM     16  H   UNL     1      37.456 -22.891 -15.623  0.00  0.00    +0.156 HD
ATOM     17  H   UNL     1      35.948 -23.636 -15.343  0.00  0.00    +0.156 HD
ENDROOT
BRANCH   6  18
ATOM     18  C   UNL     1      34.869 -18.787 -22.144  0.00  0.00    +0.097 C 
BRANCH  18  19
ATOM     19  N   UNL     1      35.575 -17.552 -22.248  0.00  0.00    -0.288 NA
ATOM     20  H   UNL     1      36.519 -17.570 -22.533  0.00  0.00    +0.124 HD
BRANCH  19  22
ATOM     21  N   UNL     1      33.176 -13.524 -23.574  0.00  0.00    -0.248 NA
ATOM     22  C   UNL     1      34.978 -16.301 -21.960  0.00  0.00    +0.101 C 
ATOM     23  C   UNL     1      34.361 -15.530 -22.959  0.00  0.00    +0.010 C 
ATOM     24  C   UNL     1      33.774 -14.288 -22.641  0.00  0.00    +0.061 C 
ATOM     25  C   UNL     1      35.016 -15.848 -20.644  0.00  0.00    -0.010 C 
ATOM     26  C   UNL     1      34.308 -15.962 -24.291  0.00  0.00    +0.000 C 
ATOM     27  C   UNL     1      33.828 -13.858 -21.318  0.00  0.00    +0.071 C 
ATOM     28  C   UNL     1      34.440 -14.625 -20.323  0.00  0.00    -0.023 C 
ATOM     29  C   UNL     1      33.692 -15.178 -25.255  0.00  0.00    +0.020 C 
ATOM     30  C   UNL     1      33.146 -13.978 -24.849  0.00  0.00    +0.098 C 
ENDBRANCH  19  22
ENDBRANCH  18  19
ENDBRANCH   6  18
TORSDOF 3
ENDMDL
MODEL 3
REMARK VINA RESULT:     -11.2      1.186      2.395
REMARK  Name = 446752
REMARK  3 active torsions:
REMARK  status: ('A' for Active; 'I' for Inactive)
REMARK    1  A    between atoms: C_6  and  C_18
REMARK    2  A    between atoms: C_18  and  N_19
REMARK    3  A    between atoms: N_19  and  C_22
REMARK                            x       y       z     vdW  Elec       q    Type
REMARK                         _______ _______ _______ _____ _____    ______ ____
ROOT
ATOM      1  N   UNL     1      36.814 -21.375 -18.360  0.00  0.00    -0.182 NA
ATOM      2  N   UNL     1      36.208 -22.656 -16.529  0.00  0.00    -0.273 NA
ATOM      3  N   UNL     1      33.922 -23.308 -16.150  0.00  0.00    -0.312 NA
ATOM      4  N   UNL     1      32.233 -22.673 -17.613  0.00  0.00    -0.332 N 
ATOM      5  N   UNL     1      35.614 -23.954 -14.666  0.00  0.00    -0.283 N 
ATOM      6  C   UNL     1      35.168 -20.649 -19.955  0.00  0.00    +0.010 C 
ATOM      7  C   UNL     1      34.184 -21.285 -19.235  0.00  0.00    -0.009 C 
ATOM      8  C   UNL     1      34.533 -21.973 -18.064  0.00  0.00    +0.115 C 
ATOM      9  C   UNL     1      35.868 -22.002 -17.646  0.00  0.00    +0.104 C 
ATOM     10  C   UNL     1      36.457 -20.715 -19.489  0.00  0.00    +0.107 C 
ATOM     11  C   UNL     1      32.786 -21.194 -19.767  0.00  0.00    +0.032 C 
ATOM     12  C   UNL     1      33.603 -22.645 -17.274  0.00  0.00    +0.201 C 
ATOM     13  C   UNL     1      35.225 -23.273 -15.840  0.00  0.00    +0.206 C 
ATOM     14  H   UNL     1      31.594 -23.154 -17.039  0.00  0.00    +0.145 HD
ATOM     15  H   UNL     1      31.917 -22.209 -18.422  0.00  0.00    +0.145 HD
ATOM     16  H   UNL     1      36.559 -23.962 -14.391  0.00  0.00    +0.156 HD
ATOM     17  H   UNL     1      34.939 -24.422 -14.123  0.00  0.00    +0.156 HD
ENDROOT
BRANCH   6  18
ATOM     18  C   UNL     1      34.877 -19.889 -21.220  0.00  0.00    +0.097 C 
BRANCH  18  19
ATOM     19  N   UNL     1      35.198 -18.508 -21.058  0.00  0.00    -0.288 NA
ATOM     20  H   UNL     1      35.570 -18.207 -20.197  0.00  0.00    +0.124 HD
BRANCH  19  22
ATOM     21  N   UNL     1      34.404 -13.954 -22.600  0.00  0.00    -0.248 NA
ATOM     22  C   UNL     1      35.004 -17.551 -22.084  0.00  0.00    +0.101 C 
ATOM     23  C   UNL     1      34.797 -16.192 -21.797  0.00  0.00    +0.010 C 
ATOM     24  C   UNL     1      34.606 -15.263 -22.840  0.00  0.00    +0.061 C 
ATOM     25  C   UNL     1      35.024 -17.997 -23.403  0.00  0.00    -0.010 C 
ATOM     26  C   UNL     1      34.771 -15.716 -20.478  0.00  0.00    +0.000 C 
ATOM     27  C   UNL     1      34.630 -15.736 -24.150  0.00  0.00    +0.071 C 
ATOM     28  C   UNL     1      34.837 -17.088 -24.437  0.00  0.00    -0.023 C 
ATOM     29  C   UNL     1      34.564 -14.369 -20.226  0.00  0.00    +0.020 C 
ATOM     30  C   UNL     1      34.388 -13.536 -21.313  0.00  0.00    +0.098 C 
ENDBRANCH  19  22
ENDBRANCH  18  19
ENDBRANCH   6  18
TORSDOF 3
ENDMDL
MODEL 4
REMARK VINA RESULT:     -11.2      0.583      2.099
REMARK  Name = 446752
REMARK  3 active torsions:
REMARK  status: ('A' for Active; 'I' for Inactive)
REMARK    1  A    between atoms: C_6  and  C_18
REMARK    2  A    between atoms: C_18  and  N_19
REMARK    3  A    between atoms: N_19  and  C_22
REMARK                            x       y       z     vdW  Elec       q    Type
REMARK                         _______ _______ _______ _____ _____    ______ ____
ROOT
ATOM      1  N   UNL     1      32.649 -20.675 -20.035  0.00  0.00    -0.182 NA
ATOM      2  N   UNL     1      32.669 -22.205 -18.298  0.00  0.00    -0.273 NA
ATOM      3  N   UNL     1      34.718 -22.848 -17.210  0.00  0.00    -0.312 NA
ATOM      4  N   UNL     1      36.759 -21.955 -17.869  0.00  0.00    -0.332 N 
ATOM      5  N   UNL     1      32.669 -23.758 -16.538  0.00  0.00    -0.283 N 
ATOM      6  C   UNL     1      34.688 -19.672 -20.818  0.00  0.00    +0.010 C 
ATOM      7  C   UNL     1      35.402 -20.386 -19.884  0.00  0.00    -0.009 C 
ATOM      8  C   UNL     1      34.718 -21.253 -19.020  0.00  0.00    +0.115 C 
ATOM      9  C   UNL     1      33.328 -21.379 -19.119  0.00  0.00    +0.104 C 
ATOM     10  C   UNL     1      33.328 -19.843 -20.862  0.00  0.00    +0.107 C 
ATOM     11  C   UNL     1      36.886 -20.179 -19.860  0.00  0.00    +0.032 C 
ATOM     12  C   UNL     1      35.360 -22.013 -18.045  0.00  0.00    +0.201 C 
ATOM     13  C   UNL     1      33.391 -22.894 -17.389  0.00  0.00    +0.206 C 
ATOM     14  H   UNL     1      37.191 -22.502 -17.173  0.00  0.00    +0.145 HD
ATOM     15  H   UNL     1      37.303 -21.367 -18.442  0.00  0.00    +0.145 HD
ATOM     16  H   UNL     1      31.691 -23.831 -16.625  0.00  0.00    +0.156 HD
ATOM     17  H   UNL     1      33.143 -24.287 -15.856  0.00  0.00    +0.156 HD
ENDROOT
BRANCH   6  18
ATOM     18  C   UNL     1      35.346 -18.722 -21.782  0.00  0.00    +0.097 C 
BRANCH  18  19
ATOM     19  N   UNL     1      35.712 -17.512 -21.120  0.00  0.00    -0.288 NA
ATOM     20  H   UNL     1      36.492 -17.521 -20.518  0.00  0.00    +0.124 HD
BRANCH  19  22
ATOM     21  N   UNL     1      33.403 -14.237 -23.891  0.00  0.00    -0.248 NA
ATOM     22  C   UNL     1      35.002 -16.300 -21.292  0.00  0.00    +0.101 C 
ATOM     23  C   UNL     1      34.552 -15.881 -22.555  0.00  0.00    +0.010 C 
ATOM     24  C   UNL     1      33.847 -14.668 -22.695  0.00  0.00    +0.061 C 
ATOM     25  C   UNL     1      34.756 -15.523 -20.164  0.00  0.00    -0.010 C 
ATOM     26  C   UNL     1      34.786 -16.644 -23.708  0.00  0.00    +0.000 C 
ATOM     27  C   UNL     1      33.616 -13.910 -21.551  0.00  0.00    +0.071 C 
ATOM     28  C   UNL     1      34.062 -14.326 -20.294  0.00  0.00    -0.023 C 
ATOM     29  C   UNL     1      34.330 -16.204 -24.941  0.00  0.00    +0.020 C 
ATOM     30  C   UNL     1      33.649 -15.004 -24.979  0.00  0.00    +0.098 C 
ENDBRANCH  19  22
ENDBRANCH  18  19
ENDBRANCH   6  18
TORSDOF 3
ENDMDL
MODEL 5
REMARK VINA RESULT:     -11.1      1.090      2.346
REMARK  Name = 446752
REMARK  3 active torsions:
REMARK  status: ('A' for Active; 'I' for Inactive)
REMARK    1  A    between atoms: C_6  and  C_18
REMARK    2  A    between atoms: C_18  and  N_19
REMARK    3  A    between atoms: N_19  and  C_22
REMARK                            x       y       z     vdW  Elec       q    Type
REMARK                         _______ _______ _______ _____ _____    ______ ____
ROOT
ATOM      1  N   UNL     1      37.341 -19.645 -19.859  0.00  0.00    -0.182 NA
ATOM      2  N   UNL     1      36.749 -21.137 -18.190  0.00  0.00    -0.273 NA
ATOM      3  N   UNL     1      34.550 -22.113 -18.096  0.00  0.00    -0.312 NA
ATOM      4  N   UNL     1      32.935 -21.591 -19.683  0.00  0.00    -0.332 N 
ATOM      5  N   UNL     1      36.168 -22.647 -16.490  0.00  0.00    -0.283 N 
ATOM      6  C   UNL     1      35.769 -19.016 -21.565  0.00  0.00    +0.010 C 
ATOM      7  C   UNL     1      34.819 -19.832 -20.996  0.00  0.00    -0.009 C 
ATOM      8  C   UNL     1      35.148 -20.560 -19.843  0.00  0.00    +0.115 C 
ATOM      9  C   UNL     1      36.429 -20.446 -19.291  0.00  0.00    +0.104 C 
ATOM     10  C   UNL     1      37.004 -18.950 -20.972  0.00  0.00    +0.107 C 
ATOM     11  C   UNL     1      33.479 -19.884 -21.664  0.00  0.00    +0.032 C 
ATOM     12  C   UNL     1      34.250 -21.410 -19.201  0.00  0.00    +0.201 C 
ATOM     13  C   UNL     1      35.801 -21.932 -17.651  0.00  0.00    +0.206 C 
ATOM     14  H   UNL     1      32.318 -22.197 -19.213  0.00  0.00    +0.145 HD
ATOM     15  H   UNL     1      32.636 -21.110 -20.488  0.00  0.00    +0.145 HD
ATOM     16  H   UNL     1      37.075 -22.552 -16.119  0.00  0.00    +0.156 HD
ATOM     17  H   UNL     1      35.517 -23.243 -16.053  0.00  0.00    +0.156 HD
ENDROOT
BRANCH   6  18
ATOM     18  C   UNL     1      35.496 -18.202 -22.800  0.00  0.00    +0.097 C 
BRANCH  18  19
ATOM     19  N   UNL     1      35.572 -16.808 -22.507  0.00  0.00    -0.288 NA
ATOM     20  H   UNL     1      36.260 -16.495 -21.874  0.00  0.00    +0.124 HD
BRANCH  19  22
ATOM     21  N   UNL     1      32.554 -12.995 -22.205  0.00  0.00    -0.248 NA
ATOM     22  C   UNL     1      34.701 -15.854 -23.087  0.00  0.00    +0.101 C 
ATOM     23  C   UNL     1      34.053 -14.879 -22.312  0.00  0.00    +0.010 C 
ATOM     24  C   UNL     1      33.191 -13.942 -22.919  0.00  0.00    +0.061 C 
ATOM     25  C   UNL     1      34.501 -15.907 -24.464  0.00  0.00    -0.010 C 
ATOM     26  C   UNL     1      34.237 -14.803 -20.924  0.00  0.00    +0.000 C 
ATOM     27  C   UNL     1      33.008 -14.019 -24.297  0.00  0.00    +0.071 C 
ATOM     28  C   UNL     1      33.653 -14.988 -25.069  0.00  0.00    -0.023 C 
ATOM     29  C   UNL     1      33.583 -13.828 -20.186  0.00  0.00    +0.020 C 
ATOM     30  C   UNL     1      32.759 -12.956 -20.868  0.00  0.00    +0.098 C 
ENDBRANCH  19  22
ENDBRANCH  18  19
ENDBRANCH   6  18
TORSDOF 3
ENDMDL
MODEL 6
REMARK VINA RESULT:     -10.8      3.239      6.509
REMARK  Name = 446752
REMARK  3 active torsions:
REMARK  status: ('A' for Active; 'I' for Inactive)
REMARK    1  A    between atoms: C_6  and  C_18
REMARK    2  A    between atoms: C_18  and  N_19
REMARK    3  A    between atoms: N_19  and  C_22
REMARK                            x       y       z     vdW  Elec       q    Type
REMARK                         _______ _______ _______ _____ _____    ______ ____
ROOT
ATOM      1  N   UNL     1      34.773 -14.847 -20.745  0.00  0.00    -0.182 NA
ATOM      2  N   UNL     1      35.433 -17.063 -20.636  0.00  0.00    -0.273 NA
ATOM      3  N   UNL     1      35.344 -18.499 -22.566  0.00  0.00    -0.312 NA
ATOM      4  N   UNL     1      34.587 -17.711 -24.616  0.00  0.00    -0.332 N 
ATOM      5  N   UNL     1      36.107 -19.307 -20.505  0.00  0.00    -0.283 N 
ATOM      6  C   UNL     1      33.969 -13.899 -22.802  0.00  0.00    +0.010 C 
ATOM      7  C   UNL     1      34.150 -15.108 -23.434  0.00  0.00    -0.009 C 
ATOM      8  C   UNL     1      34.651 -16.192 -22.699  0.00  0.00    +0.115 C 
ATOM      9  C   UNL     1      34.956 -16.032 -21.343  0.00  0.00    +0.104 C 
ATOM     10  C   UNL     1      34.287 -13.810 -21.471  0.00  0.00    +0.107 C 
ATOM     11  C   UNL     1      33.793 -15.175 -24.888  0.00  0.00    +0.032 C 
ATOM     12  C   UNL     1      34.866 -17.451 -23.257  0.00  0.00    +0.201 C 
ATOM     13  C   UNL     1      35.603 -18.238 -21.277  0.00  0.00    +0.206 C 
ATOM     14  H   UNL     1      34.747 -18.608 -24.988  0.00  0.00    +0.145 HD
ATOM     15  H   UNL     1      34.232 -16.995 -25.191  0.00  0.00    +0.145 HD
ATOM     16  H   UNL     1      36.315 -19.172 -19.553  0.00  0.00    +0.156 HD
ATOM     17  H   UNL     1      36.251 -20.189 -20.920  0.00  0.00    +0.156 HD
ENDROOT
BRANCH   6  18
ATOM     18  C   UNL     1      33.436 -12.688 -23.518  0.00  0.00    +0.097 C 
BRANCH  18  19
ATOM     19  N   UNL     1      32.339 -12.126 -22.801  0.00  0.00    -0.288 NA
ATOM     20  H   UNL     1      31.617 -12.724 -22.497  0.00  0.00    +0.124 HD
BRANCH  19  22
ATOM     21  N   UNL     1      31.720  -8.423 -19.695  0.00  0.00    -0.248 NA
ATOM     22  C   UNL     1      32.243 -10.744 -22.506  0.00  0.00    +0.101 C 
ATOM     23  C   UNL     1      32.023 -10.282 -21.198  0.00  0.00    +0.010 C 
ATOM     24  C   UNL     1      31.932  -8.899 -20.936  0.00  0.00    +0.061 C 
ATOM     25  C   UNL     1      32.376  -9.843 -23.559  0.00  0.00    -0.010 C 
ATOM     26  C   UNL     1      31.886 -11.167 -20.120  0.00  0.00    +0.000 C 
ATOM     27  C   UNL     1      32.067  -8.020 -22.007  0.00  0.00    +0.071 C 
ATOM     28  C   UNL     1      32.288  -8.480 -23.308  0.00  0.00    -0.023 C 
ATOM     29  C   UNL     1      31.668 -10.680 -18.840  0.00  0.00    +0.020 C 
ATOM     30  C   UNL     1      31.594  -9.311 -18.682  0.00  0.00    +0.098 C 
ENDBRANCH  19  22
ENDBRANCH  18  19
ENDBRANCH   6  18
TORSDOF 3
ENDMDL
MODEL 7
REMARK VINA RESULT:     -10.7      3.500      7.059
REMARK  Name = 446752
REMARK  3 active torsions:
REMARK  status: ('A' for Active; 'I' for Inactive)
REMARK    1  A    between atoms: C_6  and  C_18
REMARK    2  A    between atoms: C_18  and  N_19
REMARK    3  A    between atoms: N_19  and  C_22
REMARK                            x       y       z     vdW  Elec       q    Type
REMARK                         _______ _______ _______ _____ _____    ______ ____
ROOT
ATOM      1  N   UNL     1      34.425 -14.851 -20.188  0.00  0.00    -0.182 NA
ATOM      2  N   UNL     1      35.403 -16.925 -20.504  0.00  0.00    -0.273 NA
ATOM      3  N   UNL     1      35.571 -17.918 -22.691  0.00  0.00    -0.312 NA
ATOM      4  N   UNL     1      34.752 -16.827 -24.571  0.00  0.00    -0.332 N 
ATOM      5  N   UNL     1      36.398 -19.030 -20.803  0.00  0.00    -0.283 N 
ATOM      6  C   UNL     1      33.537 -13.611 -22.046  0.00  0.00    +0.010 C 
ATOM      7  C   UNL     1      33.909 -14.621 -22.902  0.00  0.00    -0.009 C 
ATOM      8  C   UNL     1      34.547 -15.755 -22.382  0.00  0.00    +0.115 C 
ATOM      9  C   UNL     1      34.795 -15.845 -21.007  0.00  0.00    +0.104 C 
ATOM     10  C   UNL     1      33.809 -13.762 -20.710  0.00  0.00    +0.107 C 
ATOM     11  C   UNL     1      33.599 -14.428 -24.356  0.00  0.00    +0.032 C 
ATOM     12  C   UNL     1      34.959 -16.824 -23.175  0.00  0.00    +0.201 C 
ATOM     13  C   UNL     1      35.759 -17.903 -21.364  0.00  0.00    +0.206 C 
ATOM     14  H   UNL     1      35.051 -17.594 -25.112  0.00  0.00    +0.145 HD
ATOM     15  H   UNL     1      34.309 -16.062 -25.004  0.00  0.00    +0.145 HD
ATOM     16  H   UNL     1      36.563 -19.072 -19.834  0.00  0.00    +0.156 HD
ATOM     17  H   UNL     1      36.680 -19.774 -21.383  0.00  0.00    +0.156 HD
ENDROOT
BRANCH   6  18
ATOM     18  C   UNL     1      32.847 -12.362 -22.523  0.00  0.00    +0.097 C 
BRANCH  18  19
ATOM     19  N   UNL     1      31.763 -12.028 -21.659  0.00  0.00    -0.288 NA
ATOM     20  H   UNL     1      30.967 -12.609 -21.653  0.00  0.00    +0.124 HD
BRANCH  19  22
ATOM     21  N   UNL     1      31.611  -7.218 -20.896  0.00  0.00    -0.248 NA
ATOM     22  C   UNL     1      31.782 -10.896 -20.808  0.00  0.00    +0.101 C 
ATOM     23  C   UNL     1      31.681  -9.590 -21.315  0.00  0.00    +0.010 C 
ATOM     24  C   UNL     1      31.704  -8.483 -20.443  0.00  0.00    +0.061 C 
ATOM     25  C   UNL     1      31.902 -11.113 -19.438  0.00  0.00    -0.010 C 
ATOM     26  C   UNL     1      31.559  -9.344 -22.690  0.00  0.00    +0.000 C 
ATOM     27  C   UNL     1      31.827  -8.727 -19.078  0.00  0.00    +0.071 C 
ATOM     28  C   UNL     1      31.925 -10.026 -18.573  0.00  0.00    -0.023 C 
ATOM     29  C   UNL     1      31.463  -8.043 -23.160  0.00  0.00    +0.020 C 
ATOM     30  C   UNL     1      31.493  -7.024 -22.230  0.00  0.00    +0.098 C 
ENDBRANCH  19  22
ENDBRANCH  18  19
ENDBRANCH   6  18
TORSDOF 3
ENDMDL
MODEL 8
REMARK VINA RESULT:     -10.6      3.522      6.806
REMARK  Name = 446752
REMARK  3 active torsions:
REMARK  status: ('A' for Active; 'I' for Inactive)
REMARK    1  A    between atoms: C_6  and  C_18
REMARK    2  A    between atoms: C_18  and  N_19
REMARK    3  A    between atoms: N_19  and  C_22
REMARK                            x       y       z     vdW  Elec       q    Type
REMARK                         _______ _______ _______ _____ _____    ______ ____
ROOT
ATOM      1  N   UNL     1      34.848 -14.715 -21.069  0.00  0.00    -0.182 NA
ATOM      2  N   UNL     1      35.406 -16.939 -20.751  0.00  0.00    -0.273 NA
ATOM      3  N   UNL     1      35.207 -18.553 -22.526  0.00  0.00    -0.312 NA
ATOM      4  N   UNL     1      34.443 -17.935 -24.631  0.00  0.00    -0.332 N 
ATOM      5  N   UNL     1      35.976 -19.190 -20.408  0.00  0.00    -0.283 N 
ATOM      6  C   UNL     1      34.046 -13.938 -23.197  0.00  0.00    +0.010 C 
ATOM      7  C   UNL     1      34.155 -15.210 -23.708  0.00  0.00    -0.009 C 
ATOM      8  C   UNL     1      34.620 -16.240 -22.877  0.00  0.00    +0.115 C 
ATOM      9  C   UNL     1      34.963 -15.961 -21.549  0.00  0.00    +0.104 C 
ATOM     10  C   UNL     1      34.397 -13.733 -21.887  0.00  0.00    +0.107 C 
ATOM     11  C   UNL     1      33.764 -15.403 -25.141  0.00  0.00    +0.032 C 
ATOM     12  C   UNL     1      34.764 -17.556 -23.310  0.00  0.00    +0.201 C 
ATOM     13  C   UNL     1      35.506 -18.179 -21.275  0.00  0.00    +0.206 C 
ATOM     14  H   UNL     1      34.553 -18.872 -24.915  0.00  0.00    +0.145 HD
ATOM     15  H   UNL     1      34.110 -17.263 -25.269  0.00  0.00    +0.145 HD
ATOM     16  H   UNL     1      36.212 -18.972 -19.478  0.00  0.00    +0.156 HD
ATOM     17  H   UNL     1      36.069 -20.114 -20.736  0.00  0.00    +0.156 HD
ENDROOT
BRANCH   6  18
ATOM     18  C   UNL     1      33.555 -12.778 -24.021  0.00  0.00    +0.097 C 
BRANCH  18  19
ATOM     19  N   UNL     1      34.062 -11.548 -23.505  0.00  0.00    -0.288 NA
ATOM     20  H   UNL     1      35.037 -11.440 -23.416  0.00  0.00    +0.124 HD
BRANCH  19  22
ATOM     21  N   UNL     1      33.208  -6.816 -22.723  0.00  0.00    -0.248 NA
ATOM     22  C   UNL     1      33.221 -10.478 -23.115  0.00  0.00    +0.101 C 
ATOM     23  C   UNL     1      33.670  -9.147 -23.123  0.00  0.00    +0.010 C 
ATOM     24  C   UNL     1      32.810  -8.101 -22.728  0.00  0.00    +0.061 C 
ATOM     25  C   UNL     1      31.921 -10.780 -22.718  0.00  0.00    -0.010 C 
ATOM     26  C   UNL     1      34.973  -8.814 -23.518  0.00  0.00    +0.000 C 
ATOM     27  C   UNL     1      31.516  -8.432 -22.335  0.00  0.00    +0.071 C 
ATOM     28  C   UNL     1      31.068  -9.756 -22.328  0.00  0.00    -0.023 C 
ATOM     29  C   UNL     1      35.387  -7.491 -23.514  0.00  0.00    +0.020 C 
ATOM     30  C   UNL     1      34.474  -6.537 -23.112  0.00  0.00    +0.098 C 
ENDBRANCH  19  22
ENDBRANCH  18  19
ENDBRANCH   6  18
TORSDOF 3
ENDMDL
MODEL 9
REMARK VINA RESULT:     -10.5      4.219      6.798
REMARK  Name = 446752
REMARK  3 active torsions:
REMARK  status: ('A' for Active; 'I' for Inactive)
REMARK    1  A    between atoms: C_6  and  C_18
REMARK    2  A    between atoms: C_18  and  N_19
REMARK    3  A    between atoms: N_19  and  C_22
REMARK                            x       y       z     vdW  Elec       q    Type
REMARK                         _______ _______ _______ _____ _____    ______ ____
ROOT
ATOM      1  N   UNL     1      33.538 -15.761 -25.319  0.00  0.00    -0.182 NA
ATOM      2  N   UNL     1      34.188 -17.919 -24.788  0.00  0.00    -0.273 NA
ATOM      3  N   UNL     1      35.125 -18.457 -22.636  0.00  0.00    -0.312 NA
ATOM      4  N   UNL     1      35.414 -16.825 -21.009  0.00  0.00    -0.332 N 
ATOM      5  N   UNL     1      34.841 -20.112 -24.268  0.00  0.00    -0.283 N 
ATOM      6  C   UNL     1      33.780 -13.974 -23.729  0.00  0.00    +0.010 C 
ATOM      7  C   UNL     1      34.313 -14.854 -22.816  0.00  0.00    -0.009 C 
ATOM      8  C   UNL     1      34.454 -16.203 -23.171  0.00  0.00    +0.115 C 
ATOM      9  C   UNL     1      34.055 -16.633 -24.442  0.00  0.00    +0.104 C 
ATOM     10  C   UNL     1      33.410 -14.461 -24.957  0.00  0.00    +0.107 C 
ATOM     11  C   UNL     1      34.708 -14.293 -21.484  0.00  0.00    +0.032 C 
ATOM     12  C   UNL     1      34.983 -17.162 -22.310  0.00  0.00    +0.201 C 
ATOM     13  C   UNL     1      34.713 -18.763 -23.874  0.00  0.00    +0.206 C 
ATOM     14  H   UNL     1      35.784 -17.520 -20.418  0.00  0.00    +0.145 HD
ATOM     15  H   UNL     1      35.344 -15.895 -20.693  0.00  0.00    +0.145 HD
ATOM     16  H   UNL     1      34.554 -20.393 -25.167  0.00  0.00    +0.156 HD
ATOM     17  H   UNL     1      35.218 -20.773 -23.643  0.00  0.00    +0.156 HD
ENDROOT
BRANCH   6  18
ATOM     18  C   UNL     1      33.595 -12.512 -23.427  0.00  0.00    +0.097 C 
BRANCH  18  19
ATOM     19  N   UNL     1      32.309 -12.278 -22.856  0.00  0.00    -0.288 NA
ATOM     20  H   UNL     1      31.527 -12.729 -23.252  0.00  0.00    +0.124 HD
BRANCH  19  22
ATOM     21  N   UNL     1      31.649  -7.875 -20.877  0.00  0.00    -0.248 NA
ATOM     22  C   UNL     1      32.109 -11.425 -21.744  0.00  0.00    +0.101 C 
ATOM     23  C   UNL     1      31.977 -10.034 -21.895  0.00  0.00    +0.010 C 
ATOM     24  C   UNL     1      31.778  -9.210 -20.768  0.00  0.00    +0.061 C 
ATOM     25  C   UNL     1      32.043 -12.006 -20.481  0.00  0.00    -0.010 C 
ATOM     26  C   UNL     1      32.038  -9.424 -23.155  0.00  0.00    +0.000 C 
ATOM     27  C   UNL     1      31.718  -9.817 -19.516  0.00  0.00    +0.071 C 
ATOM     28  C   UNL     1      31.848 -11.200 -19.366  0.00  0.00    -0.023 C 
ATOM     29  C   UNL     1      31.906  -8.048 -23.272  0.00  0.00    +0.020 C 
ATOM     30  C   UNL     1      31.714  -7.325 -22.112  0.00  0.00    +0.098 C 
ENDBRANCH  19  22
ENDBRANCH  18  19
ENDBRANCH   6  18
TORSDOF 3
ENDMDL
