MODEL 1
REMARK VINA RESULT:     -11.4      0.000      0.000
REMARK  Name = 6914613
REMARK  8 active torsions:
REMARK  status: ('A' for Active; 'I' for Inactive)
REMARK    1  A    between atoms: C_1  and  N_2
REMARK    2  A    between atoms: C_1  and  C_6
REMARK    3  A    between atoms: C_1  and  C_17
REMARK    4  A    between atoms: C_6  and  C_8
REMARK    5  A    between atoms: C_17  and  O_18
REMARK    6  A    between atoms: O_18  and  C_20
REMARK    7  A    between atoms: C_23  and  C_25
REMARK    8  A    between atoms: C_26  and  C_28
REMARK                            x       y       z     vdW  Elec       q    Type
REMARK                         _______ _______ _______ _____ _____    ______ ____
ROOT
ATOM      1  C   UNL     1      33.630 -13.097 -23.077  0.00  0.00    -0.017 C 
ENDROOT
BRANCH   1   2
ATOM      2  N   UNL     1      33.390 -13.504 -24.466  0.00  0.00    +0.384 N 
ATOM      3  H   UNL     1      34.241 -13.370 -25.011  0.00  0.00    -0.089 HD
ATOM      4  H   UNL     1      32.640 -12.937 -24.861  0.00  0.00    -0.089 HD
ATOM      5  H   UNL     1      33.121 -14.487 -24.490  0.00  0.00    -0.089 HD
ENDBRANCH   1   2
BRANCH   1   6
ATOM      6  C   UNL     1      32.288 -12.674 -22.423  0.00  0.00    +0.009 C 
BRANCH   6   8
ATOM      7  N   UNL     1      32.137  -9.027 -22.333  0.00  0.00    -0.312 N 
ATOM      8  C   UNL     1      32.188 -11.236 -22.107  0.00  0.00    -0.008 C 
ATOM      9  C   UNL     1      31.980 -10.662 -20.821  0.00  0.00    +0.011 C 
ATOM     10  C   UNL     1      31.952  -9.275 -20.990  0.00  0.00    +0.048 C 
ATOM     11  C   UNL     1      32.280 -10.206 -23.015  0.00  0.00    +0.058 C 
ATOM     12  C   UNL     1      31.814 -11.190 -19.526  0.00  0.00    +0.001 C 
ATOM     13  C   UNL     1      31.766  -8.388 -19.925  0.00  0.00    +0.015 C 
ATOM     14  C   UNL     1      31.625 -10.314 -18.450  0.00  0.00    +0.000 C 
ATOM     15  C   UNL     1      31.602  -8.936 -18.649  0.00  0.00    +0.001 C 
ATOM     16  H   UNL     1      32.162  -8.132 -22.742  0.00  0.00    +0.152 HD
ENDBRANCH   6   8
ENDBRANCH   1   6
BRANCH   1  17
ATOM     17  C   UNL     1      34.335 -14.246 -22.344  0.00  0.00    +0.184 C 
BRANCH  17  18
ATOM     18  O   UNL     1      35.203 -14.970 -23.208  0.00  0.00    -0.476 OA
BRANCH  18  20
ATOM     19  N   UNL     1      34.200 -18.130 -24.722  0.00  0.00    -0.239 NA
ATOM     20  C   UNL     1      34.962 -16.312 -23.343  0.00  0.00    +0.158 C 
ATOM     21  C   UNL     1      35.214 -17.180 -22.296  0.00  0.00    +0.040 C 
ATOM     22  C   UNL     1      34.462 -16.818 -24.523  0.00  0.00    +0.136 C 
ATOM     23  C   UNL     1      34.957 -18.537 -22.463  0.00  0.00    +0.022 C 
ATOM     24  C   UNL     1      34.455 -18.956 -23.683  0.00  0.00    +0.099 C 
BRANCH  23  25
ATOM     25  C   UNL     1      35.208 -19.483 -21.390  0.00  0.00    +0.002 C 
ATOM     26  C   UNL     1      34.262 -20.009 -20.574  0.00  0.00    +0.000 C 
BRANCH  26  28
ATOM     27  N   UNL     1      34.987 -22.822 -17.472  0.00  0.00    -0.242 NA
ATOM     28  C   UNL     1      34.513 -20.984 -19.497  0.00  0.00    +0.003 C 
ATOM     29  C   UNL     1      33.469 -21.747 -19.016  0.00  0.00    +0.021 C 
ATOM     30  C   UNL     1      35.790 -21.119 -18.988  0.00  0.00    +0.021 C 
ATOM     31  C   UNL     1      33.757 -22.650 -18.006  0.00  0.00    +0.099 C 
ATOM     32  C   UNL     1      35.974 -22.050 -17.979  0.00  0.00    +0.099 C 
ENDBRANCH  26  28
ENDBRANCH  23  25
ENDBRANCH  18  20
ENDBRANCH  17  18
ENDBRANCH   1  17
TORSDOF 8
ENDMDL
MODEL 2
REMARK VINA RESULT:     -11.3      0.985      1.567
REMARK  Name = 6914613
REMARK  8 active torsions:
REMARK  status: ('A' for Active; 'I' for Inactive)
REMARK    1  A    between atoms: C_1  and  N_2
REMARK    2  A    between atoms: C_1  and  C_6
REMARK    3  A    between atoms: C_1  and  C_17
REMARK    4  A    between atoms: C_6  and  C_8
REMARK    5  A    between atoms: C_17  and  O_18
REMARK    6  A    between atoms: O_18  and  C_20
REMARK    7  A    between atoms: C_23  and  C_25
REMARK    8  A    between atoms: C_26  and  C_28
REMARK                            x       y       z     vdW  Elec       q    Type
REMARK                         _______ _______ _______ _____ _____    ______ ____
ROOT
ATOM      1  C   UNL     1      33.475 -12.676 -22.748  0.00  0.00    -0.017 C 
ENDROOT
BRANCH   1   2
ATOM      2  N   UNL     1      33.430 -12.866 -24.202  0.00  0.00    +0.384 N 
ATOM      3  H   UNL     1      32.855 -13.680 -24.421  0.00  0.00    -0.089 HD
ATOM      4  H   UNL     1      34.375 -13.012 -24.556  0.00  0.00    -0.089 HD
ATOM      5  H   UNL     1      33.027 -12.037 -24.640  0.00  0.00    -0.089 HD
ENDBRANCH   1   2
BRANCH   1   6
ATOM      6  C   UNL     1      32.044 -12.387 -22.220  0.00  0.00    +0.009 C 
BRANCH   6   8
ATOM      7  N   UNL     1      31.961 -10.830 -18.919  0.00  0.00    -0.312 N 
ATOM      8  C   UNL     1      31.996 -11.514 -21.031  0.00  0.00    -0.008 C 
ATOM      9  C   UNL     1      31.909 -10.093 -21.025  0.00  0.00    +0.011 C 
ATOM     10  C   UNL     1      31.889  -9.689 -19.687  0.00  0.00    +0.048 C 
ATOM     11  C   UNL     1      32.026 -11.937 -19.722  0.00  0.00    +0.058 C 
ATOM     12  C   UNL     1      31.845  -9.109 -22.031  0.00  0.00    +0.001 C 
ATOM     13  C   UNL     1      31.808  -8.346 -19.305  0.00  0.00    +0.015 C 
ATOM     14  C   UNL     1      31.764  -7.761 -21.663  0.00  0.00    +0.000 C 
ATOM     15  C   UNL     1      31.745  -7.388 -20.321  0.00  0.00    +0.001 C 
ATOM     16  H   UNL     1      31.965 -10.847 -17.934  0.00  0.00    +0.152 HD
ENDBRANCH   6   8
ENDBRANCH   1   6
BRANCH   1  17
ATOM     17  C   UNL     1      34.125 -13.912 -22.113  0.00  0.00    +0.184 C 
BRANCH  17  18
ATOM     18  O   UNL     1      35.062 -14.526 -22.989  0.00  0.00    -0.476 OA
BRANCH  18  20
ATOM     19  N   UNL     1      34.365 -17.660 -24.715  0.00  0.00    -0.239 NA
ATOM     20  C   UNL     1      34.918 -15.872 -23.204  0.00  0.00    +0.158 C 
ATOM     21  C   UNL     1      35.158 -16.775 -22.184  0.00  0.00    +0.040 C 
ATOM     22  C   UNL     1      34.528 -16.346 -24.437  0.00  0.00    +0.136 C 
ATOM     23  C   UNL     1      35.001 -18.135 -22.432  0.00  0.00    +0.022 C 
ATOM     24  C   UNL     1      34.606 -18.521 -23.702  0.00  0.00    +0.099 C 
BRANCH  23  25
ATOM     25  C   UNL     1      35.243 -19.117 -21.391  0.00  0.00    +0.002 C 
ATOM     26  C   UNL     1      34.283 -19.803 -20.723  0.00  0.00    +0.000 C 
BRANCH  26  28
ATOM     27  N   UNL     1      34.993 -22.722 -17.717  0.00  0.00    -0.242 NA
ATOM     28  C   UNL     1      34.529 -20.815 -19.680  0.00  0.00    +0.003 C 
ATOM     29  C   UNL     1      33.475 -21.570 -19.205  0.00  0.00    +0.021 C 
ATOM     30  C   UNL     1      35.810 -20.992 -19.195  0.00  0.00    +0.021 C 
ATOM     31  C   UNL     1      33.758 -22.508 -18.226  0.00  0.00    +0.099 C 
ATOM     32  C   UNL     1      35.989 -21.956 -18.216  0.00  0.00    +0.099 C 
ENDBRANCH  26  28
ENDBRANCH  23  25
ENDBRANCH  18  20
ENDBRANCH  17  18
ENDBRANCH   1  17
TORSDOF 8
ENDMDL
MODEL 3
REMARK VINA RESULT:     -11.0      3.420      6.917
REMARK  Name = 6914613
REMARK  8 active torsions:
REMARK  status: ('A' for Active; 'I' for Inactive)
REMARK    1  A    between atoms: C_1  and  N_2
REMARK    2  A    between atoms: C_1  and  C_6
REMARK    3  A    between atoms: C_1  and  C_17
REMARK    4  A    between atoms: C_6  and  C_8
REMARK    5  A    between atoms: C_17  and  O_18
REMARK    6  A    between atoms: O_18  and  C_20
REMARK    7  A    between atoms: C_23  and  C_25
REMARK    8  A    between atoms: C_26  and  C_28
REMARK                            x       y       z     vdW  Elec       q    Type
REMARK                         _______ _______ _______ _____ _____    ______ ____
ROOT
ATOM      1  C   UNL     1      36.789 -18.694 -20.962  0.00  0.00    -0.017 C 
ENDROOT
BRANCH   1   2
ATOM      2  N   UNL     1      38.002 -18.605 -21.782  0.00  0.00    +0.384 N 
ATOM      3  H   UNL     1      38.619 -17.889 -21.400  0.00  0.00    -0.089 HD
ATOM      4  H   UNL     1      37.749 -18.361 -22.740  0.00  0.00    -0.089 HD
ATOM      5  H   UNL     1      38.482 -19.505 -21.777  0.00  0.00    -0.089 HD
ENDBRANCH   1   2
BRANCH   1   6
ATOM      6  C   UNL     1      35.550 -18.828 -21.887  0.00  0.00    +0.009 C 
BRANCH   6   8
ATOM      7  N   UNL     1      34.676 -16.149 -24.208  0.00  0.00    -0.312 N 
ATOM      8  C   UNL     1      35.174 -17.586 -22.591  0.00  0.00    -0.008 C 
ATOM      9  C   UNL     1      34.902 -16.322 -21.995  0.00  0.00    +0.011 C 
ATOM     10  C   UNL     1      34.591 -15.438 -23.031  0.00  0.00    +0.048 C 
ATOM     11  C   UNL     1      35.027 -17.447 -23.952  0.00  0.00    +0.058 C 
ATOM     12  C   UNL     1      34.889 -15.844 -20.670  0.00  0.00    +0.001 C 
ATOM     13  C   UNL     1      34.268 -14.096 -22.808  0.00  0.00    +0.015 C 
ATOM     14  C   UNL     1      34.567 -14.503 -20.431  0.00  0.00    +0.000 C 
ATOM     15  C   UNL     1      34.262 -13.644 -21.485  0.00  0.00    +0.001 C 
ATOM     16  H   UNL     1      34.507 -15.777 -25.104  0.00  0.00    +0.152 HD
ENDBRANCH   6   8
ENDBRANCH   1   6
BRANCH   1  17
ATOM     17  C   UNL     1      36.948 -19.858 -19.976  0.00  0.00    +0.184 C 
BRANCH  17  18
ATOM     18  O   UNL     1      35.810 -20.711 -19.977  0.00  0.00    -0.476 OA
BRANCH  18  20
ATOM     19  N   UNL     1      36.418 -22.366 -16.787  0.00  0.00    -0.239 NA
ATOM     20  C   UNL     1      35.570 -21.423 -18.830  0.00  0.00    +0.158 C 
ATOM     21  C   UNL     1      34.304 -21.907 -18.557  0.00  0.00    +0.040 C 
ATOM     22  C   UNL     1      36.587 -21.669 -17.934  0.00  0.00    +0.136 C 
ATOM     23  C   UNL     1      34.092 -22.628 -17.387  0.00  0.00    +0.022 C 
ATOM     24  C   UNL     1      35.172 -22.828 -16.543  0.00  0.00    +0.099 C 
BRANCH  23  25
ATOM     25  C   UNL     1      32.779 -23.154 -17.060  0.00  0.00    +0.002 C 
ATOM     26  C   UNL     1      32.134 -22.976 -15.881  0.00  0.00    +0.000 C 
BRANCH  26  28
ATOM     27  N   UNL     1      28.268 -24.473 -14.946  0.00  0.00    -0.242 NA
ATOM     28  C   UNL     1      30.793 -23.495 -15.556  0.00  0.00    +0.003 C 
ATOM     29  C   UNL     1      29.677 -22.826 -16.017  0.00  0.00    +0.021 C 
ATOM     30  C   UNL     1      30.675 -24.641 -14.795  0.00  0.00    +0.021 C 
ATOM     31  C   UNL     1      28.440 -23.354 -15.686  0.00  0.00    +0.099 C 
ATOM     32  C   UNL     1      29.394 -25.089 -14.519  0.00  0.00    +0.099 C 
ENDBRANCH  26  28
ENDBRANCH  23  25
ENDBRANCH  18  20
ENDBRANCH  17  18
ENDBRANCH   1  17
TORSDOF 8
ENDMDL
MODEL 4
REMARK VINA RESULT:     -11.0      1.608      2.445
REMARK  Name = 6914613
REMARK  8 active torsions:
REMARK  status: ('A' for Active; 'I' for Inactive)
REMARK    1  A    between atoms: C_1  and  N_2
REMARK    2  A    between atoms: C_1  and  C_6
REMARK    3  A    between atoms: C_1  and  C_17
REMARK    4  A    between atoms: C_6  and  C_8
REMARK    5  A    between atoms: C_17  and  O_18
REMARK    6  A    between atoms: O_18  and  C_20
REMARK    7  A    between atoms: C_23  and  C_25
REMARK    8  A    between atoms: C_26  and  C_28
REMARK                            x       y       z     vdW  Elec       q    Type
REMARK                         _______ _______ _______ _____ _____    ______ ____
ROOT
ATOM      1  C   UNL     1      32.816 -13.779 -21.752  0.00  0.00    -0.017 C 
ENDROOT
BRANCH   1   2
ATOM      2  N   UNL     1      32.269 -13.318 -20.470  0.00  0.00    +0.384 N 
ATOM      3  H   UNL     1      31.777 -12.436 -20.609  0.00  0.00    -0.089 HD
ATOM      4  H   UNL     1      33.030 -13.181 -19.805  0.00  0.00    -0.089 HD
ATOM      5  H   UNL     1      31.621 -14.016 -20.107  0.00  0.00    -0.089 HD
ENDBRANCH   1   2
BRANCH   1   6
ATOM      6  C   UNL     1      32.259 -12.895 -22.899  0.00  0.00    +0.009 C 
BRANCH   6   8
ATOM      7  N   UNL     1      31.479  -9.494 -21.824  0.00  0.00    -0.312 N 
ATOM      8  C   UNL     1      32.193 -11.454 -22.584  0.00  0.00    -0.008 C 
ATOM      9  C   UNL     1      33.166 -10.469 -22.913  0.00  0.00    +0.011 C 
ATOM     10  C   UNL     1      32.695  -9.248 -22.425  0.00  0.00    +0.048 C 
ATOM     11  C   UNL     1      31.168 -10.824 -21.915  0.00  0.00    +0.058 C 
ATOM     12  C   UNL     1      34.406 -10.498 -23.581  0.00  0.00    +0.001 C 
ATOM     13  C   UNL     1      33.403  -8.051 -22.572  0.00  0.00    +0.015 C 
ATOM     14  C   UNL     1      35.127  -9.308 -23.735  0.00  0.00    +0.000 C 
ATOM     15  C   UNL     1      34.631  -8.105 -23.238  0.00  0.00    +0.001 C 
ATOM     16  H   UNL     1      30.917  -8.811 -21.391  0.00  0.00    +0.152 HD
ENDBRANCH   6   8
ENDBRANCH   1   6
BRANCH   1  17
ATOM     17  C   UNL     1      34.348 -13.774 -21.661  0.00  0.00    +0.184 C 
BRANCH  17  18
ATOM     18  O   UNL     1      34.950 -14.231 -22.865  0.00  0.00    -0.476 OA
BRANCH  18  20
ATOM     19  N   UNL     1      34.411 -17.329 -24.707  0.00  0.00    -0.239 NA
ATOM     20  C   UNL     1      34.865 -15.573 -23.127  0.00  0.00    +0.158 C 
ATOM     21  C   UNL     1      35.128 -16.500 -22.135  0.00  0.00    +0.040 C 
ATOM     22  C   UNL     1      34.514 -16.020 -24.382  0.00  0.00    +0.136 C 
ATOM     23  C   UNL     1      35.032 -17.856 -22.431  0.00  0.00    +0.022 C 
ATOM     24  C   UNL     1      34.673 -18.214 -23.720  0.00  0.00    +0.099 C 
BRANCH  23  25
ATOM     25  C   UNL     1      35.300 -18.863 -21.420  0.00  0.00    +0.002 C 
ATOM     26  C   UNL     1      34.362 -19.627 -20.808  0.00  0.00    +0.000 C 
BRANCH  26  28
ATOM     27  N   UNL     1      35.148 -22.611 -17.887  0.00  0.00    -0.242 NA
ATOM     28  C   UNL     1      34.635 -20.662 -19.796  0.00  0.00    +0.003 C 
ATOM     29  C   UNL     1      35.928 -20.853 -19.351  0.00  0.00    +0.021 C 
ATOM     30  C   UNL     1      33.592 -21.425 -19.307  0.00  0.00    +0.021 C 
ATOM     31  C   UNL     1      36.132 -21.838 -18.398  0.00  0.00    +0.099 C 
ATOM     32  C   UNL     1      33.900 -22.384 -18.356  0.00  0.00    +0.099 C 
ENDBRANCH  26  28
ENDBRANCH  23  25
ENDBRANCH  18  20
ENDBRANCH  17  18
ENDBRANCH   1  17
TORSDOF 8
ENDMDL
MODEL 5
REMARK VINA RESULT:     -10.9      1.479      9.817
REMARK  Name = 6914613
REMARK  8 active torsions:
REMARK  status: ('A' for Active; 'I' for Inactive)
REMARK    1  A    between atoms: C_1  and  N_2
REMARK    2  A    between atoms: C_1  and  C_6
REMARK    3  A    between atoms: C_1  and  C_17
REMARK    4  A    between atoms: C_6  and  C_8
REMARK    5  A    between atoms: C_17  and  O_18
REMARK    6  A    between atoms: O_18  and  C_20
REMARK    7  A    between atoms: C_23  and  C_25
REMARK    8  A    between atoms: C_26  and  C_28
REMARK                            x       y       z     vdW  Elec       q    Type
REMARK                         _______ _______ _______ _____ _____    ______ ____
ROOT
ATOM      1  C   UNL     1      34.835 -19.252 -21.365  0.00  0.00    -0.017 C 
ENDROOT
BRANCH   1   2
ATOM      2  N   UNL     1      34.921 -19.784 -22.730  0.00  0.00    +0.384 N 
ATOM      3  H   UNL     1      35.754 -19.413 -23.188  0.00  0.00    -0.089 HD
ATOM      4  H   UNL     1      34.093 -19.507 -23.256  0.00  0.00    -0.089 HD
ATOM      5  H   UNL     1      34.977 -20.802 -22.695  0.00  0.00    -0.089 HD
ENDBRANCH   1   2
BRANCH   1   6
ATOM      6  C   UNL     1      35.618 -20.181 -20.400  0.00  0.00    +0.009 C 
BRANCH   6   8
ATOM      7  N   UNL     1      33.008 -22.102 -18.717  0.00  0.00    -0.312 N 
ATOM      8  C   UNL     1      34.766 -21.016 -19.529  0.00  0.00    -0.008 C 
ATOM      9  C   UNL     1      35.160 -21.663 -18.324  0.00  0.00    +0.011 C 
ATOM     10  C   UNL     1      34.040 -22.338 -17.835  0.00  0.00    +0.048 C 
ATOM     11  C   UNL     1      33.438 -21.305 -19.744  0.00  0.00    +0.058 C 
ATOM     12  C   UNL     1      36.366 -21.739 -17.600  0.00  0.00    +0.001 C 
ATOM     13  C   UNL     1      34.065 -23.088 -16.654  0.00  0.00    +0.015 C 
ATOM     14  C   UNL     1      36.407 -22.486 -16.417  0.00  0.00    +0.000 C 
ATOM     15  C   UNL     1      35.273 -23.149 -15.954  0.00  0.00    +0.001 C 
ATOM     16  H   UNL     1      32.094 -22.457 -18.623  0.00  0.00    +0.152 HD
ENDBRANCH   6   8
ENDBRANCH   1   6
BRANCH   1  17
ATOM     17  C   UNL     1      35.343 -17.805 -21.371  0.00  0.00    +0.184 C 
BRANCH  17  18
ATOM     18  O   UNL     1      35.752 -17.393 -22.669  0.00  0.00    -0.476 OA
BRANCH  18  20
ATOM     19  N   UNL     1      33.775 -15.771 -25.266  0.00  0.00    -0.239 NA
ATOM     20  C   UNL     1      34.970 -16.457 -23.295  0.00  0.00    +0.158 C 
ATOM     21  C   UNL     1      34.599 -15.299 -22.637  0.00  0.00    +0.040 C 
ATOM     22  C   UNL     1      34.545 -16.654 -24.590  0.00  0.00    +0.136 C 
ATOM     23  C   UNL     1      33.807 -14.366 -23.299  0.00  0.00    +0.022 C 
ATOM     24  C   UNL     1      33.426 -14.647 -24.600  0.00  0.00    +0.099 C 
BRANCH  23  25
ATOM     25  C   UNL     1      33.394 -13.137 -22.646  0.00  0.00    +0.002 C 
ATOM     26  C   UNL     1      32.587 -13.060 -21.560  0.00  0.00    +0.000 C 
BRANCH  26  28
ATOM     27  N   UNL     1      31.426  -9.464 -19.616  0.00  0.00    -0.242 NA
ATOM     28  C   UNL     1      32.183 -11.813 -20.886  0.00  0.00    +0.003 C 
ATOM     29  C   UNL     1      32.060 -11.794 -19.511  0.00  0.00    +0.021 C 
ATOM     30  C   UNL     1      31.936 -10.683 -21.640  0.00  0.00    +0.021 C 
ATOM     31  C   UNL     1      31.680 -10.598 -18.925  0.00  0.00    +0.099 C 
ATOM     32  C   UNL     1      31.561  -9.536 -20.959  0.00  0.00    +0.099 C 
ENDBRANCH  26  28
ENDBRANCH  23  25
ENDBRANCH  18  20
ENDBRANCH  17  18
ENDBRANCH   1  17
TORSDOF 8
ENDMDL
MODEL 6
REMARK VINA RESULT:     -10.9      1.248      1.294
REMARK  Name = 6914613
REMARK  8 active torsions:
REMARK  status: ('A' for Active; 'I' for Inactive)
REMARK    1  A    between atoms: C_1  and  N_2
REMARK    2  A    between atoms: C_1  and  C_6
REMARK    3  A    between atoms: C_1  and  C_17
REMARK    4  A    between atoms: C_6  and  C_8
REMARK    5  A    between atoms: C_17  and  O_18
REMARK    6  A    between atoms: O_18  and  C_20
REMARK    7  A    between atoms: C_23  and  C_25
REMARK    8  A    between atoms: C_26  and  C_28
REMARK                            x       y       z     vdW  Elec       q    Type
REMARK                         _______ _______ _______ _____ _____    ______ ____
ROOT
ATOM      1  C   UNL     1      32.702 -13.810 -21.398  0.00  0.00    -0.017 C 
ENDROOT
BRANCH   1   2
ATOM      2  N   UNL     1      32.409 -13.723 -19.963  0.00  0.00    +0.384 N 
ATOM      3  H   UNL     1      33.264 -13.890 -19.431  0.00  0.00    -0.089 HD
ATOM      4  H   UNL     1      31.712 -14.425 -19.714  0.00  0.00    -0.089 HD
ATOM      5  H   UNL     1      32.049 -12.794 -19.745  0.00  0.00    -0.089 HD
ENDBRANCH   1   2
BRANCH   1   6
ATOM      6  C   UNL     1      31.766 -12.847 -22.175  0.00  0.00    +0.009 C 
BRANCH   6   8
ATOM      7  N   UNL     1      32.953  -9.420 -22.604  0.00  0.00    -0.312 N 
ATOM      8  C   UNL     1      32.145 -11.422 -22.086  0.00  0.00    -0.008 C 
ATOM      9  C   UNL     1      31.926 -10.554 -20.979  0.00  0.00    +0.011 C 
ATOM     10  C   UNL     1      32.442  -9.304 -21.330  0.00  0.00    +0.048 C 
ATOM     11  C   UNL     1      32.777 -10.696 -23.069  0.00  0.00    +0.058 C 
ATOM     12  C   UNL     1      31.338 -10.712 -19.709  0.00  0.00    +0.001 C 
ATOM     13  C   UNL     1      32.399  -8.201 -20.471  0.00  0.00    +0.015 C 
ATOM     14  C   UNL     1      31.287  -9.616 -18.839  0.00  0.00    +0.000 C 
ATOM     15  C   UNL     1      31.810  -8.382 -19.216  0.00  0.00    +0.001 C 
ATOM     16  H   UNL     1      33.381  -8.691 -23.107  0.00  0.00    +0.152 HD
ENDBRANCH   6   8
ENDBRANCH   1   6
BRANCH   1  17
ATOM     17  C   UNL     1      34.194 -13.523 -21.612  0.00  0.00    +0.184 C 
BRANCH  17  18
ATOM     18  O   UNL     1      34.619 -13.884 -22.919  0.00  0.00    -0.476 OA
BRANCH  18  20
ATOM     19  N   UNL     1      34.467 -16.990 -24.821  0.00  0.00    -0.239 NA
ATOM     20  C   UNL     1      34.679 -15.224 -23.201  0.00  0.00    +0.158 C 
ATOM     21  C   UNL     1      34.990 -16.137 -22.210  0.00  0.00    +0.040 C 
ATOM     22  C   UNL     1      34.428 -15.682 -24.476  0.00  0.00    +0.136 C 
ATOM     23  C   UNL     1      35.041 -17.490 -22.527  0.00  0.00    +0.022 C 
ATOM     24  C   UNL     1      34.774 -17.861 -23.834  0.00  0.00    +0.099 C 
BRANCH  23  25
ATOM     25  C   UNL     1      35.363 -18.483 -21.518  0.00  0.00    +0.002 C 
ATOM     26  C   UNL     1      34.512 -19.429 -21.049  0.00  0.00    +0.000 C 
BRANCH  26  28
ATOM     27  N   UNL     1      35.472 -22.372 -18.137  0.00  0.00    -0.242 NA
ATOM     28  C   UNL     1      34.844 -20.449 -20.038  0.00  0.00    +0.003 C 
ATOM     29  C   UNL     1      33.836 -21.216 -19.491  0.00  0.00    +0.021 C 
ATOM     30  C   UNL     1      36.160 -20.621 -19.656  0.00  0.00    +0.021 C 
ATOM     31  C   UNL     1      34.200 -22.162 -18.547  0.00  0.00    +0.099 C 
ATOM     32  C   UNL     1      36.421 -21.593 -18.704  0.00  0.00    +0.099 C 
ENDBRANCH  26  28
ENDBRANCH  23  25
ENDBRANCH  18  20
ENDBRANCH  17  18
ENDBRANCH   1  17
TORSDOF 8
ENDMDL
MODEL 7
REMARK VINA RESULT:     -10.9      3.618      6.892
REMARK  Name = 6914613
REMARK  8 active torsions:
REMARK  status: ('A' for Active; 'I' for Inactive)
REMARK    1  A    between atoms: C_1  and  N_2
REMARK    2  A    between atoms: C_1  and  C_6
REMARK    3  A    between atoms: C_1  and  C_17
REMARK    4  A    between atoms: C_6  and  C_8
REMARK    5  A    between atoms: C_17  and  O_18
REMARK    6  A    between atoms: O_18  and  C_20
REMARK    7  A    between atoms: C_23  and  C_25
REMARK    8  A    between atoms: C_26  and  C_28
REMARK                            x       y       z     vdW  Elec       q    Type
REMARK                         _______ _______ _______ _____ _____    ______ ____
ROOT
ATOM      1  C   UNL     1      35.500 -18.824 -21.138  0.00  0.00    -0.017 C 
ENDROOT
BRANCH   1   2
ATOM      2  N   UNL     1      36.828 -18.821 -20.513  0.00  0.00    +0.384 N 
ATOM      3  H   UNL     1      36.904 -19.612 -19.874  0.00  0.00    -0.089 HD
ATOM      4  H   UNL     1      36.958 -17.952 -19.996  0.00  0.00    -0.089 HD
ATOM      5  H   UNL     1      37.543 -18.897 -21.236  0.00  0.00    -0.089 HD
ENDBRANCH   1   2
BRANCH   1   6
ATOM      6  C   UNL     1      35.642 -18.529 -22.654  0.00  0.00    +0.009 C 
BRANCH   6   8
ATOM      7  N   UNL     1      34.325 -15.571 -24.343  0.00  0.00    -0.312 N 
ATOM      8  C   UNL     1      35.103 -17.220 -23.076  0.00  0.00    -0.008 C 
ATOM      9  C   UNL     1      34.811 -16.112 -22.232  0.00  0.00    +0.011 C 
ATOM     10  C   UNL     1      34.324 -15.090 -23.052  0.00  0.00    +0.048 C 
ATOM     11  C   UNL     1      34.794 -16.858 -24.367  0.00  0.00    +0.058 C 
ATOM     12  C   UNL     1      34.914 -15.878 -20.847  0.00  0.00    +0.001 C 
ATOM     13  C   UNL     1      33.933 -13.843 -22.553  0.00  0.00    +0.015 C 
ATOM     14  C   UNL     1      34.526 -14.635 -20.334  0.00  0.00    +0.000 C 
ATOM     15  C   UNL     1      34.045 -13.635 -21.175  0.00  0.00    +0.001 C 
ATOM     16  H   UNL     1      34.031 -15.063 -25.133  0.00  0.00    +0.152 HD
ENDBRANCH   6   8
ENDBRANCH   1   6
BRANCH   1  17
ATOM     17  C   UNL     1      34.819 -20.165 -20.834  0.00  0.00    +0.184 C 
BRANCH  17  18
ATOM     18  O   UNL     1      35.577 -20.949 -19.922  0.00  0.00    -0.476 OA
BRANCH  18  20
ATOM     19  N   UNL     1      32.777 -22.481 -18.164  0.00  0.00    -0.239 NA
ATOM     20  C   UNL     1      34.878 -21.614 -18.949  0.00  0.00    +0.158 C 
ATOM     21  C   UNL     1      35.520 -22.071 -17.812  0.00  0.00    +0.040 C 
ATOM     22  C   UNL     1      33.526 -21.835 -19.086  0.00  0.00    +0.136 C 
ATOM     23  C   UNL     1      34.783 -22.741 -16.841  0.00  0.00    +0.022 C 
ATOM     24  C   UNL     1      33.428 -22.918 -17.063  0.00  0.00    +0.099 C 
BRANCH  23  25
ATOM     25  C   UNL     1      35.416 -23.238 -15.632  0.00  0.00    +0.002 C 
ATOM     26  C   UNL     1      34.913 -24.203 -14.825  0.00  0.00    +0.000 C 
BRANCH  26  28
ATOM     27  N   UNL     1      36.792 -25.694 -11.317  0.00  0.00    -0.242 NA
ATOM     28  C   UNL     1      35.564 -24.721 -13.608  0.00  0.00    +0.003 C 
ATOM     29  C   UNL     1      36.607 -25.618 -13.726  0.00  0.00    +0.021 C 
ATOM     30  C   UNL     1      35.121 -24.301 -12.370  0.00  0.00    +0.021 C 
ATOM     31  C   UNL     1      37.187 -26.073 -12.554  0.00  0.00    +0.099 C 
ATOM     32  C   UNL     1      35.766 -24.815 -11.258  0.00  0.00    +0.099 C 
ENDBRANCH  26  28
ENDBRANCH  23  25
ENDBRANCH  18  20
ENDBRANCH  17  18
ENDBRANCH   1  17
TORSDOF 8
ENDMDL
MODEL 8
REMARK VINA RESULT:     -10.9      1.941     10.262
REMARK  Name = 6914613
REMARK  8 active torsions:
REMARK  status: ('A' for Active; 'I' for Inactive)
REMARK    1  A    between atoms: C_1  and  N_2
REMARK    2  A    between atoms: C_1  and  C_6
REMARK    3  A    between atoms: C_1  and  C_17
REMARK    4  A    between atoms: C_6  and  C_8
REMARK    5  A    between atoms: C_17  and  O_18
REMARK    6  A    between atoms: O_18  and  C_20
REMARK    7  A    between atoms: C_23  and  C_25
REMARK    8  A    between atoms: C_26  and  C_28
REMARK                            x       y       z     vdW  Elec       q    Type
REMARK                         _______ _______ _______ _____ _____    ______ ____
ROOT
ATOM      1  C   UNL     1      34.820 -19.128 -21.591  0.00  0.00    -0.017 C 
ENDROOT
BRANCH   1   2
ATOM      2  N   UNL     1      35.028 -19.705 -22.924  0.00  0.00    +0.384 N 
ATOM      3  H   UNL     1      35.106 -18.955 -23.611  0.00  0.00    -0.089 HD
ATOM      4  H   UNL     1      34.236 -20.303 -23.163  0.00  0.00    -0.089 HD
ATOM      5  H   UNL     1      35.884 -20.259 -22.925  0.00  0.00    -0.089 HD
ENDBRANCH   1   2
BRANCH   1   6
ATOM      6  C   UNL     1      35.511 -20.023 -20.528  0.00  0.00    +0.009 C 
BRANCH   6   8
ATOM      7  N   UNL     1      32.742 -21.860 -19.015  0.00  0.00    -0.312 N 
ATOM      8  C   UNL     1      34.584 -20.841 -19.721  0.00  0.00    -0.008 C 
ATOM      9  C   UNL     1      34.897 -21.548 -18.526  0.00  0.00    +0.011 C 
ATOM     10  C   UNL     1      33.725 -22.179 -18.103  0.00  0.00    +0.048 C 
ATOM     11  C   UNL     1      33.252 -21.052 -19.996  0.00  0.00    +0.058 C 
ATOM     12  C   UNL     1      36.068 -21.712 -17.761  0.00  0.00    +0.001 C 
ATOM     13  C   UNL     1      33.665 -22.969 -16.950  0.00  0.00    +0.015 C 
ATOM     14  C   UNL     1      36.024 -22.500 -16.604  0.00  0.00    +0.000 C 
ATOM     15  C   UNL     1      34.840 -23.117 -16.207  0.00  0.00    +0.001 C 
ATOM     16  H   UNL     1      31.808 -22.169 -18.968  0.00  0.00    +0.152 HD
ENDBRANCH   6   8
ENDBRANCH   1   6
BRANCH   1  17
ATOM     17  C   UNL     1      35.329 -17.681 -21.600  0.00  0.00    +0.184 C 
BRANCH  17  18
ATOM     18  O   UNL     1      35.726 -17.268 -22.901  0.00  0.00    -0.476 OA
BRANCH  18  20
ATOM     19  N   UNL     1      33.448 -15.879 -25.384  0.00  0.00    -0.239 NA
ATOM     20  C   UNL     1      34.911 -16.369 -23.539  0.00  0.00    +0.158 C 
ATOM     21  C   UNL     1      34.730 -15.098 -23.026  0.00  0.00    +0.040 C 
ATOM     22  C   UNL     1      34.263 -16.718 -24.704  0.00  0.00    +0.136 C 
ATOM     23  C   UNL     1      33.898 -14.208 -23.697  0.00  0.00    +0.022 C 
ATOM     24  C   UNL     1      33.287 -14.643 -24.861  0.00  0.00    +0.099 C 
BRANCH  23  25
ATOM     25  C   UNL     1      33.679 -12.864 -23.194  0.00  0.00    +0.002 C 
ATOM     26  C   UNL     1      33.786 -11.727 -23.925  0.00  0.00    +0.000 C 
BRANCH  26  28
ATOM     27  N   UNL     1      33.093  -7.797 -22.463  0.00  0.00    -0.242 NA
ATOM     28  C   UNL     1      33.545 -10.363 -23.419  0.00  0.00    +0.003 C 
ATOM     29  C   UNL     1      32.314 -10.047 -22.880  0.00  0.00    +0.021 C 
ATOM     30  C   UNL     1      34.556  -9.425 -23.491  0.00  0.00    +0.021 C 
ATOM     31  C   UNL     1      32.139  -8.753 -22.417  0.00  0.00    +0.099 C 
ATOM     32  C   UNL     1      34.280  -8.159 -23.001  0.00  0.00    +0.099 C 
ENDBRANCH  26  28
ENDBRANCH  23  25
ENDBRANCH  18  20
ENDBRANCH  17  18
ENDBRANCH   1  17
TORSDOF 8
ENDMDL
MODEL 9
REMARK VINA RESULT:     -10.8      3.583      6.938
REMARK  Name = 6914613
REMARK  8 active torsions:
REMARK  status: ('A' for Active; 'I' for Inactive)
REMARK    1  A    between atoms: C_1  and  N_2
REMARK    2  A    between atoms: C_1  and  C_6
REMARK    3  A    between atoms: C_1  and  C_17
REMARK    4  A    between atoms: C_6  and  C_8
REMARK    5  A    between atoms: C_17  and  O_18
REMARK    6  A    between atoms: O_18  and  C_20
REMARK    7  A    between atoms: C_23  and  C_25
REMARK    8  A    between atoms: C_26  and  C_28
REMARK                            x       y       z     vdW  Elec       q    Type
REMARK                         _______ _______ _______ _____ _____    ______ ____
ROOT
ATOM      1  C   UNL     1      35.906 -18.745 -20.814  0.00  0.00    -0.017 C 
ENDROOT
BRANCH   1   2
ATOM      2  N   UNL     1      37.337 -19.049 -20.697  0.00  0.00    +0.384 N 
ATOM      3  H   UNL     1      37.513 -19.993 -21.041  0.00  0.00    -0.089 HD
ATOM      4  H   UNL     1      37.619 -18.987 -19.718  0.00  0.00    -0.089 HD
ATOM      5  H   UNL     1      37.873 -18.380 -21.248  0.00  0.00    -0.089 HD
ENDBRANCH   1   2
BRANCH   1   6
ATOM      6  C   UNL     1      35.640 -18.032 -22.166  0.00  0.00    +0.009 C 
BRANCH   6   8
ATOM      7  N   UNL     1      34.471 -14.716 -21.180  0.00  0.00    -0.312 N 
ATOM      8  C   UNL     1      35.091 -16.667 -22.041  0.00  0.00    -0.008 C 
ATOM      9  C   UNL     1      34.507 -15.888 -23.079  0.00  0.00    +0.011 C 
ATOM     10  C   UNL     1      34.127 -14.669 -22.514  0.00  0.00    +0.048 C 
ATOM     11  C   UNL     1      35.054 -15.919 -20.886  0.00  0.00    +0.058 C 
ATOM     12  C   UNL     1      34.265 -16.104 -24.450  0.00  0.00    +0.001 C 
ATOM     13  C   UNL     1      33.514 -13.652 -23.253  0.00  0.00    +0.015 C 
ATOM     14  C   UNL     1      33.653 -15.095 -25.203  0.00  0.00    +0.000 C 
ATOM     15  C   UNL     1      33.284 -13.889 -24.611  0.00  0.00    +0.001 C 
ATOM     16  H   UNL     1      34.319 -13.990 -20.534  0.00  0.00    +0.152 HD
ENDBRANCH   6   8
ENDBRANCH   1   6
BRANCH   1  17
ATOM     17  C   UNL     1      35.113 -20.046 -20.640  0.00  0.00    +0.184 C 
BRANCH  17  18
ATOM     18  O   UNL     1      35.938 -21.112 -20.188  0.00  0.00    -0.476 OA
BRANCH  18  20
ATOM     19  N   UNL     1      36.404 -22.191 -16.738  0.00  0.00    -0.239 NA
ATOM     20  C   UNL     1      35.652 -21.635 -18.954  0.00  0.00    +0.158 C 
ATOM     21  C   UNL     1      34.388 -22.122 -18.673  0.00  0.00    +0.040 C 
ATOM     22  C   UNL     1      36.619 -21.686 -17.975  0.00  0.00    +0.136 C 
ATOM     23  C   UNL     1      34.129 -22.648 -17.412  0.00  0.00    +0.022 C 
ATOM     24  C   UNL     1      35.162 -22.660 -16.490  0.00  0.00    +0.099 C 
BRANCH  23  25
ATOM     25  C   UNL     1      32.817 -23.170 -17.075  0.00  0.00    +0.002 C 
ATOM     26  C   UNL     1      32.194 -23.013 -15.881  0.00  0.00    +0.000 C 
BRANCH  26  28
ATOM     27  N   UNL     1      28.331 -24.495 -14.913  0.00  0.00    -0.242 NA
ATOM     28  C   UNL     1      30.855 -23.526 -15.544  0.00  0.00    +0.003 C 
ATOM     29  C   UNL     1      29.737 -22.862 -16.008  0.00  0.00    +0.021 C 
ATOM     30  C   UNL     1      30.738 -24.665 -14.771  0.00  0.00    +0.021 C 
ATOM     31  C   UNL     1      28.501 -23.385 -15.666  0.00  0.00    +0.099 C 
ATOM     32  C   UNL     1      29.458 -25.107 -14.484  0.00  0.00    +0.099 C 
ENDBRANCH  26  28
ENDBRANCH  23  25
ENDBRANCH  18  20
ENDBRANCH  17  18
ENDBRANCH   1  17
TORSDOF 8
ENDMDL
