MODEL 1
REMARK VINA RESULT:     -10.8      0.000      0.000
REMARK  Name = 6914568
REMARK  4 active torsions:
REMARK  status: ('A' for Active; 'I' for Inactive)
REMARK    1  A    between atoms: C_3  and  C_14
REMARK    2  A    between atoms: C_7  and  N_26
REMARK    3  A    between atoms: C_11  and  N_17
REMARK    4  A    between atoms: C_27  and  C_30
REMARK                            x       y       z     vdW  Elec       q    Type
REMARK                         _______ _______ _______ _____ _____    ______ ____
ROOT
ATOM      1  N   UNL     1      36.945 -24.325 -13.954  0.00  0.00    -0.296 N 
ATOM      2  N   UNL     1      37.899 -22.898 -15.645  0.00  0.00    -0.229 NA
ATOM      3  C   UNL     1      36.245 -22.008 -17.203  0.00  0.00    +0.019 C 
ATOM      4  C   UNL     1      35.520 -23.454 -15.436  0.00  0.00    +0.046 C 
ATOM      5  C   UNL     1      35.202 -22.667 -16.555  0.00  0.00    +0.006 C 
ATOM      6  C   UNL     1      36.857 -23.515 -15.056  0.00  0.00    +0.133 C 
ATOM      7  C   UNL     1      34.794 -24.261 -14.522  0.00  0.00    +0.068 C 
ATOM      8  C   UNL     1      37.535 -22.155 -16.715  0.00  0.00    +0.100 C 
ATOM      9  C   UNL     1      35.697 -24.785 -13.621  0.00  0.00    +0.078 C 
ATOM     10  H   UNL     1      37.777 -24.545 -13.475  0.00  0.00    +0.154 HD
ENDROOT
BRANCH   3  14
ATOM     11  C   UNL     1      35.474 -19.574 -20.618  0.00  0.00    +0.048 C 
ATOM     12  C   UNL     1      36.728 -19.548 -19.977  0.00  0.00    +0.015 C 
ATOM     13  C   UNL     1      34.482 -20.428 -20.098  0.00  0.00    +0.015 C 
ATOM     14  C   UNL     1      35.984 -21.183 -18.362  0.00  0.00    +0.002 C 
ATOM     15  C   UNL     1      36.980 -20.345 -18.861  0.00  0.00    +0.001 C 
ATOM     16  C   UNL     1      34.734 -21.225 -18.981  0.00  0.00    +0.001 C 
BRANCH  11  17
ATOM     17  N   UNL     1      35.221 -18.774 -21.738  0.00  0.00    -0.312 N 
ATOM     18  N   UNL     1      34.960 -17.158 -24.079  0.00  0.00    +0.388 N 
ATOM     19  C   UNL     1      34.988 -19.403 -23.043  0.00  0.00    +0.068 C 
ATOM     20  C   UNL     1      35.817 -17.432 -21.777  0.00  0.00    +0.068 C 
ATOM     21  C   UNL     1      34.253 -18.441 -23.979  0.00  0.00    -0.056 C 
ATOM     22  C   UNL     1      35.053 -16.534 -22.754  0.00  0.00    -0.056 C 
ATOM     23  C   UNL     1      34.277 -16.268 -25.017  0.00  0.00    -0.101 C 
ATOM     24  H   UNL     1      35.902 -17.328 -24.431  0.00  0.00    -0.080 HD
ENDBRANCH  11  17
ENDBRANCH   3  14
BRANCH   7  26
ATOM     25  O   UNL     1      32.521 -22.347 -14.264  0.00  0.00    -0.270 OA
ATOM     26  N   UNL     1      33.439 -24.501 -14.506  0.00  0.00    -0.279 N 
ATOM     27  C   UNL     1      32.404 -23.563 -14.381  0.00  0.00    +0.251 C 
ATOM     28  H   UNL     1      33.164 -25.442 -14.592  0.00  0.00    +0.155 HD
BRANCH  27  30
ATOM     29  N   UNL     1      29.551 -25.930 -13.917  0.00  0.00    -0.242 NA
ATOM     30  C   UNL     1      31.027 -24.121 -14.426  0.00  0.00    +0.073 C 
ATOM     31  C   UNL     1      30.010 -23.389 -14.988  0.00  0.00    +0.008 C 
ATOM     32  C   UNL     1      30.779 -25.363 -13.908  0.00  0.00    +0.103 C 
ATOM     33  C   UNL     1      28.733 -23.938 -15.016  0.00  0.00    +0.021 C 
ATOM     34  C   UNL     1      28.558 -25.200 -14.473  0.00  0.00    +0.099 C 
ENDBRANCH  27  30
ENDBRANCH   7  26
TORSDOF 4
ENDMDL
MODEL 2
REMARK VINA RESULT:      -9.7      9.702     14.659
REMARK  Name = 6914568
REMARK  4 active torsions:
REMARK  status: ('A' for Active; 'I' for Inactive)
REMARK    1  A    between atoms: C_3  and  C_14
REMARK    2  A    between atoms: C_7  and  N_26
REMARK    3  A    between atoms: C_11  and  N_17
REMARK    4  A    between atoms: C_27  and  C_30
REMARK                            x       y       z     vdW  Elec       q    Type
REMARK                         _______ _______ _______ _____ _____    ______ ____
ROOT
ATOM      1  N   UNL     1      31.102 -10.682 -19.959  0.00  0.00    -0.296 N 
ATOM      2  N   UNL     1      31.551  -8.408 -20.619  0.00  0.00    -0.229 NA
ATOM      3  C   UNL     1      32.897  -8.241 -22.648  0.00  0.00    +0.019 C 
ATOM      4  C   UNL     1      32.328 -10.409 -21.805  0.00  0.00    +0.046 C 
ATOM      5  C   UNL     1      32.974  -9.626 -22.776  0.00  0.00    +0.006 C 
ATOM      6  C   UNL     1      31.656  -9.740 -20.787  0.00  0.00    +0.133 C 
ATOM      7  C   UNL     1      32.163 -11.799 -21.565  0.00  0.00    +0.068 C 
ATOM      8  C   UNL     1      32.191  -7.704 -21.581  0.00  0.00    +0.100 C 
ATOM      9  C   UNL     1      31.404 -11.936 -20.422  0.00  0.00    +0.078 C 
ATOM     10  H   UNL     1      30.569 -10.487 -19.153  0.00  0.00    +0.154 HD
ENDROOT
BRANCH   3  14
ATOM     11  C   UNL     1      34.795  -5.697 -25.495  0.00  0.00    +0.048 C 
ATOM     12  C   UNL     1      35.475  -6.124 -24.338  0.00  0.00    +0.015 C 
ATOM     13  C   UNL     1      33.471  -6.135 -25.685  0.00  0.00    +0.015 C 
ATOM     14  C   UNL     1      33.541  -7.379 -23.614  0.00  0.00    +0.002 C 
ATOM     15  C   UNL     1      34.854  -6.957 -23.407  0.00  0.00    +0.001 C 
ATOM     16  C   UNL     1      32.850  -6.968 -24.754  0.00  0.00    +0.001 C 
BRANCH  11  17
ATOM     17  N   UNL     1      35.419  -4.861 -26.428  0.00  0.00    -0.312 N 
ATOM     18  N   UNL     1      36.525  -3.248 -28.510  0.00  0.00    +0.388 N 
ATOM     19  C   UNL     1      34.852  -3.538 -26.713  0.00  0.00    +0.068 C 
ATOM     20  C   UNL     1      36.155  -5.488 -27.534  0.00  0.00    +0.068 C 
ATOM     21  C   UNL     1      35.910  -2.622 -27.333  0.00  0.00    -0.056 C 
ATOM     22  C   UNL     1      37.171  -4.508 -28.126  0.00  0.00    -0.056 C 
ATOM     23  C   UNL     1      37.495  -2.342 -29.124  0.00  0.00    -0.101 C 
ATOM     24  H   UNL     1      35.797  -3.446 -29.196  0.00  0.00    -0.080 HD
ENDBRANCH  11  17
ENDBRANCH   3  14
BRANCH   7  26
ATOM     25  O   UNL     1      34.482 -13.597 -21.035  0.00  0.00    -0.270 OA
ATOM     26  N   UNL     1      32.655 -12.844 -22.313  0.00  0.00    -0.279 N 
ATOM     27  C   UNL     1      33.755 -13.664 -22.021  0.00  0.00    +0.251 C 
ATOM     28  H   UNL     1      32.179 -13.039 -23.152  0.00  0.00    +0.155 HD
BRANCH  27  30
ATOM     29  N   UNL     1      33.729 -15.587 -25.223  0.00  0.00    -0.242 NA
ATOM     30  C   UNL     1      34.032 -14.738 -23.010  0.00  0.00    +0.073 C 
ATOM     31  C   UNL     1      34.802 -15.816 -22.652  0.00  0.00    +0.008 C 
ATOM     32  C   UNL     1      33.516 -14.647 -24.275  0.00  0.00    +0.103 C 
ATOM     33  C   UNL     1      35.044 -16.805 -23.600  0.00  0.00    +0.021 C 
ATOM     34  C   UNL     1      34.489 -16.644 -24.859  0.00  0.00    +0.099 C 
ENDBRANCH  27  30
ENDBRANCH   7  26
TORSDOF 4
ENDMDL
MODEL 3
REMARK VINA RESULT:      -9.6      2.238      5.118
REMARK  Name = 6914568
REMARK  4 active torsions:
REMARK  status: ('A' for Active; 'I' for Inactive)
REMARK    1  A    between atoms: C_3  and  C_14
REMARK    2  A    between atoms: C_7  and  N_26
REMARK    3  A    between atoms: C_11  and  N_17
REMARK    4  A    between atoms: C_27  and  C_30
REMARK                            x       y       z     vdW  Elec       q    Type
REMARK                         _______ _______ _______ _____ _____    ______ ____
ROOT
ATOM      1  N   UNL     1      31.970 -24.909 -13.995  0.00  0.00    -0.296 N 
ATOM      2  N   UNL     1      31.166 -23.551 -15.816  0.00  0.00    -0.229 NA
ATOM      3  C   UNL     1      32.957 -22.527 -17.120  0.00  0.00    +0.019 C 
ATOM      4  C   UNL     1      33.524 -23.921 -15.257  0.00  0.00    +0.046 C 
ATOM      5  C   UNL     1      33.942 -23.107 -16.323  0.00  0.00    +0.006 C 
ATOM      6  C   UNL     1      32.155 -24.087 -15.077  0.00  0.00    +0.133 C 
ATOM      7  C   UNL     1      34.169 -24.673 -14.240  0.00  0.00    +0.068 C 
ATOM      8  C   UNL     1      31.625 -22.778 -16.828  0.00  0.00    +0.100 C 
ATOM      9  C   UNL     1      33.187 -25.270 -13.479  0.00  0.00    +0.078 C 
ATOM     10  H   UNL     1      31.096 -25.194 -13.642  0.00  0.00    +0.154 HD
ENDROOT
BRANCH   3  14
ATOM     11  C   UNL     1      34.030 -20.022 -20.400  0.00  0.00    +0.048 C 
ATOM     12  C   UNL     1      35.007 -20.753 -19.696  0.00  0.00    +0.015 C 
ATOM     13  C   UNL     1      32.688 -20.145 -19.990  0.00  0.00    +0.015 C 
ATOM     14  C   UNL     1      33.321 -21.678 -18.233  0.00  0.00    +0.002 C 
ATOM     15  C   UNL     1      34.656 -21.572 -18.624  0.00  0.00    +0.001 C 
ATOM     16  C   UNL     1      32.337 -20.964 -18.918  0.00  0.00    +0.001 C 
BRANCH  11  17
ATOM     17  N   UNL     1      34.383 -19.200 -21.476  0.00  0.00    -0.312 N 
ATOM     18  N   UNL     1      35.346 -17.609 -23.644  0.00  0.00    +0.388 N 
ATOM     19  C   UNL     1      34.426 -19.756 -22.833  0.00  0.00    +0.068 C 
ATOM     20  C   UNL     1      35.298 -18.081 -21.218  0.00  0.00    +0.068 C 
ATOM     21  C   UNL     1      34.326 -18.639 -23.874  0.00  0.00    -0.056 C 
ATOM     22  C   UNL     1      35.168 -17.018 -22.312  0.00  0.00    -0.056 C 
ATOM     23  C   UNL     1      35.275 -16.576 -24.676  0.00  0.00    -0.101 C 
ATOM     24  H   UNL     1      36.269 -18.043 -23.692  0.00  0.00    -0.080 HD
ENDBRANCH  11  17
ENDBRANCH   3  14
BRANCH   7  26
ATOM     25  O   UNL     1      36.085 -26.691 -15.314  0.00  0.00    -0.270 OA
ATOM     26  N   UNL     1      35.522 -24.806 -14.023  0.00  0.00    -0.279 N 
ATOM     27  C   UNL     1      36.384 -25.777 -14.553  0.00  0.00    +0.251 C 
ATOM     28  H   UNL     1      35.932 -24.141 -13.425  0.00  0.00    +0.155 HD
BRANCH  27  30
ATOM     29  N   UNL     1      39.437 -24.661 -12.712  0.00  0.00    -0.242 NA
ATOM     30  C   UNL     1      37.811 -25.648 -14.159  0.00  0.00    +0.073 C 
ATOM     31  C   UNL     1      38.774 -26.353 -14.836  0.00  0.00    +0.008 C 
ATOM     32  C   UNL     1      38.158 -24.825 -13.122  0.00  0.00    +0.103 C 
ATOM     33  C   UNL     1      40.101 -26.212 -14.444  0.00  0.00    +0.021 C 
ATOM     34  C   UNL     1      40.377 -25.361 -13.386  0.00  0.00    +0.099 C 
ENDBRANCH  27  30
ENDBRANCH   7  26
TORSDOF 4
ENDMDL
MODEL 4
REMARK VINA RESULT:      -9.5      9.752     16.992
REMARK  Name = 6914568
REMARK  4 active torsions:
REMARK  status: ('A' for Active; 'I' for Inactive)
REMARK    1  A    between atoms: C_3  and  C_14
REMARK    2  A    between atoms: C_7  and  N_26
REMARK    3  A    between atoms: C_11  and  N_17
REMARK    4  A    between atoms: C_27  and  C_30
REMARK                            x       y       z     vdW  Elec       q    Type
REMARK                         _______ _______ _______ _____ _____    ______ ____
ROOT
ATOM      1  N   UNL     1      31.192  -5.017 -21.382  0.00  0.00    -0.296 N 
ATOM      2  N   UNL     1      31.593  -7.230 -20.519  0.00  0.00    -0.229 NA
ATOM      3  C   UNL     1      32.227  -8.837 -22.244  0.00  0.00    +0.019 C 
ATOM      4  C   UNL     1      31.779  -6.570 -22.874  0.00  0.00    +0.046 C 
ATOM      5  C   UNL     1      32.144  -7.874 -23.247  0.00  0.00    +0.006 C 
ATOM      6  C   UNL     1      31.527  -6.338 -21.526  0.00  0.00    +0.133 C 
ATOM      7  C   UNL     1      31.583  -5.337 -23.549  0.00  0.00    +0.068 C 
ATOM      8  C   UNL     1      31.949  -8.468 -20.936  0.00  0.00    +0.100 C 
ATOM      9  C   UNL     1      31.222  -4.399 -22.605  0.00  0.00    +0.078 C 
ATOM     10  H   UNL     1      30.963  -4.578 -20.530  0.00  0.00    +0.154 HD
ENDROOT
BRANCH   3  14
ATOM     11  C   UNL     1      33.321 -12.850 -23.183  0.00  0.00    +0.048 C 
ATOM     12  C   UNL     1      32.422 -12.570 -22.135  0.00  0.00    +0.015 C 
ATOM     13  C   UNL     1      33.847 -11.766 -23.912  0.00  0.00    +0.015 C 
ATOM     14  C   UNL     1      32.597 -10.199 -22.563  0.00  0.00    +0.002 C 
ATOM     15  C   UNL     1      32.064 -11.258 -21.829  0.00  0.00    +0.001 C 
ATOM     16  C   UNL     1      33.489 -10.453 -23.605  0.00  0.00    +0.001 C 
BRANCH  11  17
ATOM     17  N   UNL     1      33.681 -14.167 -23.490  0.00  0.00    -0.312 N 
ATOM     18  N   UNL     1      34.595 -16.757 -24.276  0.00  0.00    +0.388 N 
ATOM     19  C   UNL     1      34.789 -14.805 -22.771  0.00  0.00    +0.068 C 
ATOM     20  C   UNL     1      33.456 -14.643 -24.861  0.00  0.00    +0.068 C 
ATOM     21  C   UNL     1      34.690 -16.329 -22.875  0.00  0.00    -0.056 C 
ATOM     22  C   UNL     1      33.400 -16.172 -24.896  0.00  0.00    -0.056 C 
ATOM     23  C   UNL     1      34.555 -18.216 -24.364  0.00  0.00    -0.101 C 
ATOM     24  H   UNL     1      35.420 -16.430 -24.778  0.00  0.00    -0.080 HD
ENDBRANCH  11  17
ENDBRANCH   3  14
BRANCH   7  26
ATOM     25  O   UNL     1      34.047  -5.196 -25.224  0.00  0.00    -0.270 OA
ATOM     26  N   UNL     1      31.719  -5.086 -24.895  0.00  0.00    -0.279 N 
ATOM     27  C   UNL     1      32.905  -5.029 -25.641  0.00  0.00    +0.251 C 
ATOM     28  H   UNL     1      30.885  -4.927 -25.393  0.00  0.00    +0.155 HD
BRANCH  27  30
ATOM     29  N   UNL     1      31.706  -3.462 -28.813  0.00  0.00    -0.242 NA
ATOM     30  C   UNL     1      32.734  -4.764 -27.094  0.00  0.00    +0.073 C 
ATOM     31  C   UNL     1      33.405  -5.532 -28.013  0.00  0.00    +0.008 C 
ATOM     32  C   UNL     1      31.907  -3.756 -27.509  0.00  0.00    +0.103 C 
ATOM     33  C   UNL     1      33.225  -5.261 -29.365  0.00  0.00    +0.021 C 
ATOM     34  C   UNL     1      32.373  -4.225 -29.709  0.00  0.00    +0.099 C 
ENDBRANCH  27  30
ENDBRANCH   7  26
TORSDOF 4
ENDMDL
MODEL 5
REMARK VINA RESULT:      -9.5      8.768     16.473
REMARK  Name = 6914568
REMARK  4 active torsions:
REMARK  status: ('A' for Active; 'I' for Inactive)
REMARK    1  A    between atoms: C_3  and  C_14
REMARK    2  A    between atoms: C_7  and  N_26
REMARK    3  A    between atoms: C_11  and  N_17
REMARK    4  A    between atoms: C_27  and  C_30
REMARK                            x       y       z     vdW  Elec       q    Type
REMARK                         _______ _______ _______ _____ _____    ______ ____
ROOT
ATOM      1  N   UNL     1      31.092  -5.932 -22.550  0.00  0.00    -0.296 N 
ATOM      2  N   UNL     1      31.207  -8.039 -21.387  0.00  0.00    -0.229 NA
ATOM      3  C   UNL     1      32.404  -9.764 -22.632  0.00  0.00    +0.019 C 
ATOM      4  C   UNL     1      32.166  -7.585 -23.597  0.00  0.00    +0.046 C 
ATOM      5  C   UNL     1      32.652  -8.899 -23.696  0.00  0.00    +0.006 C 
ATOM      6  C   UNL     1      31.472  -7.244 -22.441  0.00  0.00    +0.133 C 
ATOM      7  C   UNL     1      32.193  -6.427 -24.419  0.00  0.00    +0.068 C 
ATOM      8  C   UNL     1      31.698  -9.291 -21.535  0.00  0.00    +0.100 C 
ATOM      9  C   UNL     1      31.524  -5.426 -23.748  0.00  0.00    +0.078 C 
ATOM     10  H   UNL     1      30.584  -5.429 -21.871  0.00  0.00    +0.154 HD
ENDROOT
BRANCH   3  14
ATOM     11  C   UNL     1      33.801 -13.791 -22.748  0.00  0.00    +0.048 C 
ATOM     12  C   UNL     1      32.909 -13.361 -21.745  0.00  0.00    +0.015 C 
ATOM     13  C   UNL     1      34.216 -12.851 -23.712  0.00  0.00    +0.015 C 
ATOM     14  C   UNL     1      32.877 -11.130 -22.672  0.00  0.00    +0.002 C 
ATOM     15  C   UNL     1      32.452 -12.044 -21.708  0.00  0.00    +0.001 C 
ATOM     16  C   UNL     1      33.759 -11.534 -23.674  0.00  0.00    +0.001 C 
BRANCH  11  17
ATOM     17  N   UNL     1      34.260 -15.112 -22.785  0.00  0.00    -0.312 N 
ATOM     18  N   UNL     1      35.425 -17.716 -22.940  0.00  0.00    +0.388 N 
ATOM     19  C   UNL     1      34.989 -15.661 -21.636  0.00  0.00    +0.068 C 
ATOM     20  C   UNL     1      34.607 -15.687 -24.091  0.00  0.00    +0.068 C 
ATOM     21  C   UNL     1      34.948 -17.191 -21.655  0.00  0.00    -0.056 C 
ATOM     22  C   UNL     1      34.577 -17.216 -24.029  0.00  0.00    -0.056 C 
ATOM     23  C   UNL     1      35.431 -19.178 -22.927  0.00  0.00    -0.101 C 
ATOM     24  H   UNL     1      36.381 -17.395 -23.093  0.00  0.00    -0.080 HD
ENDBRANCH  11  17
ENDBRANCH   3  14
BRANCH   7  26
ATOM     25  O   UNL     1      34.947  -5.550 -25.156  0.00  0.00    -0.270 OA
ATOM     26  N   UNL     1      32.771  -6.292 -25.661  0.00  0.00    -0.279 N 
ATOM     27  C   UNL     1      34.076  -5.873 -25.958  0.00  0.00    +0.251 C 
ATOM     28  H   UNL     1      32.201  -6.515 -26.431  0.00  0.00    +0.155 HD
BRANCH  27  30
ATOM     29  N   UNL     1      36.128  -5.789 -29.078  0.00  0.00    -0.242 NA
ATOM     30  C   UNL     1      34.427  -5.853 -27.402  0.00  0.00    +0.073 C 
ATOM     31  C   UNL     1      33.432  -5.877 -28.348  0.00  0.00    +0.008 C 
ATOM     32  C   UNL     1      35.741  -5.810 -27.783  0.00  0.00    +0.103 C 
ATOM     33  C   UNL     1      33.791  -5.857 -29.691  0.00  0.00    +0.021 C 
ATOM     34  C   UNL     1      35.140  -5.814 -30.000  0.00  0.00    +0.099 C 
ENDBRANCH  27  30
ENDBRANCH   7  26
TORSDOF 4
ENDMDL
MODEL 6
REMARK VINA RESULT:      -9.2      3.776     10.490
REMARK  Name = 6914568
REMARK  4 active torsions:
REMARK  status: ('A' for Active; 'I' for Inactive)
REMARK    1  A    between atoms: C_3  and  C_14
REMARK    2  A    between atoms: C_7  and  N_26
REMARK    3  A    between atoms: C_11  and  N_17
REMARK    4  A    between atoms: C_27  and  C_30
REMARK                            x       y       z     vdW  Elec       q    Type
REMARK                         _______ _______ _______ _____ _____    ______ ____
ROOT
ATOM      1  N   UNL     1      34.798 -16.965 -24.904  0.00  0.00    -0.296 N 
ATOM      2  N   UNL     1      35.397 -19.118 -24.004  0.00  0.00    -0.229 NA
ATOM      3  C   UNL     1      35.127 -19.260 -21.582  0.00  0.00    +0.019 C 
ATOM      4  C   UNL     1      34.590 -17.208 -22.695  0.00  0.00    +0.046 C 
ATOM      5  C   UNL     1      34.678 -17.944 -21.501  0.00  0.00    +0.006 C 
ATOM      6  C   UNL     1      34.958 -17.852 -23.872  0.00  0.00    +0.133 C 
ATOM      7  C   UNL     1      34.199 -15.890 -23.050  0.00  0.00    +0.068 C 
ATOM      8  C   UNL     1      35.461 -19.779 -22.825  0.00  0.00    +0.100 C 
ATOM      9  C   UNL     1      34.337 -15.770 -24.416  0.00  0.00    +0.078 C 
ATOM     10  H   UNL     1      34.986 -17.157 -25.852  0.00  0.00    +0.154 HD
ENDROOT
BRANCH   3  14
ATOM     11  C   UNL     1      35.463 -21.652 -18.068  0.00  0.00    +0.048 C 
ATOM     12  C   UNL     1      36.583 -20.985 -18.601  0.00  0.00    +0.015 C 
ATOM     13  C   UNL     1      34.228 -21.504 -18.729  0.00  0.00    +0.015 C 
ATOM     14  C   UNL     1      35.241 -20.070 -20.389  0.00  0.00    +0.002 C 
ATOM     15  C   UNL     1      36.473 -20.203 -19.750  0.00  0.00    +0.001 C 
ATOM     16  C   UNL     1      34.118 -20.721 -19.878  0.00  0.00    +0.001 C 
BRANCH  11  17
ATOM     17  N   UNL     1      35.574 -22.437 -16.915  0.00  0.00    -0.312 N 
ATOM     18  N   UNL     1      35.763 -23.823 -14.424  0.00  0.00    +0.388 N 
ATOM     19  C   UNL     1      34.363 -22.956 -16.269  0.00  0.00    +0.068 C 
ATOM     20  C   UNL     1      36.717 -22.198 -16.024  0.00  0.00    +0.068 C 
ATOM     21  C   UNL     1      34.700 -24.156 -15.381  0.00  0.00    -0.056 C 
ATOM     22  C   UNL     1      36.978 -23.425 -15.146  0.00  0.00    -0.056 C 
ATOM     23  C   UNL     1      36.038 -24.960 -13.547  0.00  0.00    -0.101 C 
ATOM     24  H   UNL     1      35.452 -23.043 -13.845  0.00  0.00    -0.080 HD
ENDBRANCH  11  17
ENDBRANCH   3  14
BRANCH   7  26
ATOM     25  O   UNL     1      32.637 -13.428 -23.677  0.00  0.00    -0.270 OA
ATOM     26  N   UNL     1      33.757 -14.891 -22.213  0.00  0.00    -0.279 N 
ATOM     27  C   UNL     1      33.023 -13.747 -22.557  0.00  0.00    +0.251 C 
ATOM     28  H   UNL     1      33.984 -14.991 -21.261  0.00  0.00    +0.155 HD
BRANCH  27  30
ATOM     29  N   UNL     1      31.935 -10.702 -20.686  0.00  0.00    -0.242 NA
ATOM     30  C   UNL     1      32.663 -12.854 -21.424  0.00  0.00    +0.073 C 
ATOM     31  C   UNL     1      32.721 -13.327 -20.136  0.00  0.00    +0.008 C 
ATOM     32  C   UNL     1      32.275 -11.565 -21.669  0.00  0.00    +0.103 C 
ATOM     33  C   UNL     1      32.379 -12.469 -19.097  0.00  0.00    +0.021 C 
ATOM     34  C   UNL     1      31.996 -11.179 -19.422  0.00  0.00    +0.099 C 
ENDBRANCH  27  30
ENDBRANCH   7  26
TORSDOF 4
ENDMDL
MODEL 7
REMARK VINA RESULT:      -8.7      9.683     17.479
REMARK  Name = 6914568
REMARK  4 active torsions:
REMARK  status: ('A' for Active; 'I' for Inactive)
REMARK    1  A    between atoms: C_3  and  C_14
REMARK    2  A    between atoms: C_7  and  N_26
REMARK    3  A    between atoms: C_11  and  N_17
REMARK    4  A    between atoms: C_27  and  C_30
REMARK                            x       y       z     vdW  Elec       q    Type
REMARK                         _______ _______ _______ _____ _____    ______ ____
ROOT
ATOM      1  N   UNL     1      31.011  -4.551 -23.186  0.00  0.00    -0.296 N 
ATOM      2  N   UNL     1      30.870  -6.682 -22.071  0.00  0.00    -0.229 NA
ATOM      3  C   UNL     1      32.216  -8.419 -23.134  0.00  0.00    +0.019 C 
ATOM      4  C   UNL     1      32.204  -6.216 -24.075  0.00  0.00    +0.046 C 
ATOM      5  C   UNL     1      32.664  -7.543 -24.120  0.00  0.00    +0.006 C 
ATOM      6  C   UNL     1      31.332  -5.876 -23.046  0.00  0.00    +0.133 C 
ATOM      7  C   UNL     1      32.401  -5.045 -24.852  0.00  0.00    +0.068 C 
ATOM      8  C   UNL     1      31.346  -7.946 -22.163  0.00  0.00    +0.100 C 
ATOM      9  C   UNL     1      31.655  -4.037 -24.281  0.00  0.00    +0.078 C 
ATOM     10  H   UNL     1      30.409  -4.047 -22.592  0.00  0.00    +0.154 HD
ENDROOT
BRANCH   3  14
ATOM     11  C   UNL     1      33.501 -12.485 -23.109  0.00  0.00    +0.048 C 
ATOM     12  C   UNL     1      34.247 -11.492 -23.775  0.00  0.00    +0.015 C 
ATOM     13  C   UNL     1      32.319 -12.094 -22.451  0.00  0.00    +0.015 C 
ATOM     14  C   UNL     1      32.652  -9.798 -23.125  0.00  0.00    +0.002 C 
ATOM     15  C   UNL     1      33.827 -10.163 -23.783  0.00  0.00    +0.001 C 
ATOM     16  C   UNL     1      31.899 -10.764 -22.458  0.00  0.00    +0.001 C 
BRANCH  11  17
ATOM     17  N   UNL     1      33.923 -13.819 -23.102  0.00  0.00    -0.312 N 
ATOM     18  N   UNL     1      34.554 -16.603 -22.986  0.00  0.00    +0.388 N 
ATOM     19  C   UNL     1      33.564 -14.701 -24.217  0.00  0.00    +0.068 C 
ATOM     20  C   UNL     1      34.105 -14.479 -21.803  0.00  0.00    +0.068 C 
ATOM     21  C   UNL     1      34.507 -15.905 -24.277  0.00  0.00    -0.056 C 
ATOM     22  C   UNL     1      35.032 -15.689 -21.941  0.00  0.00    -0.056 C 
ATOM     23  C   UNL     1      35.416 -17.780 -23.070  0.00  0.00    -0.101 C 
ATOM     24  H   UNL     1      33.612 -16.914 -22.746  0.00  0.00    -0.080 HD
ENDBRANCH  11  17
ENDBRANCH   3  14
BRANCH   7  26
ATOM     25  O   UNL     1      35.335  -5.461 -25.193  0.00  0.00    -0.270 OA
ATOM     26  N   UNL     1      33.186  -4.904 -25.974  0.00  0.00    -0.279 N 
ATOM     27  C   UNL     1      34.569  -5.112 -26.085  0.00  0.00    +0.251 C 
ATOM     28  H   UNL     1      32.722  -4.625 -26.796  0.00  0.00    +0.155 HD
BRANCH  27  30
ATOM     29  N   UNL     1      37.078  -4.706 -28.822  0.00  0.00    -0.242 NA
ATOM     30  C   UNL     1      35.138  -4.908 -27.443  0.00  0.00    +0.073 C 
ATOM     31  C   UNL     1      34.300  -4.740 -28.518  0.00  0.00    +0.008 C 
ATOM     32  C   UNL     1      36.495  -4.887 -27.616  0.00  0.00    +0.103 C 
ATOM     33  C   UNL     1      34.862  -4.551 -29.776  0.00  0.00    +0.021 C 
ATOM     34  C   UNL     1      36.243  -4.542 -29.873  0.00  0.00    +0.099 C 
ENDBRANCH  27  30
ENDBRANCH   7  26
TORSDOF 4
ENDMDL
MODEL 8
REMARK VINA RESULT:      -8.2      1.945      2.743
REMARK  Name = 6914568
REMARK  4 active torsions:
REMARK  status: ('A' for Active; 'I' for Inactive)
REMARK    1  A    between atoms: C_3  and  C_14
REMARK    2  A    between atoms: C_7  and  N_26
REMARK    3  A    between atoms: C_11  and  N_17
REMARK    4  A    between atoms: C_27  and  C_30
REMARK                            x       y       z     vdW  Elec       q    Type
REMARK                         _______ _______ _______ _____ _____    ______ ____
ROOT
ATOM      1  N   UNL     1      33.544 -24.963 -14.256  0.00  0.00    -0.296 N 
ATOM      2  N   UNL     1      35.094 -24.050 -15.859  0.00  0.00    -0.229 NA
ATOM      3  C   UNL     1      34.068 -22.449 -17.390  0.00  0.00    +0.019 C 
ATOM      4  C   UNL     1      32.713 -23.485 -15.709  0.00  0.00    +0.046 C 
ATOM      5  C   UNL     1      32.819 -22.595 -16.790  0.00  0.00    +0.006 C 
ATOM      6  C   UNL     1      33.866 -24.156 -15.316  0.00  0.00    +0.133 C 
ATOM      7  C   UNL     1      31.671 -23.917 -14.847  0.00  0.00    +0.068 C 
ATOM      8  C   UNL     1      35.139 -23.180 -16.894  0.00  0.00    +0.100 C 
ATOM      9  C   UNL     1      32.212 -24.826 -13.963  0.00  0.00    +0.078 C 
ATOM     10  H   UNL     1      34.173 -25.552 -13.779  0.00  0.00    +0.154 HD
ENDROOT
BRANCH   3  14
ATOM     11  C   UNL     1      34.587 -19.793 -20.685  0.00  0.00    +0.048 C 
ATOM     12  C   UNL     1      35.698 -20.328 -20.003  0.00  0.00    +0.015 C 
ATOM     13  C   UNL     1      33.300 -20.161 -20.246  0.00  0.00    +0.015 C 
ATOM     14  C   UNL     1      34.245 -21.549 -18.508  0.00  0.00    +0.002 C 
ATOM     15  C   UNL     1      35.528 -21.197 -18.926  0.00  0.00    +0.001 C 
ATOM     16  C   UNL     1      33.131 -21.031 -19.169  0.00  0.00    +0.001 C 
BRANCH  11  17
ATOM     17  N   UNL     1      34.758 -18.920 -21.765  0.00  0.00    -0.312 N 
ATOM     18  N   UNL     1      35.352 -17.228 -23.988  0.00  0.00    +0.388 N 
ATOM     19  C   UNL     1      34.572 -19.412 -23.134  0.00  0.00    +0.068 C 
ATOM     20  C   UNL     1      35.709 -17.811 -21.613  0.00  0.00    +0.068 C 
ATOM     21  C   UNL     1      34.303 -18.249 -24.091  0.00  0.00    -0.056 C 
ATOM     22  C   UNL     1      35.402 -16.699 -22.620  0.00  0.00    -0.056 C 
ATOM     23  C   UNL     1      35.113 -16.148 -24.945  0.00  0.00    -0.101 C 
ATOM     24  H   UNL     1      36.251 -17.655 -24.210  0.00  0.00    -0.080 HD
ENDBRANCH  11  17
ENDBRANCH   3  14
BRANCH   7  26
ATOM     25  O   UNL     1      30.143 -22.441 -16.940  0.00  0.00    -0.270 OA
ATOM     26  N   UNL     1      30.352 -23.523 -14.861  0.00  0.00    -0.279 N 
ATOM     27  C   UNL     1      29.676 -22.826 -15.873  0.00  0.00    +0.251 C 
ATOM     28  H   UNL     1      29.821 -23.757 -14.066  0.00  0.00    +0.155 HD
BRANCH  27  30
ATOM     29  N   UNL     1      26.051 -22.178 -16.503  0.00  0.00    -0.242 NA
ATOM     30  C   UNL     1      28.236 -22.564 -15.616  0.00  0.00    +0.073 C 
ATOM     31  C   UNL     1      27.779 -22.467 -14.325  0.00  0.00    +0.008 C 
ATOM     32  C   UNL     1      27.372 -22.419 -16.667  0.00  0.00    +0.103 C 
ATOM     33  C   UNL     1      26.426 -22.220 -14.115  0.00  0.00    +0.021 C 
ATOM     34  C   UNL     1      25.613 -22.085 -15.228  0.00  0.00    +0.099 C 
ENDBRANCH  27  30
ENDBRANCH   7  26
TORSDOF 4
ENDMDL
MODEL 9
REMARK VINA RESULT:      -8.0      8.694     15.654
REMARK  Name = 6914568
REMARK  4 active torsions:
REMARK  status: ('A' for Active; 'I' for Inactive)
REMARK    1  A    between atoms: C_3  and  C_14
REMARK    2  A    between atoms: C_7  and  N_26
REMARK    3  A    between atoms: C_11  and  N_17
REMARK    4  A    between atoms: C_27  and  C_30
REMARK                            x       y       z     vdW  Elec       q    Type
REMARK                         _______ _______ _______ _____ _____    ______ ____
ROOT
ATOM      1  N   UNL     1      31.385  -6.568 -20.484  0.00  0.00    -0.296 N 
ATOM      2  N   UNL     1      31.308  -8.907 -19.911  0.00  0.00    -0.229 NA
ATOM      3  C   UNL     1      32.521 -10.327 -21.483  0.00  0.00    +0.019 C 
ATOM      4  C   UNL     1      32.463  -7.961 -21.855  0.00  0.00    +0.046 C 
ATOM      5  C   UNL     1      32.894  -9.235 -22.263  0.00  0.00    +0.006 C 
ATOM      6  C   UNL     1      31.694  -7.886 -20.699  0.00  0.00    +0.133 C 
ATOM      7  C   UNL     1      32.611  -6.635 -22.340  0.00  0.00    +0.068 C 
ATOM      8  C   UNL     1      31.750 -10.108 -20.350  0.00  0.00    +0.100 C 
ATOM      9  C   UNL     1      31.937  -5.799 -21.475  0.00  0.00    +0.078 C 
ATOM     10  H   UNL     1      30.848  -6.226 -19.732  0.00  0.00    +0.154 HD
ENDROOT
BRANCH   3  14
ATOM     11  C   UNL     1      33.729 -14.271 -22.563  0.00  0.00    +0.048 C 
ATOM     12  C   UNL     1      33.779 -13.216 -23.496  0.00  0.00    +0.015 C 
ATOM     13  C   UNL     1      33.269 -13.984 -21.263  0.00  0.00    +0.015 C 
ATOM     14  C   UNL     1      32.932 -11.664 -21.849  0.00  0.00    +0.002 C 
ATOM     15  C   UNL     1      33.385 -11.926 -23.142  0.00  0.00    +0.001 C 
ATOM     16  C   UNL     1      32.875 -12.694 -20.910  0.00  0.00    +0.001 C 
BRANCH  11  17
ATOM     17  N   UNL     1      34.125 -15.565 -22.919  0.00  0.00    -0.312 N 
ATOM     18  N   UNL     1      35.136 -18.099 -23.767  0.00  0.00    +0.388 N 
ATOM     19  C   UNL     1      35.110 -16.276 -22.097  0.00  0.00    +0.068 C 
ATOM     20  C   UNL     1      34.107 -15.926 -24.342  0.00  0.00    +0.068 C 
ATOM     21  C   UNL     1      35.023 -17.785 -22.337  0.00  0.00    -0.056 C 
ATOM     22  C   UNL     1      34.050 -17.447 -24.509  0.00  0.00    -0.056 C 
ATOM     23  C   UNL     1      35.104 -19.545 -23.978  0.00  0.00    -0.101 C 
ATOM     24  H   UNL     1      36.029 -17.746 -24.112  0.00  0.00    -0.080 HD
ENDBRANCH  11  17
ENDBRANCH   3  14
BRANCH   7  26
ATOM     25  O   UNL     1      32.107  -7.250 -25.214  0.00  0.00    -0.270 OA
ATOM     26  N   UNL     1      33.294  -6.222 -23.461  0.00  0.00    -0.279 N 
ATOM     27  C   UNL     1      33.017  -6.540 -24.799  0.00  0.00    +0.251 C 
ATOM     28  H   UNL     1      34.067  -5.634 -23.306  0.00  0.00    +0.155 HD
BRANCH  27  30
ATOM     29  N   UNL     1      36.028  -4.905 -26.287  0.00  0.00    -0.242 NA
ATOM     30  C   UNL     1      33.919  -5.918 -25.803  0.00  0.00    +0.073 C 
ATOM     31  C   UNL     1      33.504  -5.784 -27.105  0.00  0.00    +0.008 C 
ATOM     32  C   UNL     1      35.159  -5.480 -25.425  0.00  0.00    +0.103 C 
ATOM     33  C   UNL     1      34.369  -5.197 -28.022  0.00  0.00    +0.021 C 
ATOM     34  C   UNL     1      35.608  -4.778 -27.566  0.00  0.00    +0.099 C 
ENDBRANCH  27  30
ENDBRANCH   7  26
TORSDOF 4
ENDMDL
