MODEL 1
REMARK VINA RESULT:     -11.1      0.000      0.000
REMARK  Name = 11154925
REMARK  9 active torsions:
REMARK  status: ('A' for Active; 'I' for Inactive)
REMARK    1  A    between atoms: C_6  and  O_11
REMARK    2  A    between atoms: C_8  and  O_24
REMARK    3  A    between atoms: O_11  and  C_12
REMARK    4  A    between atoms: C_12  and  C_13
REMARK    5  A    between atoms: C_13  and  O_15
REMARK    6  A    between atoms: O_15  and  C_17
REMARK    7  A    between atoms: C_17  and  C_18
REMARK    8  A    between atoms: C_18  and  N_20
REMARK    9  A    between atoms: O_24  and  C_29
REMARK                            x       y       z     vdW  Elec       q    Type
REMARK                         _______ _______ _______ _____ _____    ______ ____
ROOT
ATOM      1  N   UNL     1      34.083 -16.097 -24.533  0.00  0.00    -0.180 N 
ATOM      2  N   UNL     1      33.539 -15.659 -25.703  0.00  0.00    -0.151 NA
ATOM      3  N   UNL     1      33.164 -13.543 -24.597  0.00  0.00    -0.187 NA
ATOM      4  C   UNL     1      34.187 -15.321 -23.407  0.00  0.00    +0.126 C 
ATOM      5  C   UNL     1      34.780 -16.069 -22.417  0.00  0.00    +0.034 C 
ATOM      6  C   UNL     1      35.045 -17.349 -22.970  0.00  0.00    +0.153 C 
ATOM      7  C   UNL     1      34.604 -17.338 -24.278  0.00  0.00    +0.126 C 
ATOM      8  C   UNL     1      33.688 -13.994 -23.504  0.00  0.00    +0.247 C 
ATOM      9  C   UNL     1      35.104 -15.675 -21.030  0.00  0.00    +0.036 C 
ATOM     10  C   UNL     1      33.116 -14.424 -25.668  0.00  0.00    +0.220 C 
ENDROOT
BRANCH   6  11
ATOM     11  O   UNL     1      35.615 -18.406 -22.374  0.00  0.00    -0.470 OA
BRANCH  11  12
ATOM     12  C   UNL     1      34.794 -19.559 -22.162  0.00  0.00    +0.249 C 
BRANCH  12  13
ATOM     13  C   UNL     1      34.616 -19.769 -20.663  0.00  0.00    +0.212 C 
ATOM     14  C   UNL     1      33.204 -20.226 -20.328  0.00  0.00    +0.051 C 
BRANCH  13  15
ATOM     15  O   UNL     1      35.538 -20.770 -20.238  0.00  0.00    -0.450 OA
BRANCH  15  17
ATOM     16  O   UNL     1      37.188 -19.325 -19.530  0.00  0.00    -0.252 OA
ATOM     17  C   UNL     1      36.528 -20.347 -19.391  0.00  0.00    +0.296 C 
BRANCH  17  18
ATOM     18  C   UNL     1      36.680 -21.345 -18.259  0.00  0.00    +0.036 C 
ATOM     19  C   UNL     1      35.373 -22.088 -18.017  0.00  0.00    -0.013 C 
BRANCH  18  20
ATOM     20  N   UNL     1      37.061 -20.611 -17.053  0.00  0.00    +0.389 N 
ATOM     21  H   UNL     1      36.421 -20.848 -16.295  0.00  0.00    -0.088 HD
ATOM     22  H   UNL     1      37.013 -19.608 -17.237  0.00  0.00    -0.088 HD
ATOM     23  H   UNL     1      38.013 -20.862 -16.788  0.00  0.00    -0.088 HD
ENDBRANCH  18  20
ENDBRANCH  17  18
ENDBRANCH  15  17
ENDBRANCH  13  15
ENDBRANCH  12  13
ENDBRANCH  11  12
ENDBRANCH   6  11
BRANCH   8  24
ATOM     24  O   UNL     1      33.778 -13.207 -22.406  0.00  0.00    -0.433 OA
BRANCH  24  29
ATOM     25  F   UNL     1      34.608 -11.006 -23.824  0.00  0.00    -0.201 F 
ATOM     26  N   UNL     1      30.704  -8.701 -22.950  0.00  0.00    -0.316 N 
ATOM     27  C   UNL     1      32.564  -9.874 -23.332  0.00  0.00    +0.045 C 
ATOM     28  C   UNL     1      31.317  -9.908 -22.701  0.00  0.00    +0.050 C 
ATOM     29  C   UNL     1      32.970 -12.115 -22.508  0.00  0.00    +0.175 C 
ATOM     30  C   UNL     1      31.517  -7.907 -23.715  0.00  0.00    +0.026 C 
ATOM     31  C   UNL     1      33.405 -10.999 -23.233  0.00  0.00    +0.176 C 
ATOM     32  C   UNL     1      32.675  -8.606 -23.967  0.00  0.00    +0.014 C 
ATOM     33  C   UNL     1      30.870 -11.016 -21.973  0.00  0.00    +0.018 C 
ATOM     34  C   UNL     1      31.722 -12.122 -21.889  0.00  0.00    +0.041 C 
ATOM     35  C   UNL     1      31.099  -6.554 -24.127  0.00  0.00    +0.047 C 
ATOM     36  H   UNL     1      29.810  -8.445 -22.625  0.00  0.00    +0.152 HD
ENDBRANCH  24  29
ENDBRANCH   8  24
TORSDOF 9
ENDMDL
MODEL 2
REMARK VINA RESULT:     -10.6      2.849      9.420
REMARK  Name = 11154925
REMARK  9 active torsions:
REMARK  status: ('A' for Active; 'I' for Inactive)
REMARK    1  A    between atoms: C_6  and  O_11
REMARK    2  A    between atoms: C_8  and  O_24
REMARK    3  A    between atoms: O_11  and  C_12
REMARK    4  A    between atoms: C_12  and  C_13
REMARK    5  A    between atoms: C_13  and  O_15
REMARK    6  A    between atoms: O_15  and  C_17
REMARK    7  A    between atoms: C_17  and  C_18
REMARK    8  A    between atoms: C_18  and  N_20
REMARK    9  A    between atoms: O_24  and  C_29
REMARK                            x       y       z     vdW  Elec       q    Type
REMARK                         _______ _______ _______ _____ _____    ______ ____
ROOT
ATOM      1  N   UNL     1      34.305 -17.090 -24.069  0.00  0.00    -0.180 N 
ATOM      2  N   UNL     1      34.032 -18.041 -25.007  0.00  0.00    -0.151 NA
ATOM      3  N   UNL     1      34.939 -19.658 -23.457  0.00  0.00    -0.187 NA
ATOM      4  C   UNL     1      34.873 -17.366 -22.852  0.00  0.00    +0.126 C 
ATOM      5  C   UNL     1      35.008 -16.186 -22.157  0.00  0.00    +0.034 C 
ATOM      6  C   UNL     1      34.498 -15.158 -22.991  0.00  0.00    +0.153 C 
ATOM      7  C   UNL     1      34.070 -15.744 -24.166  0.00  0.00    +0.126 C 
ATOM      8  C   UNL     1      35.182 -18.728 -22.592  0.00  0.00    +0.247 C 
ATOM      9  C   UNL     1      35.565 -15.968 -20.807  0.00  0.00    +0.036 C 
ATOM     10  C   UNL     1      34.361 -19.254 -24.651  0.00  0.00    +0.220 C 
ENDROOT
BRANCH   6  11
ATOM     11  O   UNL     1      34.423 -13.844 -22.733  0.00  0.00    -0.470 OA
BRANCH  11  12
ATOM     12  C   UNL     1      33.765 -13.023 -23.704  0.00  0.00    +0.249 C 
BRANCH  12  13
ATOM     13  C   UNL     1      33.080 -11.865 -22.989  0.00  0.00    +0.212 C 
ATOM     14  C   UNL     1      32.854 -10.688 -23.925  0.00  0.00    +0.051 C 
BRANCH  13  15
ATOM     15  O   UNL     1      31.816 -12.320 -22.508  0.00  0.00    -0.450 OA
BRANCH  15  17
ATOM     16  O   UNL     1      30.426 -11.099 -21.134  0.00  0.00    -0.252 OA
ATOM     17  C   UNL     1      31.415 -11.801 -21.306  0.00  0.00    +0.296 C 
BRANCH  17  18
ATOM     18  C   UNL     1      32.388 -12.228 -20.224  0.00  0.00    +0.036 C 
ATOM     19  C   UNL     1      32.250 -13.716 -19.932  0.00  0.00    -0.013 C 
BRANCH  18  20
ATOM     20  N   UNL     1      32.092 -11.459 -19.016  0.00  0.00    +0.389 N 
ATOM     21  H   UNL     1      32.726 -11.742 -18.269  0.00  0.00    -0.088 HD
ATOM     22  H   UNL     1      31.129 -11.634 -18.730  0.00  0.00    -0.088 HD
ATOM     23  H   UNL     1      32.214 -10.465 -19.207  0.00  0.00    -0.088 HD
ENDBRANCH  18  20
ENDBRANCH  17  18
ENDBRANCH  15  17
ENDBRANCH  13  15
ENDBRANCH  12  13
ENDBRANCH  11  12
ENDBRANCH   6  11
BRANCH   8  24
ATOM     24  O   UNL     1      35.745 -19.027 -21.397  0.00  0.00    -0.433 OA
BRANCH  24  29
ATOM     25  F   UNL     1      36.794 -20.816 -19.596  0.00  0.00    -0.201 F 
ATOM     26  N   UNL     1      32.615 -22.221 -18.225  0.00  0.00    -0.316 N 
ATOM     27  C   UNL     1      34.601 -21.494 -18.937  0.00  0.00    +0.045 C 
ATOM     28  C   UNL     1      33.221 -21.345 -19.097  0.00  0.00    +0.050 C 
ATOM     29  C   UNL     1      34.917 -19.795 -20.634  0.00  0.00    +0.175 C 
ATOM     30  C   UNL     1      33.561 -22.917 -17.521  0.00  0.00    +0.026 C 
ATOM     31  C   UNL     1      35.464 -20.703 -19.720  0.00  0.00    +0.176 C 
ATOM     32  C   UNL     1      34.800 -22.488 -17.939  0.00  0.00    +0.014 C 
ATOM     33  C   UNL     1      32.660 -20.442 -20.006  0.00  0.00    +0.018 C 
ATOM     34  C   UNL     1      33.536 -19.667 -20.773  0.00  0.00    +0.041 C 
ATOM     35  C   UNL     1      33.179 -23.925 -16.515  0.00  0.00    +0.047 C 
ATOM     36  H   UNL     1      31.641 -22.332 -18.123  0.00  0.00    +0.152 HD
ENDBRANCH  24  29
ENDBRANCH   8  24
TORSDOF 9
ENDMDL
MODEL 3
REMARK VINA RESULT:     -10.4      3.583      6.656
REMARK  Name = 11154925
REMARK  9 active torsions:
REMARK  status: ('A' for Active; 'I' for Inactive)
REMARK    1  A    between atoms: C_6  and  O_11
REMARK    2  A    between atoms: C_8  and  O_24
REMARK    3  A    between atoms: O_11  and  C_12
REMARK    4  A    between atoms: C_12  and  C_13
REMARK    5  A    between atoms: C_13  and  O_15
REMARK    6  A    between atoms: O_15  and  C_17
REMARK    7  A    between atoms: C_17  and  C_18
REMARK    8  A    between atoms: C_18  and  N_20
REMARK    9  A    between atoms: O_24  and  C_29
REMARK                            x       y       z     vdW  Elec       q    Type
REMARK                         _______ _______ _______ _____ _____    ______ ____
ROOT
ATOM      1  N   UNL     1      33.917 -21.239 -19.414  0.00  0.00    -0.180 N 
ATOM      2  N   UNL     1      32.637 -21.118 -19.864  0.00  0.00    -0.151 NA
ATOM      3  N   UNL     1      33.483 -19.528 -21.477  0.00  0.00    -0.187 NA
ATOM      4  C   UNL     1      34.978 -20.551 -19.945  0.00  0.00    +0.126 C 
ATOM      5  C   UNL     1      36.116 -20.908 -19.260  0.00  0.00    +0.034 C 
ATOM      6  C   UNL     1      35.724 -21.851 -18.274  0.00  0.00    +0.153 C 
ATOM      7  C   UNL     1      34.361 -22.037 -18.392  0.00  0.00    +0.126 C 
ATOM      8  C   UNL     1      34.686 -19.672 -21.022  0.00  0.00    +0.247 C 
ATOM      9  C   UNL     1      37.501 -20.437 -19.462  0.00  0.00    +0.036 C 
ATOM     10  C   UNL     1      32.496 -20.280 -20.856  0.00  0.00    +0.220 C 
ENDROOT
BRANCH   6  11
ATOM     11  O   UNL     1      36.496 -22.475 -17.373  0.00  0.00    -0.470 OA
BRANCH  11  12
ATOM     12  C   UNL     1      36.652 -21.844 -16.097  0.00  0.00    +0.249 C 
BRANCH  12  13
ATOM     13  C   UNL     1      36.181 -22.802 -15.011  0.00  0.00    +0.212 C 
ATOM     14  C   UNL     1      34.663 -22.836 -14.918  0.00  0.00    +0.051 C 
BRANCH  13  15
ATOM     15  O   UNL     1      36.653 -24.110 -15.331  0.00  0.00    -0.450 OA
BRANCH  15  17
ATOM     16  O   UNL     1      38.661 -24.418 -14.245  0.00  0.00    -0.252 OA
ATOM     17  C   UNL     1      37.478 -24.689 -14.404  0.00  0.00    +0.296 C 
BRANCH  17  18
ATOM     18  C   UNL     1      36.698 -25.720 -13.612  0.00  0.00    +0.036 C 
ATOM     19  C   UNL     1      37.545 -26.281 -12.478  0.00  0.00    -0.013 C 
BRANCH  18  20
ATOM     20  N   UNL     1      36.316 -26.799 -14.522  0.00  0.00    +0.389 N 
ATOM     21  H   UNL     1      36.947 -27.590 -14.394  0.00  0.00    -0.088 HD
ATOM     22  H   UNL     1      36.376 -26.469 -15.485  0.00  0.00    -0.088 HD
ATOM     23  H   UNL     1      35.359 -27.091 -14.322  0.00  0.00    -0.088 HD
ENDBRANCH  18  20
ENDBRANCH  17  18
ENDBRANCH  15  17
ENDBRANCH  13  15
ENDBRANCH  12  13
ENDBRANCH  11  12
ENDBRANCH   6  11
BRANCH   8  24
ATOM     24  O   UNL     1      35.715 -18.979 -21.565  0.00  0.00    -0.433 OA
BRANCH  24  29
ATOM     25  F   UNL     1      35.481 -16.503 -20.401  0.00  0.00    -0.201 F 
ATOM     26  N   UNL     1      33.953 -14.570 -24.305  0.00  0.00    -0.316 N 
ATOM     27  C   UNL     1      34.696 -15.571 -22.455  0.00  0.00    +0.045 C 
ATOM     28  C   UNL     1      34.369 -15.780 -23.797  0.00  0.00    +0.050 C 
ATOM     29  C   UNL     1      35.272 -17.919 -22.297  0.00  0.00    +0.175 C 
ATOM     30  C   UNL     1      34.006 -13.607 -23.334  0.00  0.00    +0.026 C 
ATOM     31  C   UNL     1      35.157 -16.662 -21.691  0.00  0.00    +0.176 C 
ATOM     32  C   UNL     1      34.463 -14.196 -22.178  0.00  0.00    +0.014 C 
ATOM     33  C   UNL     1      34.479 -17.031 -24.415  0.00  0.00    +0.018 C 
ATOM     34  C   UNL     1      34.939 -18.098 -23.638  0.00  0.00    +0.041 C 
ATOM     35  C   UNL     1      33.612 -12.213 -23.615  0.00  0.00    +0.047 C 
ATOM     36  H   UNL     1      33.659 -14.420 -25.234  0.00  0.00    +0.152 HD
ENDBRANCH  24  29
ENDBRANCH   8  24
TORSDOF 9
ENDMDL
MODEL 4
REMARK VINA RESULT:     -10.4      2.583      4.357
REMARK  Name = 11154925
REMARK  9 active torsions:
REMARK  status: ('A' for Active; 'I' for Inactive)
REMARK    1  A    between atoms: C_6  and  O_11
REMARK    2  A    between atoms: C_8  and  O_24
REMARK    3  A    between atoms: O_11  and  C_12
REMARK    4  A    between atoms: C_12  and  C_13
REMARK    5  A    between atoms: C_13  and  O_15
REMARK    6  A    between atoms: O_15  and  C_17
REMARK    7  A    between atoms: C_17  and  C_18
REMARK    8  A    between atoms: C_18  and  N_20
REMARK    9  A    between atoms: O_24  and  C_29
REMARK                            x       y       z     vdW  Elec       q    Type
REMARK                         _______ _______ _______ _____ _____    ______ ____
ROOT
ATOM      1  N   UNL     1      32.624 -12.911 -21.133  0.00  0.00    -0.180 N 
ATOM      2  N   UNL     1      31.753 -12.715 -20.103  0.00  0.00    -0.151 NA
ATOM      3  N   UNL     1      31.155 -10.628 -21.167  0.00  0.00    -0.187 NA
ATOM      4  C   UNL     1      32.790 -12.026 -22.167  0.00  0.00    +0.126 C 
ATOM      5  C   UNL     1      33.740 -12.531 -23.024  0.00  0.00    +0.034 C 
ATOM      6  C   UNL     1      34.163 -13.772 -22.484  0.00  0.00    +0.153 C 
ATOM      7  C   UNL     1      33.458 -13.983 -21.316  0.00  0.00    +0.126 C 
ATOM      8  C   UNL     1      31.992 -10.851 -22.127  0.00  0.00    +0.247 C 
ATOM      9  C   UNL     1      34.259 -11.943 -24.276  0.00  0.00    +0.036 C 
ATOM     10  C   UNL     1      31.078 -11.599 -20.179  0.00  0.00    +0.220 C 
ENDROOT
BRANCH   6  11
ATOM     11  O   UNL     1      35.075 -14.622 -22.978  0.00  0.00    -0.470 OA
BRANCH  11  12
ATOM     12  C   UNL     1      34.633 -15.549 -23.976  0.00  0.00    +0.249 C 
BRANCH  12  13
ATOM     13  C   UNL     1      34.499 -16.928 -23.343  0.00  0.00    +0.212 C 
ATOM     14  C   UNL     1      34.279 -18.004 -24.395  0.00  0.00    +0.051 C 
BRANCH  13  15
ATOM     15  O   UNL     1      35.702 -17.215 -22.634  0.00  0.00    -0.450 OA
BRANCH  15  17
ATOM     16  O   UNL     1      35.239 -16.829 -20.410  0.00  0.00    -0.252 OA
ATOM     17  C   UNL     1      35.548 -17.583 -21.323  0.00  0.00    +0.296 C 
BRANCH  17  18
ATOM     18  C   UNL     1      35.825 -19.067 -21.182  0.00  0.00    +0.036 C 
ATOM     19  C   UNL     1      34.557 -19.816 -20.794  0.00  0.00    -0.013 C 
BRANCH  18  20
ATOM     20  N   UNL     1      36.839 -19.244 -20.144  0.00  0.00    +0.389 N 
ATOM     21  H   UNL     1      37.557 -18.527 -20.245  0.00  0.00    -0.088 HD
ATOM     22  H   UNL     1      37.265 -20.166 -20.239  0.00  0.00    -0.088 HD
ATOM     23  H   UNL     1      36.404 -19.165 -19.225  0.00  0.00    -0.088 HD
ENDBRANCH  18  20
ENDBRANCH  17  18
ENDBRANCH  15  17
ENDBRANCH  13  15
ENDBRANCH  12  13
ENDBRANCH  11  12
ENDBRANCH   6  11
BRANCH   8  24
ATOM     24  O   UNL     1      32.137  -9.959 -23.137  0.00  0.00    -0.433 OA
BRANCH  24  29
ATOM     25  F   UNL     1      30.058  -8.216 -23.560  0.00  0.00    -0.201 F 
ATOM     26  N   UNL     1      32.202  -4.777 -21.347  0.00  0.00    -0.316 N 
ATOM     27  C   UNL     1      31.226  -6.484 -22.403  0.00  0.00    +0.045 C 
ATOM     28  C   UNL     1      32.375  -6.095 -21.709  0.00  0.00    +0.050 C 
ATOM     29  C   UNL     1      32.209  -8.682 -22.667  0.00  0.00    +0.175 C 
ATOM     30  C   UNL     1      30.987  -4.322 -21.786  0.00  0.00    +0.026 C 
ATOM     31  C   UNL     1      31.142  -7.803 -22.890  0.00  0.00    +0.176 C 
ATOM     32  C   UNL     1      30.360  -5.356 -22.442  0.00  0.00    +0.014 C 
ATOM     33  C   UNL     1      33.448  -6.962 -21.479  0.00  0.00    +0.018 C 
ATOM     34  C   UNL     1      33.342  -8.266 -21.972  0.00  0.00    +0.041 C 
ATOM     35  C   UNL     1      30.550  -2.937 -21.530  0.00  0.00    +0.047 C 
ATOM     36  H   UNL     1      32.858  -4.241 -20.845  0.00  0.00    +0.152 HD
ENDBRANCH  24  29
ENDBRANCH   8  24
TORSDOF 9
ENDMDL
MODEL 5
REMARK VINA RESULT:     -10.2      2.412      3.711
REMARK  Name = 11154925
REMARK  9 active torsions:
REMARK  status: ('A' for Active; 'I' for Inactive)
REMARK    1  A    between atoms: C_6  and  O_11
REMARK    2  A    between atoms: C_8  and  O_24
REMARK    3  A    between atoms: O_11  and  C_12
REMARK    4  A    between atoms: C_12  and  C_13
REMARK    5  A    between atoms: C_13  and  O_15
REMARK    6  A    between atoms: O_15  and  C_17
REMARK    7  A    between atoms: C_17  and  C_18
REMARK    8  A    between atoms: C_18  and  N_20
REMARK    9  A    between atoms: O_24  and  C_29
REMARK                            x       y       z     vdW  Elec       q    Type
REMARK                         _______ _______ _______ _____ _____    ______ ____
ROOT
ATOM      1  N   UNL     1      33.370 -13.666 -21.007  0.00  0.00    -0.180 N 
ATOM      2  N   UNL     1      32.773 -13.360 -19.821  0.00  0.00    -0.151 NA
ATOM      3  N   UNL     1      31.671 -11.548 -20.981  0.00  0.00    -0.187 NA
ATOM      4  C   UNL     1      33.155 -12.968 -22.167  0.00  0.00    +0.126 C 
ATOM      5  C   UNL     1      33.909 -13.540 -23.166  0.00  0.00    +0.034 C 
ATOM      6  C   UNL     1      34.606 -14.629 -22.582  0.00  0.00    +0.153 C 
ATOM      7  C   UNL     1      34.254 -14.684 -21.248  0.00  0.00    +0.126 C 
ATOM      8  C   UNL     1      32.256 -11.870 -22.088  0.00  0.00    +0.247 C 
ATOM      9  C   UNL     1      34.015 -13.144 -24.585  0.00  0.00    +0.036 C 
ATOM     10  C   UNL     1      31.969 -12.332 -19.875  0.00  0.00    +0.220 C 
ENDROOT
BRANCH   6  11
ATOM     11  O   UNL     1      35.459 -15.478 -23.173  0.00  0.00    -0.470 OA
BRANCH  11  12
ATOM     12  C   UNL     1      34.906 -16.429 -24.089  0.00  0.00    +0.249 C 
BRANCH  12  13
ATOM     13  C   UNL     1      34.564 -17.705 -23.330  0.00  0.00    +0.212 C 
ATOM     14  C   UNL     1      34.087 -18.801 -24.270  0.00  0.00    +0.051 C 
BRANCH  13  15
ATOM     15  O   UNL     1      35.737 -18.154 -22.655  0.00  0.00    -0.450 OA
BRANCH  15  17
ATOM     16  O   UNL     1      35.657 -17.373 -20.488  0.00  0.00    -0.252 OA
ATOM     17  C   UNL     1      35.628 -18.292 -21.297  0.00  0.00    +0.296 C 
BRANCH  17  18
ATOM     18  C   UNL     1      35.470 -19.761 -20.953  0.00  0.00    +0.036 C 
ATOM     19  C   UNL     1      34.041 -20.061 -20.518  0.00  0.00    -0.013 C 
BRANCH  18  20
ATOM     20  N   UNL     1      36.393 -20.075 -19.864  0.00  0.00    +0.389 N 
ATOM     21  H   UNL     1      36.284 -21.054 -19.598  0.00  0.00    -0.088 HD
ATOM     22  H   UNL     1      36.187 -19.480 -19.062  0.00  0.00    -0.088 HD
ATOM     23  H   UNL     1      37.351 -19.911 -20.172  0.00  0.00    -0.088 HD
ENDBRANCH  18  20
ENDBRANCH  17  18
ENDBRANCH  15  17
ENDBRANCH  13  15
ENDBRANCH  12  13
ENDBRANCH  11  12
ENDBRANCH   6  11
BRANCH   8  24
ATOM     24  O   UNL     1      32.027 -11.163 -23.220  0.00  0.00    -0.433 OA
BRANCH  24  29
ATOM     25  F   UNL     1      30.052  -9.320 -22.726  0.00  0.00    -0.201 F 
ATOM     26  N   UNL     1      33.060  -5.822 -22.540  0.00  0.00    -0.316 N 
ATOM     27  C   UNL     1      31.664  -7.560 -22.644  0.00  0.00    +0.045 C 
ATOM     28  C   UNL     1      33.007  -7.184 -22.737  0.00  0.00    +0.050 C 
ATOM     29  C   UNL     1      32.344  -9.848 -23.059  0.00  0.00    +0.175 C 
ATOM     30  C   UNL     1      31.801  -5.326 -22.327  0.00  0.00    +0.026 C 
ATOM     31  C   UNL     1      31.328  -8.918 -22.808  0.00  0.00    +0.176 C 
ATOM     32  C   UNL     1      30.917  -6.378 -22.385  0.00  0.00    +0.014 C 
ATOM     33  C   UNL     1      34.032  -8.101 -22.987  0.00  0.00    +0.018 C 
ATOM     34  C   UNL     1      33.675  -9.444 -23.146  0.00  0.00    +0.041 C 
ATOM     35  C   UNL     1      31.575  -3.888 -22.088  0.00  0.00    +0.047 C 
ATOM     36  H   UNL     1      33.884  -5.283 -22.552  0.00  0.00    +0.152 HD
ENDBRANCH  24  29
ENDBRANCH   8  24
TORSDOF 9
ENDMDL
MODEL 6
REMARK VINA RESULT:      -9.8      3.627      9.702
REMARK  Name = 11154925
REMARK  9 active torsions:
REMARK  status: ('A' for Active; 'I' for Inactive)
REMARK    1  A    between atoms: C_6  and  O_11
REMARK    2  A    between atoms: C_8  and  O_24
REMARK    3  A    between atoms: O_11  and  C_12
REMARK    4  A    between atoms: C_12  and  C_13
REMARK    5  A    between atoms: C_13  and  O_15
REMARK    6  A    between atoms: O_15  and  C_17
REMARK    7  A    between atoms: C_17  and  C_18
REMARK    8  A    between atoms: C_18  and  N_20
REMARK    9  A    between atoms: O_24  and  C_29
REMARK                            x       y       z     vdW  Elec       q    Type
REMARK                         _______ _______ _______ _____ _____    ______ ____
ROOT
ATOM      1  N   UNL     1      31.525 -10.898 -22.071  0.00  0.00    -0.180 N 
ATOM      2  N   UNL     1      30.769 -11.523 -21.126  0.00  0.00    -0.151 NA
ATOM      3  N   UNL     1      32.551 -13.147 -20.948  0.00  0.00    -0.187 NA
ATOM      4  C   UNL     1      32.758 -11.342 -22.474  0.00  0.00    +0.126 C 
ATOM      5  C   UNL     1      33.239 -10.483 -23.434  0.00  0.00    +0.034 C 
ATOM      6  C   UNL     1      32.253  -9.478 -23.617  0.00  0.00    +0.153 C 
ATOM      7  C   UNL     1      31.206  -9.759 -22.762  0.00  0.00    +0.126 C 
ATOM      8  C   UNL     1      33.239 -12.524 -21.849  0.00  0.00    +0.247 C 
ATOM      9  C   UNL     1      34.519 -10.541 -24.167  0.00  0.00    +0.036 C 
ATOM     10  C   UNL     1      31.318 -12.598 -20.626  0.00  0.00    +0.220 C 
ENDROOT
BRANCH   6  11
ATOM     11  O   UNL     1      32.286  -8.429 -24.451  0.00  0.00    -0.470 OA
BRANCH  11  12
ATOM     12  C   UNL     1      32.261  -7.124 -23.863  0.00  0.00    +0.249 C 
BRANCH  12  13
ATOM     13  C   UNL     1      33.500  -6.950 -22.993  0.00  0.00    +0.212 C 
ATOM     14  C   UNL     1      34.663  -6.379 -23.790  0.00  0.00    +0.051 C 
BRANCH  13  15
ATOM     15  O   UNL     1      33.181  -6.051 -21.933  0.00  0.00    -0.450 OA
BRANCH  15  17
ATOM     16  O   UNL     1      31.101  -6.042 -20.942  0.00  0.00    -0.252 OA
ATOM     17  C   UNL     1      32.235  -6.490 -21.044  0.00  0.00    +0.296 C 
BRANCH  17  18
ATOM     18  C   UNL     1      32.816  -7.612 -20.206  0.00  0.00    +0.036 C 
ATOM     19  C   UNL     1      31.712  -8.371 -19.483  0.00  0.00    -0.013 C 
BRANCH  18  20
ATOM     20  N   UNL     1      33.732  -7.024 -19.230  0.00  0.00    +0.389 N 
ATOM     21  H   UNL     1      34.691  -7.127 -19.559  0.00  0.00    -0.088 HD
ATOM     22  H   UNL     1      33.626  -7.502 -18.335  0.00  0.00    -0.088 HD
ATOM     23  H   UNL     1      33.515  -6.034 -19.113  0.00  0.00    -0.088 HD
ENDBRANCH  18  20
ENDBRANCH  17  18
ENDBRANCH  15  17
ENDBRANCH  13  15
ENDBRANCH  12  13
ENDBRANCH  11  12
ENDBRANCH   6  11
BRANCH   8  24
ATOM     24  O   UNL     1      34.455 -12.985 -22.229  0.00  0.00    -0.433 OA
BRANCH  24  29
ATOM     25  F   UNL     1      35.352 -15.321 -21.097  0.00  0.00    -0.201 F 
ATOM     26  N   UNL     1      34.147 -17.827 -24.782  0.00  0.00    -0.316 N 
ATOM     27  C   UNL     1      34.704 -16.553 -23.036  0.00  0.00    +0.045 C 
ATOM     28  C   UNL     1      34.135 -16.533 -24.313  0.00  0.00    +0.050 C 
ATOM     29  C   UNL     1      34.351 -14.160 -22.911  0.00  0.00    +0.175 C 
ATOM     30  C   UNL     1      34.701 -18.662 -23.850  0.00  0.00    +0.026 C 
ATOM     31  C   UNL     1      34.813 -15.344 -22.323  0.00  0.00    +0.176 C 
ATOM     32  C   UNL     1      35.056 -17.903 -22.758  0.00  0.00    +0.014 C 
ATOM     33  C   UNL     1      33.669 -15.358 -24.912  0.00  0.00    +0.018 C 
ATOM     34  C   UNL     1      33.788 -14.169 -24.186  0.00  0.00    +0.041 C 
ATOM     35  C   UNL     1      34.836 -20.109 -24.102  0.00  0.00    +0.047 C 
ATOM     36  H   UNL     1      33.806 -18.110 -25.662  0.00  0.00    +0.152 HD
ENDBRANCH  24  29
ENDBRANCH   8  24
TORSDOF 9
ENDMDL
MODEL 7
REMARK VINA RESULT:      -9.7      2.123      2.957
REMARK  Name = 11154925
REMARK  9 active torsions:
REMARK  status: ('A' for Active; 'I' for Inactive)
REMARK    1  A    between atoms: C_6  and  O_11
REMARK    2  A    between atoms: C_8  and  O_24
REMARK    3  A    between atoms: O_11  and  C_12
REMARK    4  A    between atoms: C_12  and  C_13
REMARK    5  A    between atoms: C_13  and  O_15
REMARK    6  A    between atoms: O_15  and  C_17
REMARK    7  A    between atoms: C_17  and  C_18
REMARK    8  A    between atoms: C_18  and  N_20
REMARK    9  A    between atoms: O_24  and  C_29
REMARK                            x       y       z     vdW  Elec       q    Type
REMARK                         _______ _______ _______ _____ _____    ______ ____
ROOT
ATOM      1  N   UNL     1      33.681 -14.675 -20.515  0.00  0.00    -0.180 N 
ATOM      2  N   UNL     1      33.171 -14.213 -19.339  0.00  0.00    -0.151 NA
ATOM      3  N   UNL     1      31.898 -12.631 -20.651  0.00  0.00    -0.187 NA
ATOM      4  C   UNL     1      33.341 -14.166 -21.742  0.00  0.00    +0.126 C 
ATOM      5  C   UNL     1      34.034 -14.858 -22.708  0.00  0.00    +0.034 C 
ATOM      6  C   UNL     1      34.824 -15.824 -22.034  0.00  0.00    +0.153 C 
ATOM      7  C   UNL     1      34.587 -15.690 -20.681  0.00  0.00    +0.126 C 
ATOM      8  C   UNL     1      32.403 -13.098 -21.746  0.00  0.00    +0.247 C 
ATOM      9  C   UNL     1      34.004 -14.677 -24.174  0.00  0.00    +0.036 C 
ATOM     10  C   UNL     1      32.321 -13.231 -19.473  0.00  0.00    +0.220 C 
ENDROOT
BRANCH   6  11
ATOM     11  O   UNL     1      35.662 -16.725 -22.567  0.00  0.00    -0.470 OA
BRANCH  11  12
ATOM     12  C   UNL     1      35.968 -17.881 -21.779  0.00  0.00    +0.249 C 
BRANCH  12  13
ATOM     13  C   UNL     1      34.867 -18.917 -21.975  0.00  0.00    +0.212 C 
ATOM     14  C   UNL     1      34.590 -19.162 -23.450  0.00  0.00    +0.051 C 
BRANCH  13  15
ATOM     15  O   UNL     1      35.291 -20.140 -21.376  0.00  0.00    -0.450 OA
BRANCH  15  17
ATOM     16  O   UNL     1      33.448 -20.181 -19.993  0.00  0.00    -0.252 OA
ATOM     17  C   UNL     1      34.586 -20.537 -20.271  0.00  0.00    +0.296 C 
BRANCH  17  18
ATOM     18  C   UNL     1      35.438 -21.481 -19.444  0.00  0.00    +0.036 C 
ATOM     19  C   UNL     1      34.589 -22.203 -18.407  0.00  0.00    -0.013 C 
BRANCH  18  20
ATOM     20  N   UNL     1      36.471 -20.692 -18.773  0.00  0.00    +0.389 N 
ATOM     21  H   UNL     1      36.041 -19.891 -18.313  0.00  0.00    -0.088 HD
ATOM     22  H   UNL     1      37.150 -20.366 -19.462  0.00  0.00    -0.088 HD
ATOM     23  H   UNL     1      36.944 -21.271 -18.079  0.00  0.00    -0.088 HD
ENDBRANCH  18  20
ENDBRANCH  17  18
ENDBRANCH  15  17
ENDBRANCH  13  15
ENDBRANCH  12  13
ENDBRANCH  11  12
ENDBRANCH   6  11
BRANCH   8  24
ATOM     24  O   UNL     1      32.051 -12.577 -22.946  0.00  0.00    -0.433 OA
BRANCH  24  29
ATOM     25  F   UNL     1      34.519 -11.723 -23.795  0.00  0.00    -0.201 F 
ATOM     26  N   UNL     1      33.396  -7.273 -23.287  0.00  0.00    -0.316 N 
ATOM     27  C   UNL     1      33.869  -9.443 -23.508  0.00  0.00    +0.045 C 
ATOM     28  C   UNL     1      32.872  -8.537 -23.134  0.00  0.00    +0.050 C 
ATOM     29  C   UNL     1      32.328 -11.245 -23.011  0.00  0.00    +0.175 C 
ATOM     30  C   UNL     1      34.685  -7.348 -23.743  0.00  0.00    +0.026 C 
ATOM     31  C   UNL     1      33.590 -10.822 -23.445  0.00  0.00    +0.176 C 
ATOM     32  C   UNL     1      35.006  -8.678 -23.889  0.00  0.00    +0.014 C 
ATOM     33  C   UNL     1      31.607  -8.945 -22.698  0.00  0.00    +0.018 C 
ATOM     34  C   UNL     1      31.353 -10.319 -22.645  0.00  0.00    +0.041 C 
ATOM     35  C   UNL     1      35.481  -6.131 -23.992  0.00  0.00    +0.047 C 
ATOM     36  H   UNL     1      32.913  -6.436 -23.095  0.00  0.00    +0.152 HD
ENDBRANCH  24  29
ENDBRANCH   8  24
TORSDOF 9
ENDMDL
MODEL 8
REMARK VINA RESULT:      -9.7      3.443      6.177
REMARK  Name = 11154925
REMARK  9 active torsions:
REMARK  status: ('A' for Active; 'I' for Inactive)
REMARK    1  A    between atoms: C_6  and  O_11
REMARK    2  A    between atoms: C_8  and  O_24
REMARK    3  A    between atoms: O_11  and  C_12
REMARK    4  A    between atoms: C_12  and  C_13
REMARK    5  A    between atoms: C_13  and  O_15
REMARK    6  A    between atoms: O_15  and  C_17
REMARK    7  A    between atoms: C_17  and  C_18
REMARK    8  A    between atoms: C_18  and  N_20
REMARK    9  A    between atoms: O_24  and  C_29
REMARK                            x       y       z     vdW  Elec       q    Type
REMARK                         _______ _______ _______ _____ _____    ______ ____
ROOT
ATOM      1  N   UNL     1      35.970 -20.400 -19.676  0.00  0.00    -0.180 N 
ATOM      2  N   UNL     1      37.288 -20.056 -19.649  0.00  0.00    -0.151 NA
ATOM      3  N   UNL     1      36.816 -18.573 -21.499  0.00  0.00    -0.187 NA
ATOM      4  C   UNL     1      35.067 -19.875 -20.565  0.00  0.00    +0.126 C 
ATOM      5  C   UNL     1      33.835 -20.436 -20.317  0.00  0.00    +0.034 C 
ATOM      6  C   UNL     1      34.005 -21.336 -19.233  0.00  0.00    +0.153 C 
ATOM      7  C   UNL     1      35.332 -21.293 -18.857  0.00  0.00    +0.126 C 
ATOM      8  C   UNL     1      35.571 -18.925 -21.493  0.00  0.00    +0.247 C 
ATOM      9  C   UNL     1      32.553 -20.191 -21.007  0.00  0.00    +0.036 C 
ATOM     10  C   UNL     1      37.630 -19.174 -20.550  0.00  0.00    +0.220 C 
ENDROOT
BRANCH   6  11
ATOM     11  O   UNL     1      33.078 -22.107 -18.645  0.00  0.00    -0.470 OA
BRANCH  11  12
ATOM     12  C   UNL     1      33.529 -23.324 -18.040  0.00  0.00    +0.249 C 
BRANCH  12  13
ATOM     13  C   UNL     1      33.006 -23.388 -16.610  0.00  0.00    +0.212 C 
ATOM     14  C   UNL     1      34.101 -23.077 -15.602  0.00  0.00    +0.051 C 
BRANCH  13  15
ATOM     15  O   UNL     1      31.963 -22.424 -16.471  0.00  0.00    -0.450 OA
BRANCH  15  17
ATOM     16  O   UNL     1      29.675 -22.581 -16.686  0.00  0.00    -0.252 OA
ATOM     17  C   UNL     1      30.727 -22.925 -16.162  0.00  0.00    +0.296 C 
BRANCH  17  18
ATOM     18  C   UNL     1      30.865 -23.966 -15.069  0.00  0.00    +0.036 C 
ATOM     19  C   UNL     1      29.784 -25.031 -15.200  0.00  0.00    -0.013 C 
BRANCH  18  20
ATOM     20  N   UNL     1      30.738 -23.291 -13.778  0.00  0.00    +0.389 N 
ATOM     21  H   UNL     1      30.879 -22.289 -13.904  0.00  0.00    -0.088 HD
ATOM     22  H   UNL     1      31.441 -23.655 -13.135  0.00  0.00    -0.088 HD
ATOM     23  H   UNL     1      29.808 -23.459 -13.396  0.00  0.00    -0.088 HD
ENDBRANCH  18  20
ENDBRANCH  17  18
ENDBRANCH  15  17
ENDBRANCH  13  15
ENDBRANCH  12  13
ENDBRANCH  11  12
ENDBRANCH   6  11
BRANCH   8  24
ATOM     24  O   UNL     1      34.699 -18.391 -22.382  0.00  0.00    -0.433 OA
BRANCH  24  29
ATOM     25  F   UNL     1      34.210 -16.825 -24.584  0.00  0.00    -0.201 F 
ATOM     26  N   UNL     1      34.356 -12.926 -22.115  0.00  0.00    -0.316 N 
ATOM     27  C   UNL     1      34.300 -14.850 -23.245  0.00  0.00    +0.045 C 
ATOM     28  C   UNL     1      34.477 -14.291 -21.976  0.00  0.00    +0.050 C 
ATOM     29  C   UNL     1      34.624 -17.037 -22.254  0.00  0.00    +0.175 C 
ATOM     30  C   UNL     1      34.109 -12.604 -23.423  0.00  0.00    +0.026 C 
ATOM     31  C   UNL     1      34.374 -16.249 -23.385  0.00  0.00    +0.176 C 
ATOM     32  C   UNL     1      34.068 -13.774 -24.146  0.00  0.00    +0.014 C 
ATOM     33  C   UNL     1      34.727 -15.065 -20.838  0.00  0.00    +0.018 C 
ATOM     34  C   UNL     1      34.796 -16.452 -21.002  0.00  0.00    +0.041 C 
ATOM     35  C   UNL     1      33.937 -11.202 -23.847  0.00  0.00    +0.047 C 
ATOM     36  H   UNL     1      34.436 -12.276 -21.380  0.00  0.00    +0.152 HD
ENDBRANCH  24  29
ENDBRANCH   8  24
TORSDOF 9
ENDMDL
MODEL 9
REMARK VINA RESULT:      -9.6      2.713      9.940
REMARK  Name = 11154925
REMARK  9 active torsions:
REMARK  status: ('A' for Active; 'I' for Inactive)
REMARK    1  A    between atoms: C_6  and  O_11
REMARK    2  A    between atoms: C_8  and  O_24
REMARK    3  A    between atoms: O_11  and  C_12
REMARK    4  A    between atoms: C_12  and  C_13
REMARK    5  A    between atoms: C_13  and  O_15
REMARK    6  A    between atoms: O_15  and  C_17
REMARK    7  A    between atoms: C_17  and  C_18
REMARK    8  A    between atoms: C_18  and  N_20
REMARK    9  A    between atoms: O_24  and  C_29
REMARK                            x       y       z     vdW  Elec       q    Type
REMARK                         _______ _______ _______ _____ _____    ______ ____
ROOT
ATOM      1  N   UNL     1      34.105 -15.781 -23.717  0.00  0.00    -0.180 N 
ATOM      2  N   UNL     1      34.093 -16.513 -24.866  0.00  0.00    -0.151 NA
ATOM      3  N   UNL     1      35.278 -18.228 -23.642  0.00  0.00    -0.187 NA
ATOM      4  C   UNL     1      34.671 -16.215 -22.545  0.00  0.00    +0.126 C 
ATOM      5  C   UNL     1      34.507 -15.236 -21.593  0.00  0.00    +0.034 C 
ATOM      6  C   UNL     1      33.812 -14.167 -22.218  0.00  0.00    +0.153 C 
ATOM      7  C   UNL     1      33.577 -14.531 -23.528  0.00  0.00    +0.126 C 
ATOM      8  C   UNL     1      35.269 -17.503 -22.571  0.00  0.00    +0.247 C 
ATOM      9  C   UNL     1      34.945 -15.236 -20.183  0.00  0.00    +0.036 C 
ATOM     10  C   UNL     1      34.673 -17.679 -24.763  0.00  0.00    +0.220 C 
ENDROOT
BRANCH   6  11
ATOM     11  O   UNL     1      33.432 -13.000 -21.678  0.00  0.00    -0.470 OA
BRANCH  11  12
ATOM     12  C   UNL     1      32.250 -12.390 -22.207  0.00  0.00    +0.249 C 
BRANCH  12  13
ATOM     13  C   UNL     1      32.552 -10.934 -22.538  0.00  0.00    +0.212 C 
ATOM     14  C   UNL     1      33.046 -10.779 -23.968  0.00  0.00    +0.051 C 
BRANCH  13  15
ATOM     15  O   UNL     1      31.351 -10.180 -22.380  0.00  0.00    -0.450 OA
BRANCH  15  17
ATOM     16  O   UNL     1      30.894  -7.973 -22.861  0.00  0.00    -0.252 OA
ATOM     17  C   UNL     1      31.511  -8.827 -22.238  0.00  0.00    +0.296 C 
BRANCH  17  18
ATOM     18  C   UNL     1      32.577  -8.555 -21.194  0.00  0.00    +0.036 C 
ATOM     19  C   UNL     1      31.941  -8.213 -19.853  0.00  0.00    -0.013 C 
BRANCH  18  20
ATOM     20  N   UNL     1      33.389  -7.430 -21.655  0.00  0.00    +0.389 N 
ATOM     21  H   UNL     1      34.263  -7.405 -21.131  0.00  0.00    -0.088 HD
ATOM     22  H   UNL     1      32.879  -6.559 -21.506  0.00  0.00    -0.088 HD
ATOM     23  H   UNL     1      33.591  -7.540 -22.648  0.00  0.00    -0.088 HD
ENDBRANCH  18  20
ENDBRANCH  17  18
ENDBRANCH  15  17
ENDBRANCH  13  15
ENDBRANCH  12  13
ENDBRANCH  11  12
ENDBRANCH   6  11
BRANCH   8  24
ATOM     24  O   UNL     1      35.836 -17.956 -21.427  0.00  0.00    -0.433 OA
BRANCH  24  29
ATOM     25  F   UNL     1      37.042 -19.886 -19.891  0.00  0.00    -0.201 F 
ATOM     26  N   UNL     1      33.037 -22.017 -19.034  0.00  0.00    -0.316 N 
ATOM     27  C   UNL     1      34.935 -20.936 -19.490  0.00  0.00    +0.045 C 
ATOM     28  C   UNL     1      33.555 -20.934 -19.709  0.00  0.00    +0.050 C 
ATOM     29  C   UNL     1      35.088 -18.941 -20.856  0.00  0.00    +0.175 C 
ATOM     30  C   UNL     1      34.039 -22.702 -18.400  0.00  0.00    +0.026 C 
ATOM     31  C   UNL     1      35.715 -19.920 -20.076  0.00  0.00    +0.176 C 
ATOM     32  C   UNL     1      35.225 -22.056 -18.663  0.00  0.00    +0.014 C 
ATOM     33  C   UNL     1      32.915 -19.963 -20.486  0.00  0.00    +0.018 C 
ATOM     34  C   UNL     1      33.710 -18.964 -21.057  0.00  0.00    +0.041 C 
ATOM     35  C   UNL     1      33.755 -23.910 -17.602  0.00  0.00    +0.047 C 
ATOM     36  H   UNL     1      32.084 -22.264 -19.013  0.00  0.00    +0.152 HD
ENDBRANCH  24  29
ENDBRANCH   8  24
TORSDOF 9
ENDMDL
