MODEL 1
REMARK VINA RESULT:     -11.1      0.000      0.000
REMARK  Name = 71242808
REMARK  7 active torsions:
REMARK  status: ('A' for Active; 'I' for Inactive)
REMARK    1  A    between atoms: N_1  and  C_6
REMARK    2  A    between atoms: C_2  and  N_17
REMARK    3  A    between atoms: C_11  and  C_12
REMARK    4  A    between atoms: C_12  and  C_14
REMARK    5  A    between atoms: C_14  and  O_15
REMARK    6  A    between atoms: N_17  and  C_20
REMARK    7  A    between atoms: C_20  and  C_22
REMARK                            x       y       z     vdW  Elec       q    Type
REMARK                         _______ _______ _______ _____ _____    ______ ____
ROOT
ATOM      1  N   UNL     1      33.687 -13.523 -22.789  0.00  0.00    -0.310 N 
ATOM      2  C   UNL     1      32.154 -11.741 -22.830  0.00  0.00    -0.040 C 
ATOM      3  C   UNL     1      33.492 -11.252 -23.373  0.00  0.00    +0.002 C 
ATOM      4  C   UNL     1      32.549 -12.991 -22.038  0.00  0.00    +0.070 C 
ATOM      5  C   UNL     1      34.191 -12.554 -23.762  0.00  0.00    +0.089 C 
ENDROOT
BRANCH   1   6
ATOM      6  C   UNL     1      34.221 -14.780 -22.601  0.00  0.00    +0.048 C 
ATOM      7  C   UNL     1      34.397 -15.633 -23.691  0.00  0.00    +0.014 C 
ATOM      8  C   UNL     1      34.584 -15.200 -21.322  0.00  0.00    +0.014 C 
ATOM      9  C   UNL     1      34.937 -16.904 -23.501  0.00  0.00    -0.002 C 
ATOM     10  C   UNL     1      35.123 -16.472 -21.132  0.00  0.00    -0.002 C 
ATOM     11  C   UNL     1      35.300 -17.324 -22.222  0.00  0.00    -0.011 C 
BRANCH  11  12
ATOM     12  C   UNL     1      35.876 -18.684 -22.017  0.00  0.00    +0.136 C 
BRANCH  12  14
ATOM     13  O   UNL     1      36.916 -18.976 -19.835  0.00  0.00    -0.250 OA
ATOM     14  C   UNL     1      37.022 -18.712 -21.025  0.00  0.00    +0.318 C 
BRANCH  14  15
ATOM     15  O   UNL     1      38.209 -18.403 -21.611  0.00  0.00    -0.480 OA
ATOM     16  H   UNL     1      39.013 -18.675 -21.212  0.00  0.00    +0.295 HD
ENDBRANCH  14  15
ENDBRANCH  12  14
ENDBRANCH  11  12
ENDBRANCH   1   6
BRANCH   2  17
ATOM     17  N   UNL     1      31.462 -10.751 -22.022  0.00  0.00    +0.390 N 
ATOM     18  H   UNL     1      31.194 -11.172 -21.133  0.00  0.00    -0.084 HD
ATOM     19  H   UNL     1      30.632 -10.435 -22.524  0.00  0.00    -0.084 HD
BRANCH  17  20
ATOM     20  C   UNL     1      32.337  -9.594 -21.769  0.00  0.00    -0.038 C 
ATOM     21  C   UNL     1      32.138  -9.125 -20.317  0.00  0.00    -0.019 C 
BRANCH  20  22
ATOM     22  C   UNL     1      32.117  -8.492 -22.758  0.00  0.00    -0.042 C 
ATOM     23  C   UNL     1      33.171  -7.692 -23.229  0.00  0.00    -0.006 C 
ATOM     24  C   UNL     1      30.812  -8.283 -23.203  0.00  0.00    -0.006 C 
ATOM     25  C   UNL     1      32.897  -6.666 -24.163  0.00  0.00    -0.000 C 
ATOM     26  C   UNL     1      34.491  -7.889 -22.792  0.00  0.00    -0.000 C 
ATOM     27  C   UNL     1      30.542  -7.273 -24.122  0.00  0.00    -0.000 C 
ATOM     28  C   UNL     1      31.577  -6.469 -24.600  0.00  0.00    -0.000 C 
ATOM     29  C   UNL     1      33.951  -5.866 -24.634  0.00  0.00    -0.000 C 
ATOM     30  C   UNL     1      35.526  -7.085 -23.270  0.00  0.00    -0.000 C 
ATOM     31  C   UNL     1      35.257  -6.075 -24.189  0.00  0.00    -0.000 C 
ENDBRANCH  20  22
ENDBRANCH  17  20
ENDBRANCH   2  17
TORSDOF 7
ENDMDL
MODEL 2
REMARK VINA RESULT:     -10.7      1.608      3.474
REMARK  Name = 71242808
REMARK  7 active torsions:
REMARK  status: ('A' for Active; 'I' for Inactive)
REMARK    1  A    between atoms: N_1  and  C_6
REMARK    2  A    between atoms: C_2  and  N_17
REMARK    3  A    between atoms: C_11  and  C_12
REMARK    4  A    between atoms: C_12  and  C_14
REMARK    5  A    between atoms: C_14  and  O_15
REMARK    6  A    between atoms: N_17  and  C_20
REMARK    7  A    between atoms: C_20  and  C_22
REMARK                            x       y       z     vdW  Elec       q    Type
REMARK                         _______ _______ _______ _____ _____    ______ ____
ROOT
ATOM      1  N   UNL     1      34.055 -14.305 -23.499  0.00  0.00    -0.310 N 
ATOM      2  C   UNL     1      33.314 -12.079 -23.645  0.00  0.00    -0.040 C 
ATOM      3  C   UNL     1      33.351 -12.679 -25.046  0.00  0.00    +0.002 C 
ATOM      4  C   UNL     1      34.248 -13.004 -22.858  0.00  0.00    +0.070 C 
ATOM      5  C   UNL     1      33.339 -14.181 -24.768  0.00  0.00    +0.089 C 
ENDROOT
BRANCH   1   6
ATOM      6  C   UNL     1      34.497 -15.501 -22.973  0.00  0.00    +0.048 C 
ATOM      7  C   UNL     1      34.756 -15.608 -21.606  0.00  0.00    +0.014 C 
ATOM      8  C   UNL     1      34.684 -16.603 -23.807  0.00  0.00    +0.014 C 
ATOM      9  C   UNL     1      35.202 -16.817 -21.074  0.00  0.00    -0.002 C 
ATOM     10  C   UNL     1      35.131 -17.812 -23.275  0.00  0.00    -0.002 C 
ATOM     11  C   UNL     1      35.390 -17.919 -21.908  0.00  0.00    -0.011 C 
BRANCH  11  12
ATOM     12  C   UNL     1      35.868 -19.212 -21.340  0.00  0.00    +0.136 C 
BRANCH  12  14
ATOM     13  O   UNL     1      37.253 -19.308 -19.340  0.00  0.00    -0.250 OA
ATOM     14  C   UNL     1      37.148 -19.083 -20.537  0.00  0.00    +0.318 C 
BRANCH  14  15
ATOM     15  O   UNL     1      38.193 -18.679 -21.308  0.00  0.00    -0.480 OA
ATOM     16  H   UNL     1      38.179 -18.833 -22.233  0.00  0.00    +0.295 HD
ENDBRANCH  14  15
ENDBRANCH  12  14
ENDBRANCH  11  12
ENDBRANCH   1   6
BRANCH   2  17
ATOM     17  N   UNL     1      33.723 -10.686 -23.601  0.00  0.00    +0.390 N 
ATOM     18  H   UNL     1      34.201 -10.448 -24.469  0.00  0.00    -0.084 HD
ATOM     19  H   UNL     1      34.349 -10.549 -22.808  0.00  0.00    -0.084 HD
BRANCH  17  20
ATOM     20  C   UNL     1      32.549  -9.812 -23.438  0.00  0.00    -0.038 C 
ATOM     21  C   UNL     1      32.346  -9.000 -24.729  0.00  0.00    -0.019 C 
BRANCH  20  22
ATOM     22  C   UNL     1      32.659  -8.937 -22.228  0.00  0.00    -0.042 C 
ATOM     23  C   UNL     1      32.105  -9.304 -20.990  0.00  0.00    -0.006 C 
ATOM     24  C   UNL     1      33.339  -7.728 -22.371  0.00  0.00    -0.006 C 
ATOM     25  C   UNL     1      32.243  -8.433 -19.885  0.00  0.00    -0.000 C 
ATOM     26  C   UNL     1      31.417 -10.518 -20.828  0.00  0.00    -0.000 C 
ATOM     27  C   UNL     1      33.475  -6.871 -21.283  0.00  0.00    -0.000 C 
ATOM     28  C   UNL     1      32.930  -7.219 -20.047  0.00  0.00    -0.000 C 
ATOM     29  C   UNL     1      31.689  -8.801 -18.647  0.00  0.00    -0.000 C 
ATOM     30  C   UNL     1      30.873 -10.867 -19.591  0.00  0.00    -0.000 C 
ATOM     31  C   UNL     1      31.008 -10.010 -18.503  0.00  0.00    -0.000 C 
ENDBRANCH  20  22
ENDBRANCH  17  20
ENDBRANCH   2  17
TORSDOF 7
ENDMDL
MODEL 3
REMARK VINA RESULT:     -10.4      6.702     13.205
REMARK  Name = 71242808
REMARK  7 active torsions:
REMARK  status: ('A' for Active; 'I' for Inactive)
REMARK    1  A    between atoms: N_1  and  C_6
REMARK    2  A    between atoms: C_2  and  N_17
REMARK    3  A    between atoms: C_11  and  C_12
REMARK    4  A    between atoms: C_12  and  C_14
REMARK    5  A    between atoms: C_14  and  O_15
REMARK    6  A    between atoms: N_17  and  C_20
REMARK    7  A    between atoms: C_20  and  C_22
REMARK                            x       y       z     vdW  Elec       q    Type
REMARK                         _______ _______ _______ _____ _____    ______ ____
ROOT
ATOM      1  N   UNL     1      34.711 -19.967 -20.623  0.00  0.00    -0.310 N 
ATOM      2  C   UNL     1      33.900 -21.307 -18.870  0.00  0.00    -0.040 C 
ATOM      3  C   UNL     1      35.309 -21.765 -19.229  0.00  0.00    +0.002 C 
ATOM      4  C   UNL     1      33.463 -20.548 -20.127  0.00  0.00    +0.070 C 
ATOM      5  C   UNL     1      35.878 -20.552 -19.965  0.00  0.00    +0.089 C 
ENDROOT
BRANCH   1   6
ATOM      6  C   UNL     1      34.778 -18.990 -21.595  0.00  0.00    +0.048 C 
ATOM      7  C   UNL     1      35.195 -17.702 -21.260  0.00  0.00    +0.014 C 
ATOM      8  C   UNL     1      34.431 -19.291 -22.911  0.00  0.00    +0.014 C 
ATOM      9  C   UNL     1      35.264 -16.714 -22.241  0.00  0.00    -0.002 C 
ATOM     10  C   UNL     1      34.499 -18.303 -23.893  0.00  0.00    -0.002 C 
ATOM     11  C   UNL     1      34.916 -17.015 -23.558  0.00  0.00    -0.011 C 
BRANCH  11  12
ATOM     12  C   UNL     1      34.988 -15.959 -24.609  0.00  0.00    +0.136 C 
BRANCH  12  14
ATOM     13  O   UNL     1      33.265 -14.331 -24.054  0.00  0.00    -0.250 OA
ATOM     14  C   UNL     1      33.687 -15.204 -24.799  0.00  0.00    +0.318 C 
BRANCH  14  15
ATOM     15  O   UNL     1      33.021 -15.613 -25.911  0.00  0.00    -0.480 OA
ATOM     16  H   UNL     1      33.139 -15.158 -26.721  0.00  0.00    +0.295 HD
ENDBRANCH  14  15
ENDBRANCH  12  14
ENDBRANCH  11  12
ENDBRANCH   1   6
BRANCH   2  17
ATOM     17  N   UNL     1      33.007 -22.400 -18.527  0.00  0.00    +0.390 N 
ATOM     18  H   UNL     1      32.744 -22.899 -19.376  0.00  0.00    -0.084 HD
ATOM     19  H   UNL     1      32.177 -22.020 -18.072  0.00  0.00    -0.084 HD
BRANCH  17  20
ATOM     20  C   UNL     1      33.672 -23.334 -17.601  0.00  0.00    -0.038 C 
ATOM     21  C   UNL     1      33.707 -24.732 -18.242  0.00  0.00    -0.019 C 
BRANCH  20  22
ATOM     22  C   UNL     1      33.029 -23.343 -16.249  0.00  0.00    -0.042 C 
ATOM     23  C   UNL     1      33.745 -23.673 -15.086  0.00  0.00    -0.006 C 
ATOM     24  C   UNL     1      31.677 -23.008 -16.181  0.00  0.00    -0.006 C 
ATOM     25  C   UNL     1      33.080 -23.664 -13.838  0.00  0.00    -0.000 C 
ATOM     26  C   UNL     1      35.107 -24.011 -15.137  0.00  0.00    -0.000 C 
ATOM     27  C   UNL     1      31.023 -22.999 -14.953  0.00  0.00    -0.000 C 
ATOM     28  C   UNL     1      31.718 -23.325 -13.788  0.00  0.00    -0.000 C 
ATOM     29  C   UNL     1      33.795 -23.994 -12.676  0.00  0.00    -0.000 C 
ATOM     30  C   UNL     1      35.803 -24.337 -13.972  0.00  0.00    -0.000 C 
ATOM     31  C   UNL     1      35.148 -24.328 -12.744  0.00  0.00    -0.000 C 
ENDBRANCH  20  22
ENDBRANCH  17  20
ENDBRANCH   2  17
TORSDOF 7
ENDMDL
MODEL 4
REMARK VINA RESULT:     -10.3      2.031      2.781
REMARK  Name = 71242808
REMARK  7 active torsions:
REMARK  status: ('A' for Active; 'I' for Inactive)
REMARK    1  A    between atoms: N_1  and  C_6
REMARK    2  A    between atoms: C_2  and  N_17
REMARK    3  A    between atoms: C_11  and  C_12
REMARK    4  A    between atoms: C_12  and  C_14
REMARK    5  A    between atoms: C_14  and  O_15
REMARK    6  A    between atoms: N_17  and  C_20
REMARK    7  A    between atoms: C_20  and  C_22
REMARK                            x       y       z     vdW  Elec       q    Type
REMARK                         _______ _______ _______ _____ _____    ______ ____
ROOT
ATOM      1  N   UNL     1      32.436 -12.077 -21.854  0.00  0.00    -0.310 N 
ATOM      2  C   UNL     1      31.964  -9.879 -21.164  0.00  0.00    -0.040 C 
ATOM      3  C   UNL     1      30.944 -10.823 -20.537  0.00  0.00    +0.002 C 
ATOM      4  C   UNL     1      32.499 -10.699 -22.343  0.00  0.00    +0.070 C 
ATOM      5  C   UNL     1      31.639 -12.180 -20.632  0.00  0.00    +0.089 C 
ENDROOT
BRANCH   1   6
ATOM      6  C   UNL     1      33.049 -13.147 -22.471  0.00  0.00    +0.048 C 
ATOM      7  C   UNL     1      32.797 -13.413 -23.817  0.00  0.00    +0.014 C 
ATOM      8  C   UNL     1      33.920 -13.962 -21.750  0.00  0.00    +0.014 C 
ATOM      9  C   UNL     1      33.417 -14.494 -24.442  0.00  0.00    -0.002 C 
ATOM     10  C   UNL     1      34.540 -15.045 -22.374  0.00  0.00    -0.002 C 
ATOM     11  C   UNL     1      34.288 -15.311 -23.720  0.00  0.00    -0.011 C 
BRANCH  11  12
ATOM     12  C   UNL     1      34.951 -16.468 -24.387  0.00  0.00    +0.136 C 
BRANCH  12  14
ATOM     13  O   UNL     1      33.167 -17.917 -25.190  0.00  0.00    -0.250 OA
ATOM     14  C   UNL     1      34.095 -17.719 -24.419  0.00  0.00    +0.318 C 
BRANCH  14  15
ATOM     15  O   UNL     1      34.476 -18.619 -23.474  0.00  0.00    -0.480 OA
ATOM     16  H   UNL     1      34.144 -18.549 -22.600  0.00  0.00    +0.295 HD
ENDBRANCH  14  15
ENDBRANCH  12  14
ENDBRANCH  11  12
ENDBRANCH   1   6
BRANCH   2  17
ATOM     17  N   UNL     1      31.399  -8.603 -21.569  0.00  0.00    +0.390 N 
ATOM     18  H   UNL     1      30.701  -8.313 -20.885  0.00  0.00    -0.084 HD
ATOM     19  H   UNL     1      30.969  -8.708 -22.487  0.00  0.00    -0.084 HD
BRANCH  17  20
ATOM     20  C   UNL     1      32.455  -7.579 -21.650  0.00  0.00    -0.038 C 
ATOM     21  C   UNL     1      32.576  -6.877 -20.287  0.00  0.00    -0.019 C 
BRANCH  20  22
ATOM     22  C   UNL     1      32.220  -6.613 -22.769  0.00  0.00    -0.042 C 
ATOM     23  C   UNL     1      33.245  -6.226 -23.647  0.00  0.00    -0.006 C 
ATOM     24  C   UNL     1      30.930  -6.102 -22.913  0.00  0.00    -0.006 C 
ATOM     25  C   UNL     1      32.959  -5.308 -24.684  0.00  0.00    -0.000 C 
ATOM     26  C   UNL     1      34.549  -6.731 -23.517  0.00  0.00    -0.000 C 
ATOM     27  C   UNL     1      30.648  -5.199 -23.934  0.00  0.00    -0.000 C 
ATOM     28  C   UNL     1      31.655  -4.803 -24.815  0.00  0.00    -0.000 C 
ATOM     29  C   UNL     1      33.985  -4.921 -25.562  0.00  0.00    -0.000 C 
ATOM     30  C   UNL     1      35.557  -6.335 -24.398  0.00  0.00    -0.000 C 
ATOM     31  C   UNL     1      35.275  -5.432 -25.418  0.00  0.00    -0.000 C 
ENDBRANCH  20  22
ENDBRANCH  17  20
ENDBRANCH   2  17
TORSDOF 7
ENDMDL
MODEL 5
REMARK VINA RESULT:     -10.2      5.602      8.964
REMARK  Name = 71242808
REMARK  7 active torsions:
REMARK  status: ('A' for Active; 'I' for Inactive)
REMARK    1  A    between atoms: N_1  and  C_6
REMARK    2  A    between atoms: C_2  and  N_17
REMARK    3  A    between atoms: C_11  and  C_12
REMARK    4  A    between atoms: C_12  and  C_14
REMARK    5  A    between atoms: C_14  and  O_15
REMARK    6  A    between atoms: N_17  and  C_20
REMARK    7  A    between atoms: C_20  and  C_22
REMARK                            x       y       z     vdW  Elec       q    Type
REMARK                         _______ _______ _______ _____ _____    ______ ____
ROOT
ATOM      1  N   UNL     1      34.415 -21.076 -19.141  0.00  0.00    -0.310 N 
ATOM      2  C   UNL     1      34.534 -19.579 -20.950  0.00  0.00    -0.040 C 
ATOM      3  C   UNL     1      33.129 -20.168 -20.889  0.00  0.00    +0.002 C 
ATOM      4  C   UNL     1      35.359 -20.592 -20.150  0.00  0.00    +0.070 C 
ATOM      5  C   UNL     1      33.043 -20.680 -19.452  0.00  0.00    +0.089 C 
ENDROOT
BRANCH   1   6
ATOM      6  C   UNL     1      34.776 -21.816 -18.035  0.00  0.00    +0.048 C 
ATOM      7  C   UNL     1      36.057 -21.691 -17.500  0.00  0.00    +0.014 C 
ATOM      8  C   UNL     1      33.858 -22.690 -17.451  0.00  0.00    +0.014 C 
ATOM      9  C   UNL     1      36.422 -22.439 -16.381  0.00  0.00    -0.002 C 
ATOM     10  C   UNL     1      34.223 -23.439 -16.333  0.00  0.00    -0.002 C 
ATOM     11  C   UNL     1      35.505 -23.313 -15.798  0.00  0.00    -0.011 C 
BRANCH  11  12
ATOM     12  C   UNL     1      35.894 -24.115 -14.602  0.00  0.00    +0.136 C 
BRANCH  12  14
ATOM     13  O   UNL     1      38.290 -23.930 -14.215  0.00  0.00    -0.250 OA
ATOM     14  C   UNL     1      37.338 -24.576 -14.627  0.00  0.00    +0.318 C 
BRANCH  14  15
ATOM     15  O   UNL     1      37.465 -25.815 -15.173  0.00  0.00    -0.480 OA
ATOM     16  H   UNL     1      38.262 -26.058 -15.601  0.00  0.00    +0.295 HD
ENDBRANCH  14  15
ENDBRANCH  12  14
ENDBRANCH  11  12
ENDBRANCH   1   6
BRANCH   2  17
ATOM     17  N   UNL     1      35.024 -19.389 -22.304  0.00  0.00    +0.390 N 
ATOM     18  H   UNL     1      34.235 -19.215 -22.926  0.00  0.00    -0.084 HD
ATOM     19  H   UNL     1      35.522 -20.230 -22.597  0.00  0.00    -0.084 HD
BRANCH  17  20
ATOM     20  C   UNL     1      35.948 -18.244 -22.359  0.00  0.00    -0.038 C 
ATOM     21  C   UNL     1      37.170 -18.544 -21.474  0.00  0.00    -0.019 C 
BRANCH  20  22
ATOM     22  C   UNL     1      35.277 -16.958 -21.987  0.00  0.00    -0.042 C 
ATOM     23  C   UNL     1      34.637 -16.148 -22.940  0.00  0.00    -0.006 C 
ATOM     24  C   UNL     1      35.307 -16.586 -20.643  0.00  0.00    -0.006 C 
ATOM     25  C   UNL     1      34.022 -14.944 -22.524  0.00  0.00    -0.000 C 
ATOM     26  C   UNL     1      34.596 -16.508 -24.297  0.00  0.00    -0.000 C 
ATOM     27  C   UNL     1      34.702 -15.402 -20.234  0.00  0.00    -0.000 C 
ATOM     28  C   UNL     1      34.063 -14.585 -21.167  0.00  0.00    -0.000 C 
ATOM     29  C   UNL     1      33.383 -14.134 -23.477  0.00  0.00    -0.000 C 
ATOM     30  C   UNL     1      33.957 -15.691 -25.231  0.00  0.00    -0.000 C 
ATOM     31  C   UNL     1      33.352 -14.506 -24.821  0.00  0.00    -0.000 C 
ENDBRANCH  20  22
ENDBRANCH  17  20
ENDBRANCH   2  17
TORSDOF 7
ENDMDL
MODEL 6
REMARK VINA RESULT:     -10.1      6.414     12.898
REMARK  Name = 71242808
REMARK  7 active torsions:
REMARK  status: ('A' for Active; 'I' for Inactive)
REMARK    1  A    between atoms: N_1  and  C_6
REMARK    2  A    between atoms: C_2  and  N_17
REMARK    3  A    between atoms: C_11  and  C_12
REMARK    4  A    between atoms: C_12  and  C_14
REMARK    5  A    between atoms: C_14  and  O_15
REMARK    6  A    between atoms: N_17  and  C_20
REMARK    7  A    between atoms: C_20  and  C_22
REMARK                            x       y       z     vdW  Elec       q    Type
REMARK                         _______ _______ _______ _____ _____    ______ ____
ROOT
ATOM      1  N   UNL     1      35.419 -19.752 -20.792  0.00  0.00    -0.310 N 
ATOM      2  C   UNL     1      34.969 -21.383 -19.160  0.00  0.00    -0.040 C 
ATOM      3  C   UNL     1      36.479 -21.207 -19.278  0.00  0.00    +0.002 C 
ATOM      4  C   UNL     1      34.460 -20.814 -20.488  0.00  0.00    +0.070 C 
ATOM      5  C   UNL     1      36.606 -19.837 -19.942  0.00  0.00    +0.089 C 
ENDROOT
BRANCH   1   6
ATOM      6  C   UNL     1      35.230 -18.791 -21.763  0.00  0.00    +0.048 C 
ATOM      7  C   UNL     1      35.546 -17.459 -21.497  0.00  0.00    +0.014 C 
ATOM      8  C   UNL     1      34.723 -19.151 -23.011  0.00  0.00    +0.014 C 
ATOM      9  C   UNL     1      35.355 -16.487 -22.478  0.00  0.00    -0.002 C 
ATOM     10  C   UNL     1      34.531 -18.180 -23.993  0.00  0.00    -0.002 C 
ATOM     11  C   UNL     1      34.847 -16.847 -23.726  0.00  0.00    -0.011 C 
BRANCH  11  12
ATOM     12  C   UNL     1      34.641 -15.809 -24.776  0.00  0.00    +0.136 C 
BRANCH  12  14
ATOM     13  O   UNL     1      33.190 -14.292 -23.542  0.00  0.00    -0.250 OA
ATOM     14  C   UNL     1      33.410 -14.953 -24.548  0.00  0.00    +0.318 C 
BRANCH  14  15
ATOM     15  O   UNL     1      32.555 -15.001 -25.604  0.00  0.00    -0.480 OA
ATOM     16  H   UNL     1      32.130 -15.807 -25.825  0.00  0.00    +0.295 HD
ENDBRANCH  14  15
ENDBRANCH  12  14
ENDBRANCH  11  12
ENDBRANCH   1   6
BRANCH   2  17
ATOM     17  N   UNL     1      34.563 -22.760 -18.938  0.00  0.00    +0.390 N 
ATOM     18  H   UNL     1      35.314 -23.259 -18.463  0.00  0.00    -0.084 HD
ATOM     19  H   UNL     1      34.366 -23.197 -19.838  0.00  0.00    -0.084 HD
BRANCH  17  20
ATOM     20  C   UNL     1      33.347 -22.807 -18.108  0.00  0.00    -0.038 C 
ATOM     21  C   UNL     1      32.525 -21.530 -18.351  0.00  0.00    -0.019 C 
BRANCH  20  22
ATOM     22  C   UNL     1      33.659 -23.016 -16.659  0.00  0.00    -0.042 C 
ATOM     23  C   UNL     1      32.651 -23.167 -15.693  0.00  0.00    -0.006 C 
ATOM     24  C   UNL     1      35.005 -23.056 -16.294  0.00  0.00    -0.006 C 
ATOM     25  C   UNL     1      33.012 -23.360 -14.339  0.00  0.00    -0.000 C 
ATOM     26  C   UNL     1      31.291 -23.130 -16.043  0.00  0.00    -0.000 C 
ATOM     27  C   UNL     1      35.360 -23.246 -14.962  0.00  0.00    -0.000 C 
ATOM     28  C   UNL     1      34.372 -23.397 -13.989  0.00  0.00    -0.000 C 
ATOM     29  C   UNL     1      32.003 -23.511 -13.374  0.00  0.00    -0.000 C 
ATOM     30  C   UNL     1      30.302 -23.282 -15.071  0.00  0.00    -0.000 C 
ATOM     31  C   UNL     1      30.657 -23.472 -13.739  0.00  0.00    -0.000 C 
ENDBRANCH  20  22
ENDBRANCH  17  20
ENDBRANCH   2  17
TORSDOF 7
ENDMDL
MODEL 7
REMARK VINA RESULT:     -10.0      1.893      3.325
REMARK  Name = 71242808
REMARK  7 active torsions:
REMARK  status: ('A' for Active; 'I' for Inactive)
REMARK    1  A    between atoms: N_1  and  C_6
REMARK    2  A    between atoms: C_2  and  N_17
REMARK    3  A    between atoms: C_11  and  C_12
REMARK    4  A    between atoms: C_12  and  C_14
REMARK    5  A    between atoms: C_14  and  O_15
REMARK    6  A    between atoms: N_17  and  C_20
REMARK    7  A    between atoms: C_20  and  C_22
REMARK                            x       y       z     vdW  Elec       q    Type
REMARK                         _______ _______ _______ _____ _____    ______ ____
ROOT
ATOM      1  N   UNL     1      32.494 -12.142 -22.089  0.00  0.00    -0.310 N 
ATOM      2  C   UNL     1      32.047  -9.926 -21.444  0.00  0.00    -0.040 C 
ATOM      3  C   UNL     1      30.937 -10.827 -20.915  0.00  0.00    +0.002 C 
ATOM      4  C   UNL     1      32.657 -10.770 -22.569  0.00  0.00    +0.070 C 
ATOM      5  C   UNL     1      31.585 -12.211 -20.946  0.00  0.00    +0.089 C 
ENDROOT
BRANCH   1   6
ATOM      6  C   UNL     1      33.119 -13.237 -22.648  0.00  0.00    +0.048 C 
ATOM      7  C   UNL     1      34.020 -13.987 -21.891  0.00  0.00    +0.014 C 
ATOM      8  C   UNL     1      32.850 -13.595 -23.969  0.00  0.00    +0.014 C 
ATOM      9  C   UNL     1      34.651 -15.095 -22.456  0.00  0.00    -0.002 C 
ATOM     10  C   UNL     1      33.482 -14.703 -24.534  0.00  0.00    -0.002 C 
ATOM     11  C   UNL     1      34.383 -15.452 -23.777  0.00  0.00    -0.011 C 
BRANCH  11  12
ATOM     12  C   UNL     1      35.059 -16.636 -24.382  0.00  0.00    +0.136 C 
BRANCH  12  14
ATOM     13  O   UNL     1      34.637 -18.698 -23.157  0.00  0.00    -0.250 OA
ATOM     14  C   UNL     1      34.361 -17.949 -24.084  0.00  0.00    +0.318 C 
BRANCH  14  15
ATOM     15  O   UNL     1      33.371 -18.213 -24.979  0.00  0.00    -0.480 OA
ATOM     16  H   UNL     1      33.533 -18.114 -25.896  0.00  0.00    +0.295 HD
ENDBRANCH  14  15
ENDBRANCH  12  14
ENDBRANCH  11  12
ENDBRANCH   1   6
BRANCH   2  17
ATOM     17  N   UNL     1      31.573  -8.630 -21.898  0.00  0.00    +0.390 N 
ATOM     18  H   UNL     1      30.632  -8.473 -21.541  0.00  0.00    -0.084 HD
ATOM     19  H   UNL     1      31.567  -8.618 -22.918  0.00  0.00    -0.084 HD
BRANCH  17  20
ATOM     20  C   UNL     1      32.462  -7.561 -21.414  0.00  0.00    -0.038 C 
ATOM     21  C   UNL     1      31.615  -6.483 -20.717  0.00  0.00    -0.019 C 
BRANCH  20  22
ATOM     22  C   UNL     1      33.315  -6.997 -22.507  0.00  0.00    -0.042 C 
ATOM     23  C   UNL     1      32.787  -6.173 -23.514  0.00  0.00    -0.006 C 
ATOM     24  C   UNL     1      34.672  -7.320 -22.492  0.00  0.00    -0.006 C 
ATOM     25  C   UNL     1      33.646  -5.672 -24.520  0.00  0.00    -0.000 C 
ATOM     26  C   UNL     1      31.424  -5.836 -23.544  0.00  0.00    -0.000 C 
ATOM     27  C   UNL     1      35.517  -6.827 -23.482  0.00  0.00    -0.000 C 
ATOM     28  C   UNL     1      35.009  -6.009 -24.491  0.00  0.00    -0.000 C 
ATOM     29  C   UNL     1      33.117  -4.849 -25.528  0.00  0.00    -0.000 C 
ATOM     30  C   UNL     1      30.915  -5.017 -24.553  0.00  0.00    -0.000 C 
ATOM     31  C   UNL     1      31.760  -4.524 -25.543  0.00  0.00    -0.000 C 
ENDBRANCH  20  22
ENDBRANCH  17  20
ENDBRANCH   2  17
TORSDOF 7
ENDMDL
MODEL 8
REMARK VINA RESULT:     -10.0      2.741      5.072
REMARK  Name = 71242808
REMARK  7 active torsions:
REMARK  status: ('A' for Active; 'I' for Inactive)
REMARK    1  A    between atoms: N_1  and  C_6
REMARK    2  A    between atoms: C_2  and  N_17
REMARK    3  A    between atoms: C_11  and  C_12
REMARK    4  A    between atoms: C_12  and  C_14
REMARK    5  A    between atoms: C_14  and  O_15
REMARK    6  A    between atoms: N_17  and  C_20
REMARK    7  A    between atoms: C_20  and  C_22
REMARK                            x       y       z     vdW  Elec       q    Type
REMARK                         _______ _______ _______ _____ _____    ______ ____
ROOT
ATOM      1  N   UNL     1      35.033 -17.720 -22.069  0.00  0.00    -0.310 N 
ATOM      2  C   UNL     1      34.337 -15.663 -22.971  0.00  0.00    -0.040 C 
ATOM      3  C   UNL     1      35.193 -16.389 -24.002  0.00  0.00    +0.002 C 
ATOM      4  C   UNL     1      34.739 -16.346 -21.659  0.00  0.00    +0.070 C 
ATOM      5  C   UNL     1      35.138 -17.839 -23.522  0.00  0.00    +0.089 C 
ENDROOT
BRANCH   1   6
ATOM      6  C   UNL     1      35.193 -18.772 -21.192  0.00  0.00    +0.048 C 
ATOM      7  C   UNL     1      34.086 -19.518 -20.788  0.00  0.00    +0.014 C 
ATOM      8  C   UNL     1      36.463 -19.092 -20.711  0.00  0.00    +0.014 C 
ATOM      9  C   UNL     1      34.248 -20.582 -19.902  0.00  0.00    -0.002 C 
ATOM     10  C   UNL     1      36.625 -20.156 -19.825  0.00  0.00    -0.002 C 
ATOM     11  C   UNL     1      35.517 -20.901 -19.420  0.00  0.00    -0.011 C 
BRANCH  11  12
ATOM     12  C   UNL     1      35.692 -22.039 -18.472  0.00  0.00    +0.136 C 
BRANCH  12  14
ATOM     13  O   UNL     1      33.677 -22.572 -17.214  0.00  0.00    -0.250 OA
ATOM     14  C   UNL     1      34.403 -22.781 -18.175  0.00  0.00    +0.318 C 
BRANCH  14  15
ATOM     15  O   UNL     1      34.136 -23.729 -19.112  0.00  0.00    -0.480 OA
ATOM     16  H   UNL     1      33.827 -23.474 -19.960  0.00  0.00    +0.295 HD
ENDBRANCH  14  15
ENDBRANCH  12  14
ENDBRANCH  11  12
ENDBRANCH   1   6
BRANCH   2  17
ATOM     17  N   UNL     1      34.549 -14.226 -22.952  0.00  0.00    +0.390 N 
ATOM     18  H   UNL     1      35.329 -13.993 -23.565  0.00  0.00    -0.084 HD
ATOM     19  H   UNL     1      34.754 -13.934 -21.996  0.00  0.00    -0.084 HD
BRANCH  17  20
ATOM     20  C   UNL     1      33.340 -13.524 -23.416  0.00  0.00    -0.038 C 
ATOM     21  C   UNL     1      33.088 -13.884 -24.890  0.00  0.00    -0.019 C 
BRANCH  20  22
ATOM     22  C   UNL     1      33.427 -12.045 -23.197  0.00  0.00    -0.042 C 
ATOM     23  C   UNL     1      32.627 -11.384 -22.251  0.00  0.00    -0.006 C 
ATOM     24  C   UNL     1      34.341 -11.336 -23.976  0.00  0.00    -0.006 C 
ATOM     25  C   UNL     1      32.756  -9.984 -22.093  0.00  0.00    -0.000 C 
ATOM     26  C   UNL     1      31.702 -12.082 -21.458  0.00  0.00    -0.000 C 
ATOM     27  C   UNL     1      34.467  -9.959 -23.821  0.00  0.00    -0.000 C 
ATOM     28  C   UNL     1      33.681  -9.285 -22.887  0.00  0.00    -0.000 C 
ATOM     29  C   UNL     1      31.956  -9.322 -21.147  0.00  0.00    -0.000 C 
ATOM     30  C   UNL     1      30.915 -11.409 -20.522  0.00  0.00    -0.000 C 
ATOM     31  C   UNL     1      31.042 -10.032 -20.367  0.00  0.00    -0.000 C 
ENDBRANCH  20  22
ENDBRANCH  17  20
ENDBRANCH   2  17
TORSDOF 7
ENDMDL
MODEL 9
REMARK VINA RESULT:      -9.9      1.812      2.270
REMARK  Name = 71242808
REMARK  7 active torsions:
REMARK  status: ('A' for Active; 'I' for Inactive)
REMARK    1  A    between atoms: N_1  and  C_6
REMARK    2  A    between atoms: C_2  and  N_17
REMARK    3  A    between atoms: C_11  and  C_12
REMARK    4  A    between atoms: C_12  and  C_14
REMARK    5  A    between atoms: C_14  and  O_15
REMARK    6  A    between atoms: N_17  and  C_20
REMARK    7  A    between atoms: C_20  and  C_22
REMARK                            x       y       z     vdW  Elec       q    Type
REMARK                         _______ _______ _______ _____ _____    ______ ____
ROOT
ATOM      1  N   UNL     1      34.150 -14.632 -23.211  0.00  0.00    -0.310 N 
ATOM      2  C   UNL     1      33.319 -12.439 -23.384  0.00  0.00    -0.040 C 
ATOM      3  C   UNL     1      33.420 -13.040 -24.782  0.00  0.00    +0.002 C 
ATOM      4  C   UNL     1      34.270 -13.322 -22.570  0.00  0.00    +0.070 C 
ATOM      5  C   UNL     1      33.464 -14.541 -24.499  0.00  0.00    +0.089 C 
ENDROOT
BRANCH   1   6
ATOM      6  C   UNL     1      34.628 -15.807 -22.670  0.00  0.00    +0.048 C 
ATOM      7  C   UNL     1      34.873 -16.905 -23.494  0.00  0.00    +0.014 C 
ATOM      8  C   UNL     1      34.867 -15.896 -21.299  0.00  0.00    +0.014 C 
ATOM      9  C   UNL     1      35.357 -18.093 -22.946  0.00  0.00    -0.002 C 
ATOM     10  C   UNL     1      35.350 -17.084 -20.751  0.00  0.00    -0.002 C 
ATOM     11  C   UNL     1      35.595 -18.183 -21.575  0.00  0.00    -0.011 C 
BRANCH  11  12
ATOM     12  C   UNL     1      36.111 -19.453 -20.988  0.00  0.00    +0.136 C 
BRANCH  12  14
ATOM     13  O   UNL     1      33.851 -20.236 -20.535  0.00  0.00    -0.250 OA
ATOM     14  C   UNL     1      35.047 -20.269 -20.282  0.00  0.00    +0.318 C 
BRANCH  14  15
ATOM     15  O   UNL     1      35.575 -21.059 -19.309  0.00  0.00    -0.480 OA
ATOM     16  H   UNL     1      35.312 -20.942 -18.417  0.00  0.00    +0.295 HD
ENDBRANCH  14  15
ENDBRANCH  12  14
ENDBRANCH  11  12
ENDBRANCH   1   6
BRANCH   2  17
ATOM     17  N   UNL     1      33.668 -11.030 -23.334  0.00  0.00    +0.390 N 
ATOM     18  H   UNL     1      33.645 -10.644 -24.277  0.00  0.00    -0.084 HD
ATOM     19  H   UNL     1      34.603 -10.934 -22.938  0.00  0.00    -0.084 HD
BRANCH  17  20
ATOM     20  C   UNL     1      32.714 -10.296 -22.485  0.00  0.00    -0.038 C 
ATOM     21  C   UNL     1      31.467 -11.170 -22.264  0.00  0.00    -0.019 C 
BRANCH  20  22
ATOM     22  C   UNL     1      32.374  -8.952 -23.050  0.00  0.00    -0.042 C 
ATOM     23  C   UNL     1      32.410  -7.785 -22.269  0.00  0.00    -0.006 C 
ATOM     24  C   UNL     1      32.014  -8.895 -24.396  0.00  0.00    -0.006 C 
ATOM     25  C   UNL     1      32.077  -6.545 -22.862  0.00  0.00    -0.000 C 
ATOM     26  C   UNL     1      32.771  -7.823 -20.912  0.00  0.00    -0.000 C 
ATOM     27  C   UNL     1      31.686  -7.675 -24.979  0.00  0.00    -0.000 C 
ATOM     28  C   UNL     1      31.716  -6.506 -24.218  0.00  0.00    -0.000 C 
ATOM     29  C   UNL     1      32.113  -5.378 -22.081  0.00  0.00    -0.000 C 
ATOM     30  C   UNL     1      32.802  -6.654 -20.151  0.00  0.00    -0.000 C 
ATOM     31  C   UNL     1      32.474  -5.434 -20.734  0.00  0.00    -0.000 C 
ENDBRANCH  20  22
ENDBRANCH  17  20
ENDBRANCH   2  17
TORSDOF 7
ENDMDL
