MODEL 1
REMARK VINA RESULT:     -11.5      0.000      0.000
REMARK  Name = 24875320
REMARK  6 active torsions:
REMARK  status: ('A' for Active; 'I' for Inactive)
REMARK    1  A    between atoms: C_1  and  N_22
REMARK    2  A    between atoms: C_3  and  C_10
REMARK    3  A    between atoms: N_9  and  C_12
REMARK    4  A    between atoms: C_14  and  C_21
REMARK    5  A    between atoms: N_22  and  C_25
REMARK    6  A    between atoms: C_28  and  C_32
REMARK                            x       y       z     vdW  Elec       q    Type
REMARK                         _______ _______ _______ _____ _____    ______ ____
ROOT
ATOM      1  C   UNL     1      34.628 -22.824 -17.016  0.00  0.00    +0.044 C 
ATOM      2  C   UNL     1      35.940 -22.677 -16.566  0.00  0.00    -0.008 C 
ATOM      3  C   UNL     1      35.048 -21.213 -18.768  0.00  0.00    +0.055 C 
ATOM      4  C   UNL     1      34.182 -22.091 -18.116  0.00  0.00    +0.019 C 
ATOM      5  C   UNL     1      36.806 -21.799 -17.217  0.00  0.00    -0.003 C 
ATOM      6  C   UNL     1      36.361 -21.066 -18.317  0.00  0.00    +0.004 C 
ATOM      7  C   UNL     1      36.445 -23.449 -15.391  0.00  0.00    +0.032 C 
ENDROOT
BRANCH   3  10
ATOM      8  O   UNL     1      33.535 -20.794 -20.484  0.00  0.00    -0.270 OA
ATOM      9  N   UNL     1      35.392 -19.372 -20.300  0.00  0.00    -0.280 N 
ATOM     10  C   UNL     1      34.583 -20.449 -19.914  0.00  0.00    +0.250 C 
ATOM     11  H   UNL     1      36.194 -19.219 -19.749  0.00  0.00    +0.155 HD
BRANCH   9  12
ATOM     12  C   UNL     1      35.208 -18.474 -21.381  0.00  0.00    +0.050 C 
ATOM     13  C   UNL     1      34.974 -17.121 -21.132  0.00  0.00    +0.019 C 
ATOM     14  C   UNL     1      34.793 -16.237 -22.196  0.00  0.00    +0.073 C 
ATOM     15  C   UNL     1      35.261 -18.942 -22.693  0.00  0.00    +0.015 C 
ATOM     16  C   UNL     1      34.846 -16.707 -23.509  0.00  0.00    +0.004 C 
ATOM     17  C   UNL     1      35.080 -18.059 -23.757  0.00  0.00    +0.001 C 
BRANCH  14  21
ATOM     18  F   UNL     1      35.013 -13.965 -22.911  0.00  0.00    -0.166 F 
ATOM     19  F   UNL     1      33.218 -14.480 -21.808  0.00  0.00    -0.166 F 
ATOM     20  F   UNL     1      35.129 -14.361 -20.776  0.00  0.00    -0.166 F 
ATOM     21  C   UNL     1      34.543 -14.792 -21.931  0.00  0.00    +0.419 C 
ENDBRANCH  14  21
ENDBRANCH   9  12
ENDBRANCH   3  10
BRANCH   1  22
ATOM     22  N   UNL     1      33.738 -23.709 -16.370  0.00  0.00    -0.312 N 
ATOM     23  H   UNL     1      33.910 -24.658 -16.567  0.00  0.00    +0.152 HD
BRANCH  22  25
ATOM     24  N   UNL     1      31.810 -23.390 -13.236  0.00  0.00    -0.241 NA
ATOM     25  C   UNL     1      32.651 -23.500 -15.500  0.00  0.00    +0.068 C 
ATOM     26  C   UNL     1      31.385 -23.206 -15.993  0.00  0.00    +0.022 C 
ATOM     27  C   UNL     1      32.810 -23.580 -14.126  0.00  0.00    +0.113 C 
ATOM     28  C   UNL     1      30.330 -23.003 -15.109  0.00  0.00    +0.073 C 
ATOM     29  C   UNL     1      30.593 -23.106 -13.752  0.00  0.00    +0.103 C 
BRANCH  28  32
ATOM     30  O   UNL     1      28.213 -21.986 -14.933  0.00  0.00    -0.270 OA
ATOM     31  N   UNL     1      28.621 -23.205 -16.833  0.00  0.00    -0.325 N 
ATOM     32  C   UNL     1      28.996 -22.695 -15.592  0.00  0.00    +0.244 C 
ATOM     33  H   UNL     1      27.724 -23.016 -17.192  0.00  0.00    +0.145 HD
ATOM     34  H   UNL     1      29.253 -23.754 -17.351  0.00  0.00    +0.145 HD
ENDBRANCH  28  32
ENDBRANCH  22  25
ENDBRANCH   1  22
TORSDOF 6
ENDMDL
MODEL 2
REMARK VINA RESULT:     -11.5      3.651      5.633
REMARK  Name = 24875320
REMARK  6 active torsions:
REMARK  status: ('A' for Active; 'I' for Inactive)
REMARK    1  A    between atoms: C_1  and  N_22
REMARK    2  A    between atoms: C_3  and  C_10
REMARK    3  A    between atoms: N_9  and  C_12
REMARK    4  A    between atoms: C_14  and  C_21
REMARK    5  A    between atoms: N_22  and  C_25
REMARK    6  A    between atoms: C_28  and  C_32
REMARK                            x       y       z     vdW  Elec       q    Type
REMARK                         _______ _______ _______ _____ _____    ______ ____
ROOT
ATOM      1  C   UNL     1      34.511 -23.042 -14.972  0.00  0.00    +0.044 C 
ATOM      2  C   UNL     1      33.169 -23.408 -14.862  0.00  0.00    -0.008 C 
ATOM      3  C   UNL     1      34.208 -22.641 -17.336  0.00  0.00    +0.055 C 
ATOM      4  C   UNL     1      35.030 -22.660 -16.209  0.00  0.00    +0.019 C 
ATOM      5  C   UNL     1      32.347 -23.391 -15.988  0.00  0.00    -0.003 C 
ATOM      6  C   UNL     1      32.866 -23.008 -17.225  0.00  0.00    +0.004 C 
ATOM      7  C   UNL     1      32.586 -23.822 -13.550  0.00  0.00    +0.032 C 
ENDROOT
BRANCH   3  10
ATOM      8  O   UNL     1      34.961 -23.113 -19.485  0.00  0.00    -0.270 OA
ATOM      9  N   UNL     1      35.013 -20.875 -18.781  0.00  0.00    -0.280 N 
ATOM     10  C   UNL     1      34.749 -22.243 -18.624  0.00  0.00    +0.250 C 
ATOM     11  H   UNL     1      34.792 -20.305 -18.009  0.00  0.00    +0.155 HD
BRANCH   9  12
ATOM     12  C   UNL     1      35.558 -20.205 -19.904  0.00  0.00    +0.050 C 
ATOM     13  C   UNL     1      34.802 -20.064 -21.068  0.00  0.00    +0.019 C 
ATOM     14  C   UNL     1      35.338 -19.404 -22.173  0.00  0.00    +0.073 C 
ATOM     15  C   UNL     1      36.852 -19.687 -19.847  0.00  0.00    +0.015 C 
ATOM     16  C   UNL     1      36.633 -18.886 -22.115  0.00  0.00    +0.004 C 
ATOM     17  C   UNL     1      37.389 -19.028 -20.952  0.00  0.00    +0.001 C 
BRANCH  14  21
ATOM     18  F   UNL     1      33.187 -19.396 -23.219  0.00  0.00    -0.166 F 
ATOM     19  F   UNL     1      34.675 -18.033 -24.016  0.00  0.00    -0.166 F 
ATOM     20  F   UNL     1      34.860 -20.171 -24.372  0.00  0.00    -0.166 F 
ATOM     21  C   UNL     1      34.531 -19.253 -23.417  0.00  0.00    +0.419 C 
ENDBRANCH  14  21
ENDBRANCH   9  12
ENDBRANCH   3  10
BRANCH   1  22
ATOM     22  N   UNL     1      35.357 -23.054 -13.842  0.00  0.00    -0.312 N 
ATOM     23  H   UNL     1      35.357 -22.207 -13.338  0.00  0.00    +0.152 HD
BRANCH  22  25
ATOM     24  N   UNL     1      36.629 -25.651 -11.546  0.00  0.00    -0.241 NA
ATOM     25  C   UNL     1      36.202 -24.038 -13.294  0.00  0.00    +0.068 C 
ATOM     26  C   UNL     1      37.400 -24.378 -13.912  0.00  0.00    +0.022 C 
ATOM     27  C   UNL     1      35.865 -24.698 -12.124  0.00  0.00    +0.113 C 
ATOM     28  C   UNL     1      38.214 -25.355 -13.348  0.00  0.00    +0.073 C 
ATOM     29  C   UNL     1      37.787 -25.956 -12.175  0.00  0.00    +0.103 C 
BRANCH  28  32
ATOM     30  O   UNL     1      40.215 -26.592 -13.462  0.00  0.00    -0.270 OA
ATOM     31  N   UNL     1      39.816 -25.112 -15.168  0.00  0.00    -0.325 N 
ATOM     32  C   UNL     1      39.471 -25.732 -13.969  0.00  0.00    +0.244 C 
ATOM     33  H   UNL     1      40.661 -25.344 -15.617  0.00  0.00    +0.145 HD
ATOM     34  H   UNL     1      39.213 -24.444 -15.567  0.00  0.00    +0.145 HD
ENDBRANCH  28  32
ENDBRANCH  22  25
ENDBRANCH   1  22
TORSDOF 6
ENDMDL
MODEL 3
REMARK VINA RESULT:     -11.4      4.286      7.952
REMARK  Name = 24875320
REMARK  6 active torsions:
REMARK  status: ('A' for Active; 'I' for Inactive)
REMARK    1  A    between atoms: C_1  and  N_22
REMARK    2  A    between atoms: C_3  and  C_10
REMARK    3  A    between atoms: N_9  and  C_12
REMARK    4  A    between atoms: C_14  and  C_21
REMARK    5  A    between atoms: N_22  and  C_25
REMARK    6  A    between atoms: C_28  and  C_32
REMARK                            x       y       z     vdW  Elec       q    Type
REMARK                         _______ _______ _______ _____ _____    ______ ____
ROOT
ATOM      1  C   UNL     1      35.172 -16.865 -22.956  0.00  0.00    +0.044 C 
ATOM      2  C   UNL     1      34.538 -17.375 -24.089  0.00  0.00    -0.008 C 
ATOM      3  C   UNL     1      34.039 -14.754 -23.272  0.00  0.00    +0.055 C 
ATOM      4  C   UNL     1      34.923 -15.554 -22.548  0.00  0.00    +0.019 C 
ATOM      5  C   UNL     1      33.655 -16.575 -24.813  0.00  0.00    -0.003 C 
ATOM      6  C   UNL     1      33.405 -15.265 -24.406  0.00  0.00    +0.004 C 
ATOM      7  C   UNL     1      34.786 -18.775 -24.548  0.00  0.00    +0.032 C 
ENDROOT
BRANCH   3  10
ATOM      8  O   UNL     1      34.439 -12.464 -23.352  0.00  0.00    -0.270 OA
ATOM      9  N   UNL     1      32.796 -13.230 -21.862  0.00  0.00    -0.280 N 
ATOM     10  C   UNL     1      33.780 -13.388 -22.848  0.00  0.00    +0.250 C 
ATOM     11  H   UNL     1      32.358 -14.058 -21.558  0.00  0.00    +0.155 HD
BRANCH   9  12
ATOM     12  C   UNL     1      32.351 -12.035 -21.244  0.00  0.00    +0.050 C 
ATOM     13  C   UNL     1      32.150 -10.886 -22.009  0.00  0.00    +0.019 C 
ATOM     14  C   UNL     1      31.712  -9.710 -21.400  0.00  0.00    +0.073 C 
ATOM     15  C   UNL     1      32.114 -12.008 -19.869  0.00  0.00    +0.015 C 
ATOM     16  C   UNL     1      31.475  -9.684 -20.025  0.00  0.00    +0.004 C 
ATOM     17  C   UNL     1      31.676 -10.832 -19.261  0.00  0.00    +0.001 C 
BRANCH  14  21
ATOM     18  F   UNL     1      32.576  -8.134 -22.978  0.00  0.00    -0.166 F 
ATOM     19  F   UNL     1      30.458  -8.587 -23.098  0.00  0.00    -0.166 F 
ATOM     20  F   UNL     1      31.220  -7.385 -21.453  0.00  0.00    -0.166 F 
ATOM     21  C   UNL     1      31.497  -8.482 -22.217  0.00  0.00    +0.419 C 
ENDBRANCH  14  21
ENDBRANCH   9  12
ENDBRANCH   3  10
BRANCH   1  22
ATOM     22  N   UNL     1      36.069 -17.661 -22.210  0.00  0.00    -0.312 N 
ATOM     23  H   UNL     1      37.017 -17.445 -22.369  0.00  0.00    +0.152 HD
BRANCH  22  25
ATOM     24  N   UNL     1      36.810 -20.202 -19.635  0.00  0.00    -0.241 NA
ATOM     25  C   UNL     1      35.874 -18.702 -21.283  0.00  0.00    +0.068 C 
ATOM     26  C   UNL     1      34.615 -19.257 -21.084  0.00  0.00    +0.022 C 
ATOM     27  C   UNL     1      36.929 -19.205 -20.540  0.00  0.00    +0.113 C 
ATOM     28  C   UNL     1      34.452 -20.284 -20.161  0.00  0.00    +0.073 C 
ATOM     29  C   UNL     1      35.571 -20.717 -19.469  0.00  0.00    +0.103 C 
BRANCH  28  32
ATOM     30  O   UNL     1      32.137 -20.498 -20.541  0.00  0.00    -0.270 OA
ATOM     31  N   UNL     1      33.071 -21.929 -19.011  0.00  0.00    -0.325 N 
ATOM     32  C   UNL     1      33.151 -20.885 -19.930  0.00  0.00    +0.244 C 
ATOM     33  H   UNL     1      32.204 -22.360 -18.830  0.00  0.00    +0.145 HD
ATOM     34  H   UNL     1      33.881 -22.236 -18.543  0.00  0.00    +0.145 HD
ENDBRANCH  28  32
ENDBRANCH  22  25
ENDBRANCH   1  22
TORSDOF 6
ENDMDL
MODEL 4
REMARK VINA RESULT:     -11.3      4.206      7.968
REMARK  Name = 24875320
REMARK  6 active torsions:
REMARK  status: ('A' for Active; 'I' for Inactive)
REMARK    1  A    between atoms: C_1  and  N_22
REMARK    2  A    between atoms: C_3  and  C_10
REMARK    3  A    between atoms: N_9  and  C_12
REMARK    4  A    between atoms: C_14  and  C_21
REMARK    5  A    between atoms: N_22  and  C_25
REMARK    6  A    between atoms: C_28  and  C_32
REMARK                            x       y       z     vdW  Elec       q    Type
REMARK                         _______ _______ _______ _____ _____    ______ ____
ROOT
ATOM      1  C   UNL     1      35.238 -17.042 -22.959  0.00  0.00    +0.044 C 
ATOM      2  C   UNL     1      34.536 -17.432 -24.099  0.00  0.00    -0.008 C 
ATOM      3  C   UNL     1      34.214 -14.856 -23.076  0.00  0.00    +0.055 C 
ATOM      4  C   UNL     1      35.077 -15.754 -22.448  0.00  0.00    +0.019 C 
ATOM      5  C   UNL     1      33.673 -16.535 -24.728  0.00  0.00    -0.003 C 
ATOM      6  C   UNL     1      33.512 -15.247 -24.217  0.00  0.00    +0.004 C 
ATOM      7  C   UNL     1      34.688 -18.805 -24.668  0.00  0.00    +0.032 C 
ENDROOT
BRANCH   3  10
ATOM      8  O   UNL     1      34.415 -13.276 -21.382  0.00  0.00    -0.270 OA
ATOM      9  N   UNL     1      33.450 -12.584 -23.406  0.00  0.00    -0.280 N 
ATOM     10  C   UNL     1      34.048 -13.514 -22.544  0.00  0.00    +0.250 C 
ATOM     11  H   UNL     1      33.213 -12.920 -24.300  0.00  0.00    +0.155 HD
BRANCH   9  12
ATOM     12  C   UNL     1      33.142 -11.223 -23.158  0.00  0.00    +0.050 C 
ATOM     13  C   UNL     1      34.096 -10.235 -23.403  0.00  0.00    +0.019 C 
ATOM     14  C   UNL     1      33.792  -8.896 -23.159  0.00  0.00    +0.073 C 
ATOM     15  C   UNL     1      31.884 -10.872 -22.668  0.00  0.00    +0.015 C 
ATOM     16  C   UNL     1      32.533  -8.545 -22.668  0.00  0.00    +0.004 C 
ATOM     17  C   UNL     1      31.580  -9.533 -22.424  0.00  0.00    +0.001 C 
BRANCH  14  21
ATOM     18  F   UNL     1      34.495  -7.020 -24.465  0.00  0.00    -0.166 F 
ATOM     19  F   UNL     1      35.015  -7.003 -22.360  0.00  0.00    -0.166 F 
ATOM     20  F   UNL     1      36.038  -8.357 -23.719  0.00  0.00    -0.166 F 
ATOM     21  C   UNL     1      34.811  -7.840 -23.420  0.00  0.00    +0.419 C 
ENDBRANCH  14  21
ENDBRANCH   9  12
ENDBRANCH   3  10
BRANCH   1  22
ATOM     22  N   UNL     1      36.115 -17.938 -22.309  0.00  0.00    -0.312 N 
ATOM     23  H   UNL     1      37.049 -17.870 -22.615  0.00  0.00    +0.152 HD
BRANCH  22  25
ATOM     24  N   UNL     1      36.843 -20.277 -19.546  0.00  0.00    -0.241 NA
ATOM     25  C   UNL     1      35.916 -18.910 -21.310  0.00  0.00    +0.068 C 
ATOM     26  C   UNL     1      34.658 -19.458 -21.085  0.00  0.00    +0.022 C 
ATOM     27  C   UNL     1      36.966 -19.349 -20.521  0.00  0.00    +0.113 C 
ATOM     28  C   UNL     1      34.492 -20.415 -20.090  0.00  0.00    +0.073 C 
ATOM     29  C   UNL     1      35.606 -20.788 -19.355  0.00  0.00    +0.103 C 
BRANCH  28  32
ATOM     30  O   UNL     1      32.157 -20.568 -20.365  0.00  0.00    -0.270 OA
ATOM     31  N   UNL     1      33.137 -22.103 -18.972  0.00  0.00    -0.325 N 
ATOM     32  C   UNL     1      33.192 -21.008 -19.830  0.00  0.00    +0.244 C 
ATOM     33  H   UNL     1      32.273 -22.531 -18.773  0.00  0.00    +0.145 HD
ATOM     34  H   UNL     1      33.963 -22.452 -18.565  0.00  0.00    +0.145 HD
ENDBRANCH  28  32
ENDBRANCH  22  25
ENDBRANCH   1  22
TORSDOF 6
ENDMDL
MODEL 5
REMARK VINA RESULT:     -11.3      2.490      3.596
REMARK  Name = 24875320
REMARK  6 active torsions:
REMARK  status: ('A' for Active; 'I' for Inactive)
REMARK    1  A    between atoms: C_1  and  N_22
REMARK    2  A    between atoms: C_3  and  C_10
REMARK    3  A    between atoms: N_9  and  C_12
REMARK    4  A    between atoms: C_14  and  C_21
REMARK    5  A    between atoms: N_22  and  C_25
REMARK    6  A    between atoms: C_28  and  C_32
REMARK                            x       y       z     vdW  Elec       q    Type
REMARK                         _______ _______ _______ _____ _____    ______ ____
ROOT
ATOM      1  C   UNL     1      35.556 -24.350 -14.255  0.00  0.00    +0.044 C 
ATOM      2  C   UNL     1      36.825 -24.707 -13.799  0.00  0.00    -0.008 C 
ATOM      3  C   UNL     1      36.555 -22.828 -15.844  0.00  0.00    +0.055 C 
ATOM      4  C   UNL     1      35.421 -23.410 -15.277  0.00  0.00    +0.019 C 
ATOM      5  C   UNL     1      37.959 -24.126 -14.366  0.00  0.00    -0.003 C 
ATOM      6  C   UNL     1      37.824 -23.186 -15.388  0.00  0.00    +0.004 C 
ATOM      7  C   UNL     1      36.999 -25.711 -12.706  0.00  0.00    +0.032 C 
ENDROOT
BRANCH   3  10
ATOM      8  O   UNL     1      37.206 -20.892 -16.958  0.00  0.00    -0.270 OA
ATOM      9  N   UNL     1      35.355 -22.063 -17.802  0.00  0.00    -0.280 N 
ATOM     10  C   UNL     1      36.415 -21.849 -16.909  0.00  0.00    +0.250 C 
ATOM     11  H   UNL     1      34.812 -22.868 -17.636  0.00  0.00    +0.155 HD
BRANCH   9  12
ATOM     12  C   UNL     1      34.963 -21.273 -18.910  0.00  0.00    +0.050 C 
ATOM     13  C   UNL     1      35.896 -20.460 -19.554  0.00  0.00    +0.019 C 
ATOM     14  C   UNL     1      35.509 -19.682 -20.645  0.00  0.00    +0.073 C 
ATOM     15  C   UNL     1      33.642 -21.307 -19.357  0.00  0.00    +0.015 C 
ATOM     16  C   UNL     1      34.187 -19.716 -21.092  0.00  0.00    +0.004 C 
ATOM     17  C   UNL     1      33.255 -20.529 -20.448  0.00  0.00    +0.001 C 
BRANCH  14  21
ATOM     18  F   UNL     1      37.790 -19.017 -20.918  0.00  0.00    -0.166 F 
ATOM     19  F   UNL     1      36.538 -18.987 -22.689  0.00  0.00    -0.166 F 
ATOM     20  F   UNL     1      36.265 -17.484 -21.141  0.00  0.00    -0.166 F 
ATOM     21  C   UNL     1      36.506 -18.814 -21.334  0.00  0.00    +0.419 C 
ENDBRANCH  14  21
ENDBRANCH   9  12
ENDBRANCH   3  10
BRANCH   1  22
ATOM     22  N   UNL     1      34.397 -24.928 -13.693  0.00  0.00    -0.312 N 
ATOM     23  H   UNL     1      34.582 -25.700 -13.109  0.00  0.00    +0.152 HD
BRANCH  22  25
ATOM     24  N   UNL     1      30.802 -24.738 -12.870  0.00  0.00    -0.241 NA
ATOM     25  C   UNL     1      33.028 -24.619 -13.804  0.00  0.00    +0.068 C 
ATOM     26  C   UNL     1      32.539 -23.918 -14.901  0.00  0.00    +0.022 C 
ATOM     27  C   UNL     1      32.127 -25.003 -12.824  0.00  0.00    +0.113 C 
ATOM     28  C   UNL     1      31.182 -23.626 -14.983  0.00  0.00    +0.073 C 
ATOM     29  C   UNL     1      30.363 -24.054 -13.951  0.00  0.00    +0.103 C 
BRANCH  28  32
ATOM     30  O   UNL     1      31.379 -22.409 -16.989  0.00  0.00    -0.270 OA
ATOM     31  N   UNL     1      29.255 -22.772 -16.204  0.00  0.00    -0.325 N 
ATOM     32  C   UNL     1      30.640 -22.896 -16.115  0.00  0.00    +0.244 C 
ATOM     33  H   UNL     1      28.852 -22.284 -16.959  0.00  0.00    +0.145 HD
ATOM     34  H   UNL     1      28.679 -23.173 -15.514  0.00  0.00    +0.145 HD
ENDBRANCH  28  32
ENDBRANCH  22  25
ENDBRANCH   1  22
TORSDOF 6
ENDMDL
MODEL 6
REMARK VINA RESULT:     -11.2      4.248      8.046
REMARK  Name = 24875320
REMARK  6 active torsions:
REMARK  status: ('A' for Active; 'I' for Inactive)
REMARK    1  A    between atoms: C_1  and  N_22
REMARK    2  A    between atoms: C_3  and  C_10
REMARK    3  A    between atoms: N_9  and  C_12
REMARK    4  A    between atoms: C_14  and  C_21
REMARK    5  A    between atoms: N_22  and  C_25
REMARK    6  A    between atoms: C_28  and  C_32
REMARK                            x       y       z     vdW  Elec       q    Type
REMARK                         _______ _______ _______ _____ _____    ______ ____
ROOT
ATOM      1  C   UNL     1      35.097 -16.771 -23.107  0.00  0.00    +0.044 C 
ATOM      2  C   UNL     1      34.424 -17.419 -24.143  0.00  0.00    -0.008 C 
ATOM      3  C   UNL     1      34.005 -14.697 -23.694  0.00  0.00    +0.055 C 
ATOM      4  C   UNL     1      34.888 -15.410 -22.883  0.00  0.00    +0.019 C 
ATOM      5  C   UNL     1      33.542 -16.707 -24.954  0.00  0.00    -0.003 C 
ATOM      6  C   UNL     1      33.332 -15.346 -24.731  0.00  0.00    +0.004 C 
ATOM      7  C   UNL     1      34.629 -18.876 -24.405  0.00  0.00    +0.032 C 
ENDROOT
BRANCH   3  10
ATOM      8  O   UNL     1      34.511 -12.454 -24.043  0.00  0.00    -0.270 OA
ATOM      9  N   UNL     1      32.764 -12.957 -22.559  0.00  0.00    -0.280 N 
ATOM     10  C   UNL     1      33.788 -13.279 -23.462  0.00  0.00    +0.250 C 
ATOM     11  H   UNL     1      32.274 -13.721 -22.177  0.00  0.00    +0.155 HD
BRANCH   9  12
ATOM     12  C   UNL     1      32.344 -11.676 -22.123  0.00  0.00    +0.050 C 
ATOM     13  C   UNL     1      32.021 -11.466 -20.782  0.00  0.00    +0.019 C 
ATOM     14  C   UNL     1      31.607 -10.205 -20.353  0.00  0.00    +0.073 C 
ATOM     15  C   UNL     1      32.253 -10.625 -23.035  0.00  0.00    +0.015 C 
ATOM     16  C   UNL     1      31.516  -9.153 -21.266  0.00  0.00    +0.004 C 
ATOM     17  C   UNL     1      31.839  -9.364 -22.606  0.00  0.00    +0.001 C 
BRANCH  14  21
ATOM     18  F   UNL     1      29.961 -10.262 -18.619  0.00  0.00    -0.166 F 
ATOM     19  F   UNL     1      32.001 -10.737 -18.055  0.00  0.00    -0.166 F 
ATOM     20  F   UNL     1      31.455  -8.686 -18.531  0.00  0.00    -0.166 F 
ATOM     21  C   UNL     1      31.262  -9.980 -18.921  0.00  0.00    +0.419 C 
ENDBRANCH  14  21
ENDBRANCH   9  12
ENDBRANCH   3  10
BRANCH   1  22
ATOM     22  N   UNL     1      35.994 -17.477 -22.275  0.00  0.00    -0.312 N 
ATOM     23  H   UNL     1      36.925 -17.163 -22.340  0.00  0.00    +0.152 HD
BRANCH  22  25
ATOM     24  N   UNL     1      36.786 -20.079 -19.778  0.00  0.00    -0.241 NA
ATOM     25  C   UNL     1      35.818 -18.542 -21.372  0.00  0.00    +0.068 C 
ATOM     26  C   UNL     1      34.564 -19.106 -21.166  0.00  0.00    +0.022 C 
ATOM     27  C   UNL     1      36.887 -19.060 -20.660  0.00  0.00    +0.113 C 
ATOM     28  C   UNL     1      34.419 -20.157 -20.265  0.00  0.00    +0.073 C 
ATOM     29  C   UNL     1      35.552 -20.603 -19.603  0.00  0.00    +0.103 C 
BRANCH  28  32
ATOM     30  O   UNL     1      32.098 -20.364 -20.607  0.00  0.00    -0.270 OA
ATOM     31  N   UNL     1      33.064 -21.840 -19.141  0.00  0.00    -0.325 N 
ATOM     32  C   UNL     1      33.124 -20.768 -20.028  0.00  0.00    +0.244 C 
ATOM     33  H   UNL     1      32.202 -22.279 -18.956  0.00  0.00    +0.145 HD
ATOM     34  H   UNL     1      33.884 -22.159 -18.699  0.00  0.00    +0.145 HD
ENDBRANCH  28  32
ENDBRANCH  22  25
ENDBRANCH   1  22
TORSDOF 6
ENDMDL
MODEL 7
REMARK VINA RESULT:     -11.2      3.709      7.059
REMARK  Name = 24875320
REMARK  6 active torsions:
REMARK  status: ('A' for Active; 'I' for Inactive)
REMARK    1  A    between atoms: C_1  and  N_22
REMARK    2  A    between atoms: C_3  and  C_10
REMARK    3  A    between atoms: N_9  and  C_12
REMARK    4  A    between atoms: C_14  and  C_21
REMARK    5  A    between atoms: N_22  and  C_25
REMARK    6  A    between atoms: C_28  and  C_32
REMARK                            x       y       z     vdW  Elec       q    Type
REMARK                         _______ _______ _______ _____ _____    ______ ____
ROOT
ATOM      1  C   UNL     1      35.156 -18.123 -22.311  0.00  0.00    +0.044 C 
ATOM      2  C   UNL     1      34.871 -18.462 -23.633  0.00  0.00    -0.008 C 
ATOM      3  C   UNL     1      34.590 -15.821 -22.779  0.00  0.00    +0.055 C 
ATOM      4  C   UNL     1      35.016 -16.802 -21.884  0.00  0.00    +0.019 C 
ATOM      5  C   UNL     1      34.446 -17.481 -24.529  0.00  0.00    -0.003 C 
ATOM      6  C   UNL     1      34.306 -16.160 -24.102  0.00  0.00    +0.004 C 
ATOM      7  C   UNL     1      35.012 -19.868 -24.118  0.00  0.00    +0.032 C 
ENDROOT
BRANCH   3  10
ATOM      8  O   UNL     1      35.226 -14.002 -21.476  0.00  0.00    -0.270 OA
ATOM      9  N   UNL     1      33.392 -13.722 -22.913  0.00  0.00    -0.280 N 
ATOM     10  C   UNL     1      34.445 -14.445 -22.334  0.00  0.00    +0.250 C 
ATOM     11  H   UNL     1      32.857 -14.208 -23.582  0.00  0.00    +0.155 HD
BRANCH   9  12
ATOM     12  C   UNL     1      32.997 -12.385 -22.661  0.00  0.00    +0.050 C 
ATOM     13  C   UNL     1      32.360 -12.059 -21.464  0.00  0.00    +0.019 C 
ATOM     14  C   UNL     1      31.971 -10.743 -21.216  0.00  0.00    +0.073 C 
ATOM     15  C   UNL     1      33.246 -11.394 -23.611  0.00  0.00    +0.015 C 
ATOM     16  C   UNL     1      32.219  -9.752 -22.167  0.00  0.00    +0.004 C 
ATOM     17  C   UNL     1      32.857 -10.078 -23.363  0.00  0.00    +0.001 C 
BRANCH  14  21
ATOM     18  F   UNL     1      29.955 -10.687 -19.929  0.00  0.00    -0.166 F 
ATOM     19  F   UNL     1      31.803 -11.042 -18.850  0.00  0.00    -0.166 F 
ATOM     20  F   UNL     1      31.373  -9.063 -19.644  0.00  0.00    -0.166 F 
ATOM     21  C   UNL     1      31.289 -10.394 -19.937  0.00  0.00    +0.419 C 
ENDBRANCH  14  21
ENDBRANCH   9  12
ENDBRANCH   3  10
BRANCH   1  22
ATOM     22  N   UNL     1      35.588 -19.103 -21.391  0.00  0.00    -0.312 N 
ATOM     23  H   UNL     1      36.567 -19.192 -21.336  0.00  0.00    +0.152 HD
BRANCH  22  25
ATOM     24  N   UNL     1      32.798 -20.991 -19.878  0.00  0.00    -0.241 NA
ATOM     25  C   UNL     1      34.892 -19.979 -20.536  0.00  0.00    +0.068 C 
ATOM     26  C   UNL     1      35.555 -20.684 -19.538  0.00  0.00    +0.022 C 
ATOM     27  C   UNL     1      33.525 -20.166 -20.664  0.00  0.00    +0.113 C 
ATOM     28  C   UNL     1      34.841 -21.543 -18.710  0.00  0.00    +0.073 C 
ATOM     29  C   UNL     1      33.477 -21.660 -18.918  0.00  0.00    +0.103 C 
BRANCH  28  32
ATOM     30  O   UNL     1      34.933 -23.225 -17.063  0.00  0.00    -0.270 OA
ATOM     31  N   UNL     1      36.817 -21.949 -17.344  0.00  0.00    -0.325 N 
ATOM     32  C   UNL     1      35.505 -22.293 -17.658  0.00  0.00    +0.244 C 
ATOM     33  H   UNL     1      37.299 -22.436 -16.636  0.00  0.00    +0.145 HD
ATOM     34  H   UNL     1      37.265 -21.219 -17.830  0.00  0.00    +0.145 HD
ENDBRANCH  28  32
ENDBRANCH  22  25
ENDBRANCH   1  22
TORSDOF 6
ENDMDL
MODEL 8
REMARK VINA RESULT:     -11.0      5.032     10.112
REMARK  Name = 24875320
REMARK  6 active torsions:
REMARK  status: ('A' for Active; 'I' for Inactive)
REMARK    1  A    between atoms: C_1  and  N_22
REMARK    2  A    between atoms: C_3  and  C_10
REMARK    3  A    between atoms: N_9  and  C_12
REMARK    4  A    between atoms: C_14  and  C_21
REMARK    5  A    between atoms: N_22  and  C_25
REMARK    6  A    between atoms: C_28  and  C_32
REMARK                            x       y       z     vdW  Elec       q    Type
REMARK                         _______ _______ _______ _____ _____    ______ ____
ROOT
ATOM      1  C   UNL     1      34.639 -15.595 -23.175  0.00  0.00    +0.044 C 
ATOM      2  C   UNL     1      34.130 -16.151 -24.349  0.00  0.00    -0.008 C 
ATOM      3  C   UNL     1      35.278 -17.797 -22.412  0.00  0.00    +0.055 C 
ATOM      4  C   UNL     1      35.212 -16.419 -22.206  0.00  0.00    +0.019 C 
ATOM      5  C   UNL     1      34.196 -17.528 -24.555  0.00  0.00    -0.003 C 
ATOM      6  C   UNL     1      34.770 -18.352 -23.586  0.00  0.00    +0.004 C 
ATOM      7  C   UNL     1      33.512 -15.292 -25.404  0.00  0.00    +0.032 C 
ENDROOT
BRANCH   3  10
ATOM      8  O   UNL     1      37.105 -18.622 -21.231  0.00  0.00    -0.270 OA
ATOM      9  N   UNL     1      34.988 -19.485 -20.701  0.00  0.00    -0.280 N 
ATOM     10  C   UNL     1      35.875 -18.655 -21.401  0.00  0.00    +0.250 C 
ATOM     11  H   UNL     1      34.038 -19.399 -20.946  0.00  0.00    +0.155 HD
BRANCH   9  12
ATOM     12  C   UNL     1      35.279 -20.432 -19.689  0.00  0.00    +0.050 C 
ATOM     13  C   UNL     1      34.252 -21.185 -19.120  0.00  0.00    +0.019 C 
ATOM     14  C   UNL     1      34.539 -22.117 -18.123  0.00  0.00    +0.073 C 
ATOM     15  C   UNL     1      36.594 -20.611 -19.259  0.00  0.00    +0.015 C 
ATOM     16  C   UNL     1      35.855 -22.296 -17.694  0.00  0.00    +0.004 C 
ATOM     17  C   UNL     1      36.881 -21.544 -18.263  0.00  0.00    +0.001 C 
BRANCH  14  21
ATOM     18  F   UNL     1      33.526 -23.028 -16.157  0.00  0.00    -0.166 F 
ATOM     19  F   UNL     1      32.195 -22.417 -17.757  0.00  0.00    -0.166 F 
ATOM     20  F   UNL     1      33.412 -24.206 -17.981  0.00  0.00    -0.166 F 
ATOM     21  C   UNL     1      33.441 -22.922 -17.516  0.00  0.00    +0.419 C 
ENDBRANCH  14  21
ENDBRANCH   9  12
ENDBRANCH   3  10
BRANCH   1  22
ATOM     22  N   UNL     1      34.581 -14.203 -22.950  0.00  0.00    -0.312 N 
ATOM     23  H   UNL     1      35.398 -13.724 -23.221  0.00  0.00    +0.152 HD
BRANCH  22  25
ATOM     24  N   UNL     1      31.869 -12.998 -20.752  0.00  0.00    -0.241 NA
ATOM     25  C   UNL     1      33.585 -13.364 -22.415  0.00  0.00    +0.068 C 
ATOM     26  C   UNL     1      33.319 -12.120 -22.975  0.00  0.00    +0.022 C 
ATOM     27  C   UNL     1      32.839 -13.754 -21.315  0.00  0.00    +0.113 C 
ATOM     28  C   UNL     1      32.330 -11.313 -22.423  0.00  0.00    +0.073 C 
ATOM     29  C   UNL     1      31.639 -11.794 -21.323  0.00  0.00    +0.103 C 
BRANCH  28  32
ATOM     30  O   UNL     1      32.432  -9.676 -24.114  0.00  0.00    -0.270 OA
ATOM     31  N   UNL     1      31.253  -9.137 -22.222  0.00  0.00    -0.325 N 
ATOM     32  C   UNL     1      32.029 -10.008 -22.984  0.00  0.00    +0.244 C 
ATOM     33  H   UNL     1      31.028  -8.244 -22.571  0.00  0.00    +0.145 HD
ATOM     34  H   UNL     1      30.927  -9.415 -21.336  0.00  0.00    +0.145 HD
ENDBRANCH  28  32
ENDBRANCH  22  25
ENDBRANCH   1  22
TORSDOF 6
ENDMDL
MODEL 9
REMARK VINA RESULT:     -10.8      5.090      9.469
REMARK  Name = 24875320
REMARK  6 active torsions:
REMARK  status: ('A' for Active; 'I' for Inactive)
REMARK    1  A    between atoms: C_1  and  N_22
REMARK    2  A    between atoms: C_3  and  C_10
REMARK    3  A    between atoms: N_9  and  C_12
REMARK    4  A    between atoms: C_14  and  C_21
REMARK    5  A    between atoms: N_22  and  C_25
REMARK    6  A    between atoms: C_28  and  C_32
REMARK                            x       y       z     vdW  Elec       q    Type
REMARK                         _______ _______ _______ _____ _____    ______ ____
ROOT
ATOM      1  C   UNL     1      31.701 -22.879 -16.191  0.00  0.00    +0.044 C 
ATOM      2  C   UNL     1      30.405 -22.958 -15.682  0.00  0.00    -0.008 C 
ATOM      3  C   UNL     1      32.572 -23.726 -14.102  0.00  0.00    +0.055 C 
ATOM      4  C   UNL     1      32.784 -23.263 -15.401  0.00  0.00    +0.019 C 
ATOM      5  C   UNL     1      30.192 -23.421 -14.384  0.00  0.00    -0.003 C 
ATOM      6  C   UNL     1      31.275 -23.804 -13.594  0.00  0.00    +0.004 C 
ATOM      7  C   UNL     1      29.225 -22.555 -16.507  0.00  0.00    +0.032 C 
ENDROOT
BRANCH   3  10
ATOM      8  O   UNL     1      33.496 -24.812 -12.265  0.00  0.00    -0.270 OA
ATOM      9  N   UNL     1      34.958 -23.667 -13.700  0.00  0.00    -0.280 N 
ATOM     10  C   UNL     1      33.701 -24.124 -13.278  0.00  0.00    +0.250 C 
ATOM     11  H   UNL     1      34.963 -23.131 -14.526  0.00  0.00    +0.155 HD
BRANCH   9  12
ATOM     12  C   UNL     1      36.221 -23.874 -13.092  0.00  0.00    +0.050 C 
ATOM     13  C   UNL     1      37.196 -24.627 -13.747  0.00  0.00    +0.019 C 
ATOM     14  C   UNL     1      38.439 -24.830 -13.148  0.00  0.00    +0.073 C 
ATOM     15  C   UNL     1      36.490 -23.324 -11.839  0.00  0.00    +0.015 C 
ATOM     16  C   UNL     1      38.707 -24.280 -11.894  0.00  0.00    +0.004 C 
ATOM     17  C   UNL     1      37.733 -23.528 -11.240  0.00  0.00    +0.001 C 
BRANCH  14  21
ATOM     18  F   UNL     1      40.049 -24.993 -14.910  0.00  0.00    -0.166 F 
ATOM     19  F   UNL     1      40.528 -25.989 -13.044  0.00  0.00    -0.166 F 
ATOM     20  F   UNL     1      38.991 -26.808 -14.347  0.00  0.00    -0.166 F 
ATOM     21  C   UNL     1      39.481 -25.635 -13.847  0.00  0.00    +0.419 C 
ENDBRANCH  14  21
ENDBRANCH   9  12
ENDBRANCH   3  10
BRANCH   1  22
ATOM     22  N   UNL     1      31.935 -22.414 -17.504  0.00  0.00    -0.312 N 
ATOM     23  H   UNL     1      31.115 -22.312 -18.040  0.00  0.00    +0.152 HD
BRANCH  22  25
ATOM     24  N   UNL     1      35.475 -22.419 -18.554  0.00  0.00    -0.241 NA
ATOM     25  C   UNL     1      33.111 -22.068 -18.196  0.00  0.00    +0.068 C 
ATOM     26  C   UNL     1      33.102 -21.077 -19.172  0.00  0.00    +0.022 C 
ATOM     27  C   UNL     1      34.312 -22.703 -17.927  0.00  0.00    +0.113 C 
ATOM     28  C   UNL     1      34.279 -20.758 -19.841  0.00  0.00    +0.073 C 
ATOM     29  C   UNL     1      35.428 -21.451 -19.497  0.00  0.00    +0.103 C 
BRANCH  28  32
ATOM     30  O   UNL     1      33.609 -19.818 -21.894  0.00  0.00    -0.270 OA
ATOM     31  N   UNL     1      35.119 -18.620 -20.652  0.00  0.00    -0.325 N 
ATOM     32  C   UNL     1      34.303 -19.729 -20.864  0.00  0.00    +0.244 C 
ATOM     33  H   UNL     1      35.160 -17.902 -21.325  0.00  0.00    +0.145 HD
ATOM     34  H   UNL     1      35.654 -18.553 -19.828  0.00  0.00    +0.145 HD
ENDBRANCH  28  32
ENDBRANCH  22  25
ENDBRANCH   1  22
TORSDOF 6
ENDMDL
