MODEL 1
REMARK VINA RESULT:     -11.2      0.000      0.000
REMARK  Name = 6857690
REMARK  2 active torsions:
REMARK  status: ('A' for Active; 'I' for Inactive)
REMARK    1  A    between atoms: C_4  and  C_18
REMARK    2  A    between atoms: C_21  and  O_24
REMARK                            x       y       z     vdW  Elec       q    Type
REMARK                         _______ _______ _______ _____ _____    ______ ____
ROOT
ATOM      1  O   UNL     1      37.340 -25.041 -15.115  0.00  0.00    -0.252 OA
ATOM      2  N   UNL     1      35.782 -23.474 -14.471  0.00  0.00    -0.259 N 
ATOM      3  N   UNL     1      36.659 -25.071 -12.915  0.00  0.00    -0.261 N 
ATOM      4  C   UNL     1      34.895 -23.019 -16.723  0.00  0.00    +0.064 C 
ATOM      5  C   UNL     1      35.969 -22.673 -15.676  0.00  0.00    +0.104 C 
ATOM      6  C   UNL     1      33.498 -23.016 -16.106  0.00  0.00    -0.019 C 
ATOM      7  C   UNL     1      33.336 -23.122 -14.708  0.00  0.00    -0.010 C 
ATOM      8  C   UNL     1      34.518 -23.221 -13.769  0.00  0.00    +0.121 C 
ATOM      9  C   UNL     1      32.044 -23.126 -14.157  0.00  0.00    -0.028 C 
ATOM     10  C   UNL     1      32.351 -22.994 -16.920  0.00  0.00    -0.005 C 
ATOM     11  C   UNL     1      30.920 -23.068 -14.978  0.00  0.00    -0.026 C 
ATOM     12  C   UNL     1      36.634 -24.557 -14.220  0.00  0.00    +0.308 C 
ATOM     13  C   UNL     1      31.074 -23.012 -16.359  0.00  0.00    -0.005 C 
ATOM     14  C   UNL     1      31.854 -23.199 -12.672  0.00  0.00    +0.030 C 
ATOM     15  C   UNL     1      29.541 -23.067 -14.406  0.00  0.00    +0.031 C 
ATOM     16  C   UNL     1      36.409 -24.281 -11.712  0.00  0.00    +0.117 C 
ATOM     17  C   UNL     1      37.211 -26.399 -12.687  0.00  0.00    +0.117 C 
ENDROOT
BRANCH   4  18
ATOM     18  C   UNL     1      35.063 -22.110 -17.932  0.00  0.00    -0.014 C 
ATOM     19  C   UNL     1      33.945 -21.717 -18.661  0.00  0.00    +0.033 C 
ATOM     20  C   UNL     1      36.334 -21.679 -18.299  0.00  0.00    -0.004 C 
ATOM     21  C   UNL     1      34.099 -20.884 -19.768  0.00  0.00    +0.133 C 
ATOM     22  C   UNL     1      36.488 -20.844 -19.406  0.00  0.00    +0.003 C 
ATOM     23  C   UNL     1      35.371 -20.447 -20.141  0.00  0.00    +0.037 C 
BRANCH  21  24
ATOM     24  O   UNL     1      33.009 -20.496 -20.485  0.00  0.00    -0.506 OA
ATOM     25  H   UNL     1      33.118 -19.995 -21.268  0.00  0.00    +0.292 HD
ENDBRANCH  21  24
ENDBRANCH   4  18
TORSDOF 2
ENDMDL
MODEL 2
REMARK VINA RESULT:      -8.2     15.959     19.391
REMARK  Name = 6857690
REMARK  2 active torsions:
REMARK  status: ('A' for Active; 'I' for Inactive)
REMARK    1  A    between atoms: C_4  and  C_18
REMARK    2  A    between atoms: C_21  and  O_24
REMARK                            x       y       z     vdW  Elec       q    Type
REMARK                         _______ _______ _______ _____ _____    ______ ____
ROOT
ATOM      1  O   UNL     1      35.695  -6.542 -24.830  0.00  0.00    -0.252 OA
ATOM      2  N   UNL     1      33.447  -6.057 -24.938  0.00  0.00    -0.259 N 
ATOM      3  N   UNL     1      34.994  -5.153 -26.528  0.00  0.00    -0.261 N 
ATOM      4  C   UNL     1      32.933  -6.584 -22.588  0.00  0.00    +0.064 C 
ATOM      5  C   UNL     1      33.089  -7.131 -24.018  0.00  0.00    +0.104 C 
ATOM      6  C   UNL     1      32.055  -5.336 -22.563  0.00  0.00    -0.019 C 
ATOM      7  C   UNL     1      31.832  -4.598 -23.745  0.00  0.00    -0.010 C 
ATOM      8  C   UNL     1      32.425  -5.013 -25.074  0.00  0.00    +0.121 C 
ATOM      9  C   UNL     1      31.027  -3.448 -23.705  0.00  0.00    -0.028 C 
ATOM     10  C   UNL     1      31.523  -4.852 -21.354  0.00  0.00    -0.005 C 
ATOM     11  C   UNL     1      30.480  -3.003 -22.503  0.00  0.00    -0.026 C 
ATOM     12  C   UNL     1      34.767  -5.951 -25.398  0.00  0.00    +0.308 C 
ATOM     13  C   UNL     1      30.736  -3.701 -21.327  0.00  0.00    -0.005 C 
ATOM     14  C   UNL     1      30.748  -2.673 -24.958  0.00  0.00    +0.030 C 
ATOM     15  C   UNL     1      29.619  -1.786 -22.446  0.00  0.00    +0.031 C 
ATOM     16  C   UNL     1      34.023  -4.940 -27.598  0.00  0.00    +0.117 C 
ATOM     17  C   UNL     1      36.349  -4.701 -26.815  0.00  0.00    +0.117 C 
ENDROOT
BRANCH   4  18
ATOM     18  C   UNL     1      32.476  -7.708 -21.669  0.00  0.00    -0.014 C 
ATOM     19  C   UNL     1      31.771  -8.786 -22.194  0.00  0.00    +0.033 C 
ATOM     20  C   UNL     1      32.767  -7.648 -20.310  0.00  0.00    -0.004 C 
ATOM     21  C   UNL     1      31.353  -9.815 -21.352  0.00  0.00    +0.133 C 
ATOM     22  C   UNL     1      32.350  -8.678 -19.467  0.00  0.00    +0.003 C 
ATOM     23  C   UNL     1      31.643  -9.762 -19.988  0.00  0.00    +0.037 C 
BRANCH  21  24
ATOM     24  O   UNL     1      30.663 -10.872 -21.860  0.00  0.00    -0.506 OA
ATOM     25  H   UNL     1      30.420 -10.882 -22.765  0.00  0.00    +0.292 HD
ENDBRANCH  21  24
ENDBRANCH   4  18
TORSDOF 2
ENDMDL
