MODEL 1
REMARK VINA RESULT:     -12.3      0.000      0.000
REMARK  Name = 448605
REMARK  6 active torsions:
REMARK  status: ('A' for Active; 'I' for Inactive)
REMARK    1  A    between atoms: C_3  and  N_11
REMARK    2  A    between atoms: C_4  and  C_27
REMARK    3  A    between atoms: C_9  and  C_21
REMARK    4  A    between atoms: N_26  and  C_29
REMARK    5  A    between atoms: C_30  and  C_35
REMARK    6  A    between atoms: C_35  and  N_36
REMARK                            x       y       z     vdW  Elec       q    Type
REMARK                         _______ _______ _______ _____ _____    ______ ____
ROOT
ATOM      1  C   UNL     1      34.353 -23.057 -15.951  0.00  0.00    +0.014 C 
ATOM      2  C   UNL     1      33.381 -22.775 -16.941  0.00  0.00    +0.001 C 
ATOM      3  C   UNL     1      35.685 -22.669 -16.165  0.00  0.00    +0.057 C 
ATOM      4  C   UNL     1      35.101 -21.735 -18.313  0.00  0.00    +0.055 C 
ATOM      5  C   UNL     1      33.772 -22.112 -18.117  0.00  0.00    +0.005 C 
ATOM      6  C   UNL     1      36.055 -22.012 -17.339  0.00  0.00    +0.020 C 
ATOM      7  C   UNL     1      33.963 -23.719 -14.775  0.00  0.00    +0.004 C 
ATOM      8  C   UNL     1      32.049 -23.163 -16.726  0.00  0.00    +0.000 C 
ATOM      9  C   UNL     1      32.634 -24.097 -14.578  0.00  0.00    +0.031 C 
ATOM     10  C   UNL     1      31.679 -23.819 -15.552  0.00  0.00    +0.003 C 
ENDROOT
BRANCH   3  11
ATOM     11  N   UNL     1      36.697 -22.927 -15.208  0.00  0.00    -0.257 N 
ATOM     12  N   UNL     1      36.706 -25.272 -15.152  0.00  0.00    -0.180 NA
ATOM     13  N   UNL     1      38.206 -23.996 -13.763  0.00  0.00    -0.203 NA
ATOM     14  C   UNL     1      37.226 -24.118 -14.685  0.00  0.00    +0.091 C 
ATOM     15  C   UNL     1      37.237 -26.396 -14.629  0.00  0.00    +0.108 C 
ATOM     16  C   UNL     1      38.691 -25.160 -13.282  0.00  0.00    +0.165 C 
ATOM     17  C   UNL     1      38.242 -26.401 -13.682  0.00  0.00    +0.022 C 
ATOM     18  H   UNL     1      37.108 -22.113 -14.836  0.00  0.00    +0.164 HD
ENDBRANCH   3  11
BRANCH   9  21
ATOM     19  N   UNL     1      30.918 -25.125 -13.107  0.00  0.00    -0.343 N 
ATOM     20  N   UNL     1      33.161 -25.084 -12.452  0.00  0.00    -0.285 NA
ATOM     21  C   UNL     1      32.246 -24.781 -13.355  0.00  0.00    +0.117 C 
ATOM     22  H   UNL     1      30.677 -25.587 -12.272  0.00  0.00    +0.144 HD
ATOM     23  H   UNL     1      30.220 -24.904 -13.766  0.00  0.00    +0.144 HD
ATOM     24  H   UNL     1      32.899 -25.547 -11.623  0.00  0.00    +0.188 HD
ENDBRANCH   9  21
BRANCH   4  27
ATOM     25  O   UNL     1      36.486 -21.446 -20.160  0.00  0.00    -0.270 OA
ATOM     26  N   UNL     1      34.663 -19.986 -19.928  0.00  0.00    -0.280 N 
ATOM     27  C   UNL     1      35.488 -21.050 -19.537  0.00  0.00    +0.250 C 
ATOM     28  H   UNL     1      33.908 -19.788 -19.330  0.00  0.00    +0.155 HD
BRANCH  26  29
ATOM     29  C   UNL     1      34.776 -19.159 -21.073  0.00  0.00    +0.051 C 
ATOM     30  C   UNL     1      34.995 -17.542 -23.309  0.00  0.00    -0.044 C 
ATOM     31  C   UNL     1      34.401 -19.659 -22.308  0.00  0.00    +0.014 C 
ATOM     32  C   UNL     1      35.259 -17.869 -20.931  0.00  0.00    +0.014 C 
ATOM     33  C   UNL     1      34.512 -18.845 -23.435  0.00  0.00    -0.005 C 
ATOM     34  C   UNL     1      35.369 -17.055 -22.057  0.00  0.00    -0.005 C 
BRANCH  30  35
ATOM     35  C   UNL     1      35.113 -16.672 -24.514  0.00  0.00    -0.059 C 
BRANCH  35  36
ATOM     36  N   UNL     1      33.986 -15.787 -24.663  0.00  0.00    +0.383 N 
ATOM     37  H   UNL     1      33.173 -16.188 -24.196  0.00  0.00    -0.089 HD
ATOM     38  H   UNL     1      33.781 -15.661 -25.655  0.00  0.00    -0.089 HD
ATOM     39  H   UNL     1      34.207 -14.883 -24.245  0.00  0.00    -0.089 HD
ENDBRANCH  35  36
ENDBRANCH  30  35
ENDBRANCH  26  29
ENDBRANCH   4  27
TORSDOF 6
ENDMDL
MODEL 2
REMARK VINA RESULT:     -12.3      1.730      4.581
REMARK  Name = 448605
REMARK  6 active torsions:
REMARK  status: ('A' for Active; 'I' for Inactive)
REMARK    1  A    between atoms: C_3  and  N_11
REMARK    2  A    between atoms: C_4  and  C_27
REMARK    3  A    between atoms: C_9  and  C_21
REMARK    4  A    between atoms: N_26  and  C_29
REMARK    5  A    between atoms: C_30  and  C_35
REMARK    6  A    between atoms: C_35  and  N_36
REMARK                            x       y       z     vdW  Elec       q    Type
REMARK                         _______ _______ _______ _____ _____    ______ ____
ROOT
ATOM      1  C   UNL     1      35.048 -23.153 -16.141  0.00  0.00    +0.014 C 
ATOM      2  C   UNL     1      36.027 -22.346 -16.770  0.00  0.00    +0.001 C 
ATOM      3  C   UNL     1      33.752 -23.205 -16.678  0.00  0.00    +0.057 C 
ATOM      4  C   UNL     1      34.385 -21.677 -18.437  0.00  0.00    +0.055 C 
ATOM      5  C   UNL     1      35.678 -21.614 -17.918  0.00  0.00    +0.005 C 
ATOM      6  C   UNL     1      33.423 -22.472 -17.819  0.00  0.00    +0.020 C 
ATOM      7  C   UNL     1      35.396 -23.885 -14.994  0.00  0.00    +0.004 C 
ATOM      8  C   UNL     1      37.323 -22.294 -16.233  0.00  0.00    +0.000 C 
ATOM      9  C   UNL     1      36.690 -23.821 -14.474  0.00  0.00    +0.031 C 
ATOM     10  C   UNL     1      37.651 -23.028 -15.093  0.00  0.00    +0.003 C 
ENDROOT
BRANCH   3  11
ATOM     11  N   UNL     1      32.736 -23.997 -16.089  0.00  0.00    -0.257 N 
ATOM     12  N   UNL     1      30.858 -22.612 -16.336  0.00  0.00    -0.180 NA
ATOM     13  N   UNL     1      30.672 -24.771 -15.282  0.00  0.00    -0.203 NA
ATOM     14  C   UNL     1      31.361 -23.784 -15.894  0.00  0.00    +0.091 C 
ATOM     15  C   UNL     1      29.536 -22.441 -16.133  0.00  0.00    +0.108 C 
ATOM     16  C   UNL     1      29.355 -24.533 -15.110  0.00  0.00    +0.165 C 
ATOM     17  C   UNL     1      28.726 -23.375 -15.520  0.00  0.00    +0.022 C 
ATOM     18  H   UNL     1      33.055 -24.864 -15.750  0.00  0.00    +0.164 HD
ENDBRANCH   3  11
BRANCH   9  21
ATOM     19  N   UNL     1      36.086 -25.361 -12.623  0.00  0.00    -0.343 N 
ATOM     20  N   UNL     1      38.268 -24.548 -12.814  0.00  0.00    -0.285 NA
ATOM     21  C   UNL     1      37.035 -24.586 -13.286  0.00  0.00    +0.117 C 
ATOM     22  H   UNL     1      36.341 -25.870 -11.820  0.00  0.00    +0.144 HD
ATOM     23  H   UNL     1      35.160 -25.400 -12.957  0.00  0.00    +0.144 HD
ATOM     24  H   UNL     1      38.503 -25.065 -12.010  0.00  0.00    +0.188 HD
ENDBRANCH   9  21
BRANCH   4  27
ATOM     25  O   UNL     1      32.909 -21.042 -20.119  0.00  0.00    -0.270 OA
ATOM     26  N   UNL     1      35.039 -20.058 -20.113  0.00  0.00    -0.280 N 
ATOM     27  C   UNL     1      34.041 -20.914 -19.626  0.00  0.00    +0.250 C 
ATOM     28  H   UNL     1      35.888 -20.065 -19.616  0.00  0.00    +0.155 HD
BRANCH  26  29
ATOM     29  C   UNL     1      34.985 -19.184 -21.227  0.00  0.00    +0.051 C 
ATOM     30  C   UNL     1      34.880 -17.476 -23.403  0.00  0.00    -0.044 C 
ATOM     31  C   UNL     1      35.328 -17.854 -21.059  0.00  0.00    +0.014 C 
ATOM     32  C   UNL     1      34.590 -19.680 -22.457  0.00  0.00    +0.014 C 
ATOM     33  C   UNL     1      35.275 -16.993 -22.155  0.00  0.00    -0.005 C 
ATOM     34  C   UNL     1      34.537 -18.820 -23.553  0.00  0.00    -0.005 C 
BRANCH  30  35
ATOM     35  C   UNL     1      34.824 -16.556 -24.574  0.00  0.00    -0.059 C 
BRANCH  35  36
ATOM     36  N   UNL     1      33.880 -15.484 -24.384  0.00  0.00    +0.383 N 
ATOM     37  H   UNL     1      32.931 -15.843 -24.483  0.00  0.00    -0.089 HD
ATOM     38  H   UNL     1      34.043 -14.759 -25.083  0.00  0.00    -0.089 HD
ATOM     39  H   UNL     1      33.998 -15.089 -23.451  0.00  0.00    -0.089 HD
ENDBRANCH  35  36
ENDBRANCH  30  35
ENDBRANCH  26  29
ENDBRANCH   4  27
TORSDOF 6
ENDMDL
MODEL 3
REMARK VINA RESULT:     -11.5      2.127      4.710
REMARK  Name = 448605
REMARK  6 active torsions:
REMARK  status: ('A' for Active; 'I' for Inactive)
REMARK    1  A    between atoms: C_3  and  N_11
REMARK    2  A    between atoms: C_4  and  C_27
REMARK    3  A    between atoms: C_9  and  C_21
REMARK    4  A    between atoms: N_26  and  C_29
REMARK    5  A    between atoms: C_30  and  C_35
REMARK    6  A    between atoms: C_35  and  N_36
REMARK                            x       y       z     vdW  Elec       q    Type
REMARK                         _______ _______ _______ _____ _____    ______ ____
ROOT
ATOM      1  C   UNL     1      34.865 -23.570 -14.321  0.00  0.00    +0.014 C 
ATOM      2  C   UNL     1      36.019 -22.979 -14.890  0.00  0.00    +0.001 C 
ATOM      3  C   UNL     1      33.719 -23.741 -15.114  0.00  0.00    +0.057 C 
ATOM      4  C   UNL     1      34.844 -22.755 -17.009  0.00  0.00    +0.055 C 
ATOM      5  C   UNL     1      35.992 -22.578 -16.236  0.00  0.00    +0.005 C 
ATOM      6  C   UNL     1      33.710 -23.337 -16.450  0.00  0.00    +0.020 C 
ATOM      7  C   UNL     1      34.891 -23.971 -12.976  0.00  0.00    +0.004 C 
ATOM      8  C   UNL     1      37.164 -22.807 -14.097  0.00  0.00    +0.000 C 
ATOM      9  C   UNL     1      36.039 -23.793 -12.202  0.00  0.00    +0.031 C 
ATOM     10  C   UNL     1      37.174 -23.213 -12.762  0.00  0.00    +0.003 C 
ENDROOT
BRANCH   3  11
ATOM     11  N   UNL     1      32.538 -24.327 -14.596  0.00  0.00    -0.257 N 
ATOM     12  N   UNL     1      30.880 -23.190 -15.805  0.00  0.00    -0.180 NA
ATOM     13  N   UNL     1      30.293 -24.866 -14.176  0.00  0.00    -0.203 NA
ATOM     14  C   UNL     1      31.177 -24.118 -14.871  0.00  0.00    +0.091 C 
ATOM     15  C   UNL     1      29.564 -23.015 -16.044  0.00  0.00    +0.108 C 
ATOM     16  C   UNL     1      28.994 -24.639 -14.464  0.00  0.00    +0.165 C 
ATOM     17  C   UNL     1      28.567 -23.718 -15.398  0.00  0.00    +0.022 C 
ATOM     18  H   UNL     1      32.704 -25.012 -13.909  0.00  0.00    +0.164 HD
ENDBRANCH   3  11
BRANCH   9  21
ATOM     19  N   UNL     1      36.796 -23.530  -9.852  0.00  0.00    -0.343 N 
ATOM     20  N   UNL     1      35.349 -25.269 -10.436  0.00  0.00    -0.285 NA
ATOM     21  C   UNL     1      36.051 -24.215 -10.810  0.00  0.00    +0.117 C 
ATOM     22  H   UNL     1      36.790 -23.833  -8.915  0.00  0.00    +0.144 HD
ATOM     23  H   UNL     1      37.329 -22.744 -10.111  0.00  0.00    +0.144 HD
ATOM     24  H   UNL     1      35.356 -25.556  -9.494  0.00  0.00    +0.188 HD
ENDBRANCH   9  21
BRANCH   4  27
ATOM     25  O   UNL     1      34.580 -23.171 -19.282  0.00  0.00    -0.270 OA
ATOM     26  N   UNL     1      35.097 -20.977 -18.631  0.00  0.00    -0.280 N 
ATOM     27  C   UNL     1      34.834 -22.334 -18.401  0.00  0.00    +0.250 C 
ATOM     28  H   UNL     1      35.283 -20.435 -17.831  0.00  0.00    +0.155 HD
BRANCH  26  29
ATOM     29  C   UNL     1      35.130 -20.281 -19.865  0.00  0.00    +0.051 C 
ATOM     30  C   UNL     1      35.194 -18.923 -22.276  0.00  0.00    -0.044 C 
ATOM     31  C   UNL     1      33.977 -20.202 -20.627  0.00  0.00    +0.014 C 
ATOM     32  C   UNL     1      36.315 -19.698 -20.282  0.00  0.00    +0.014 C 
ATOM     33  C   UNL     1      34.010 -19.518 -21.842  0.00  0.00    -0.005 C 
ATOM     34  C   UNL     1      36.347 -19.014 -21.496  0.00  0.00    -0.005 C 
BRANCH  30  35
ATOM     35  C   UNL     1      35.228 -18.191 -23.575  0.00  0.00    -0.059 C 
BRANCH  35  36
ATOM     36  N   UNL     1      34.078 -18.476 -24.395  0.00  0.00    +0.383 N 
ATOM     37  H   UNL     1      34.203 -19.376 -24.857  0.00  0.00    -0.089 HD
ATOM     38  H   UNL     1      33.973 -17.744 -25.098  0.00  0.00    -0.089 HD
ATOM     39  H   UNL     1      33.244 -18.507 -23.809  0.00  0.00    -0.089 HD
ENDBRANCH  35  36
ENDBRANCH  30  35
ENDBRANCH  26  29
ENDBRANCH   4  27
TORSDOF 6
ENDMDL
MODEL 4
REMARK VINA RESULT:     -10.3      9.482     17.045
REMARK  Name = 448605
REMARK  6 active torsions:
REMARK  status: ('A' for Active; 'I' for Inactive)
REMARK    1  A    between atoms: C_3  and  N_11
REMARK    2  A    between atoms: C_4  and  C_27
REMARK    3  A    between atoms: C_9  and  C_21
REMARK    4  A    between atoms: N_26  and  C_29
REMARK    5  A    between atoms: C_30  and  C_35
REMARK    6  A    between atoms: C_35  and  N_36
REMARK                            x       y       z     vdW  Elec       q    Type
REMARK                         _______ _______ _______ _____ _____    ______ ____
ROOT
ATOM      1  C   UNL     1      31.816  -6.703 -23.191  0.00  0.00    +0.014 C 
ATOM      2  C   UNL     1      31.589  -7.296 -21.925  0.00  0.00    +0.001 C 
ATOM      3  C   UNL     1      32.218  -7.512 -24.265  0.00  0.00    +0.057 C 
ATOM      4  C   UNL     1      32.172  -9.469 -22.852  0.00  0.00    +0.055 C 
ATOM      5  C   UNL     1      31.770  -8.681 -21.773  0.00  0.00    +0.005 C 
ATOM      6  C   UNL     1      32.394  -8.886 -24.096  0.00  0.00    +0.020 C 
ATOM      7  C   UNL     1      31.634  -5.320 -23.343  0.00  0.00    +0.004 C 
ATOM      8  C   UNL     1      31.187  -6.487 -20.850  0.00  0.00    +0.000 C 
ATOM      9  C   UNL     1      31.233  -4.530 -22.264  0.00  0.00    +0.031 C 
ATOM     10  C   UNL     1      31.010  -5.114 -21.020  0.00  0.00    +0.003 C 
ENDROOT
BRANCH   3  11
ATOM     11  N   UNL     1      32.459  -6.971 -25.553  0.00  0.00    -0.257 N 
ATOM     12  N   UNL     1      34.612  -6.077 -25.291  0.00  0.00    -0.180 NA
ATOM     13  N   UNL     1      33.446  -5.902 -27.393  0.00  0.00    -0.203 NA
ATOM     14  C   UNL     1      33.554  -6.287 -26.103  0.00  0.00    +0.091 C 
ATOM     15  C   UNL     1      35.646  -5.417 -25.853  0.00  0.00    +0.108 C 
ATOM     16  C   UNL     1      34.516  -5.247 -27.890  0.00  0.00    +0.165 C 
ATOM     17  C   UNL     1      35.654  -4.974 -27.160  0.00  0.00    +0.022 C 
ATOM     18  H   UNL     1      31.713  -7.099 -26.182  0.00  0.00    +0.164 HD
ENDBRANCH   3  11
BRANCH   9  21
ATOM     19  N   UNL     1      30.019  -2.592 -23.230  0.00  0.00    -0.343 N 
ATOM     20  N   UNL     1      31.868  -2.252 -21.842  0.00  0.00    -0.285 NA
ATOM     21  C   UNL     1      31.048  -3.099 -22.438  0.00  0.00    +0.117 C 
ATOM     22  H   UNL     1      29.912  -1.619 -23.335  0.00  0.00    +0.144 HD
ATOM     23  H   UNL     1      29.399  -3.207 -23.685  0.00  0.00    +0.144 HD
ATOM     24  H   UNL     1      31.745  -1.282 -21.959  0.00  0.00    +0.188 HD
ENDBRANCH   9  21
BRANCH   4  27
ATOM     25  O   UNL     1      31.706 -11.490 -21.798  0.00  0.00    -0.270 OA
ATOM     26  N   UNL     1      33.259 -11.513 -23.556  0.00  0.00    -0.280 N 
ATOM     27  C   UNL     1      32.355 -10.901 -22.677  0.00  0.00    +0.250 C 
ATOM     28  H   UNL     1      33.701 -10.915 -24.201  0.00  0.00    +0.155 HD
BRANCH  26  29
ATOM     29  C   UNL     1      33.620 -12.881 -23.639  0.00  0.00    +0.051 C 
ATOM     30  C   UNL     1      34.325 -15.553 -23.801  0.00  0.00    -0.044 C 
ATOM     31  C   UNL     1      33.209 -13.623 -24.733  0.00  0.00    +0.014 C 
ATOM     32  C   UNL     1      34.375 -13.444 -22.624  0.00  0.00    +0.014 C 
ATOM     33  C   UNL     1      33.564 -14.970 -24.814  0.00  0.00    -0.005 C 
ATOM     34  C   UNL     1      34.730 -14.790 -22.706  0.00  0.00    -0.005 C 
BRANCH  30  35
ATOM     35  C   UNL     1      34.705 -16.992 -23.889  0.00  0.00    -0.059 C 
BRANCH  35  36
ATOM     36  N   UNL     1      35.655 -17.371 -22.875  0.00  0.00    +0.383 N 
ATOM     37  H   UNL     1      36.313 -16.607 -22.721  0.00  0.00    -0.089 HD
ATOM     38  H   UNL     1      36.164 -18.202 -23.179  0.00  0.00    -0.089 HD
ATOM     39  H   UNL     1      35.161 -17.575 -22.006  0.00  0.00    -0.089 HD
ENDBRANCH  35  36
ENDBRANCH  30  35
ENDBRANCH  26  29
ENDBRANCH   4  27
TORSDOF 6
ENDMDL
MODEL 5
REMARK VINA RESULT:     -10.0      1.866      4.287
REMARK  Name = 448605
REMARK  6 active torsions:
REMARK  status: ('A' for Active; 'I' for Inactive)
REMARK    1  A    between atoms: C_3  and  N_11
REMARK    2  A    between atoms: C_4  and  C_27
REMARK    3  A    between atoms: C_9  and  C_21
REMARK    4  A    between atoms: N_26  and  C_29
REMARK    5  A    between atoms: C_30  and  C_35
REMARK    6  A    between atoms: C_35  and  N_36
REMARK                            x       y       z     vdW  Elec       q    Type
REMARK                         _______ _______ _______ _____ _____    ______ ____
ROOT
ATOM      1  C   UNL     1      36.024 -23.779 -15.292  0.00  0.00    +0.014 C 
ATOM      2  C   UNL     1      37.263 -23.110 -15.445  0.00  0.00    +0.001 C 
ATOM      3  C   UNL     1      34.946 -23.427 -16.120  0.00  0.00    +0.057 C 
ATOM      4  C   UNL     1      36.304 -21.772 -17.237  0.00  0.00    +0.055 C 
ATOM      5  C   UNL     1      37.386 -22.109 -16.423  0.00  0.00    +0.005 C 
ATOM      6  C   UNL     1      35.087 -22.430 -17.086  0.00  0.00    +0.020 C 
ATOM      7  C   UNL     1      35.900 -24.780 -14.315  0.00  0.00    +0.004 C 
ATOM      8  C   UNL     1      38.340 -23.462 -14.616  0.00  0.00    +0.000 C 
ATOM      9  C   UNL     1      36.982 -25.117 -13.500  0.00  0.00    +0.031 C 
ATOM     10  C   UNL     1      38.199 -24.460 -13.651  0.00  0.00    +0.003 C 
ENDROOT
BRANCH   3  11
ATOM     11  N   UNL     1      33.686 -24.064 -16.010  0.00  0.00    -0.257 N 
ATOM     12  N   UNL     1      32.564 -22.632 -14.528  0.00  0.00    -0.180 NA
ATOM     13  N   UNL     1      31.480 -24.595 -15.410  0.00  0.00    -0.203 NA
ATOM     14  C   UNL     1      32.525 -23.749 -15.284  0.00  0.00    +0.091 C 
ATOM     15  C   UNL     1      31.433 -22.361 -13.844  0.00  0.00    +0.108 C 
ATOM     16  C   UNL     1      30.382 -24.263 -14.699  0.00  0.00    +0.165 C 
ATOM     17  C   UNL     1      30.300 -23.148 -13.892  0.00  0.00    +0.022 C 
ATOM     18  H   UNL     1      33.609 -24.886 -16.545  0.00  0.00    +0.164 HD
ENDBRANCH   3  11
BRANCH   9  21
ATOM     19  N   UNL     1      37.146 -27.486 -12.775  0.00  0.00    -0.343 N 
ATOM     20  N   UNL     1      36.403 -25.847 -11.285  0.00  0.00    -0.285 NA
ATOM     21  C   UNL     1      36.838 -26.157 -12.493  0.00  0.00    +0.117 C 
ATOM     22  H   UNL     1      37.041 -28.174 -12.079  0.00  0.00    +0.144 HD
ATOM     23  H   UNL     1      37.468 -27.738 -13.671  0.00  0.00    +0.144 HD
ATOM     24  H   UNL     1      36.305 -26.549 -10.601  0.00  0.00    +0.188 HD
ENDBRANCH   9  21
BRANCH   4  27
ATOM     25  O   UNL     1      37.368 -19.906 -18.130  0.00  0.00    -0.270 OA
ATOM     26  N   UNL     1      35.525 -20.770 -19.298  0.00  0.00    -0.280 N 
ATOM     27  C   UNL     1      36.449 -20.733 -18.244  0.00  0.00    +0.250 C 
ATOM     28  H   UNL     1      34.851 -21.485 -19.251  0.00  0.00    +0.155 HD
BRANCH  26  29
ATOM     29  C   UNL     1      35.436 -19.913 -20.423  0.00  0.00    +0.051 C 
ATOM     30  C   UNL     1      35.260 -18.238 -22.619  0.00  0.00    -0.044 C 
ATOM     31  C   UNL     1      34.262 -19.881 -21.156  0.00  0.00    +0.014 C 
ATOM     32  C   UNL     1      36.524 -19.127 -20.762  0.00  0.00    +0.014 C 
ATOM     33  C   UNL     1      34.174 -19.037 -22.263  0.00  0.00    -0.005 C 
ATOM     34  C   UNL     1      36.435 -18.283 -21.869  0.00  0.00    -0.005 C 
BRANCH  30  35
ATOM     35  C   UNL     1      35.165 -17.335 -23.803  0.00  0.00    -0.059 C 
BRANCH  35  36
ATOM     36  N   UNL     1      34.123 -17.734 -24.713  0.00  0.00    +0.383 N 
ATOM     37  H   UNL     1      33.306 -18.040 -24.184  0.00  0.00    -0.089 HD
ATOM     38  H   UNL     1      34.456 -18.502 -25.297  0.00  0.00    -0.089 HD
ATOM     39  H   UNL     1      33.868 -16.943 -25.305  0.00  0.00    -0.089 HD
ENDBRANCH  35  36
ENDBRANCH  30  35
ENDBRANCH  26  29
ENDBRANCH   4  27
TORSDOF 6
ENDMDL
MODEL 6
REMARK VINA RESULT:     -10.0      9.738     17.304
REMARK  Name = 448605
REMARK  6 active torsions:
REMARK  status: ('A' for Active; 'I' for Inactive)
REMARK    1  A    between atoms: C_3  and  N_11
REMARK    2  A    between atoms: C_4  and  C_27
REMARK    3  A    between atoms: C_9  and  C_21
REMARK    4  A    between atoms: N_26  and  C_29
REMARK    5  A    between atoms: C_30  and  C_35
REMARK    6  A    between atoms: C_35  and  N_36
REMARK                            x       y       z     vdW  Elec       q    Type
REMARK                         _______ _______ _______ _____ _____    ______ ____
ROOT
ATOM      1  C   UNL     1      32.444  -6.277 -22.981  0.00  0.00    +0.014 C 
ATOM      2  C   UNL     1      31.441  -6.951 -22.242  0.00  0.00    +0.001 C 
ATOM      3  C   UNL     1      33.417  -7.026 -23.660  0.00  0.00    +0.057 C 
ATOM      4  C   UNL     1      32.420  -9.084 -22.886  0.00  0.00    +0.055 C 
ATOM      5  C   UNL     1      31.444  -8.356 -22.205  0.00  0.00    +0.005 C 
ATOM      6  C   UNL     1      33.404  -8.421 -23.613  0.00  0.00    +0.020 C 
ATOM      7  C   UNL     1      32.441  -4.874 -23.018  0.00  0.00    +0.004 C 
ATOM      8  C   UNL     1      30.468  -6.202 -21.562  0.00  0.00    +0.000 C 
ATOM      9  C   UNL     1      31.465  -4.144 -22.336  0.00  0.00    +0.031 C 
ATOM     10  C   UNL     1      30.480  -4.808 -21.610  0.00  0.00    +0.003 C 
ENDROOT
BRANCH   3  11
ATOM     11  N   UNL     1      34.442  -6.402 -24.414  0.00  0.00    -0.257 N 
ATOM     12  N   UNL     1      33.370  -6.064 -26.474  0.00  0.00    -0.180 NA
ATOM     13  N   UNL     1      35.655  -5.376 -26.140  0.00  0.00    -0.203 NA
ATOM     14  C   UNL     1      34.491  -5.926 -25.734  0.00  0.00    +0.091 C 
ATOM     15  C   UNL     1      33.453  -5.596 -27.736  0.00  0.00    +0.108 C 
ATOM     16  C   UNL     1      35.668  -4.929 -27.414  0.00  0.00    +0.165 C 
ATOM     17  C   UNL     1      34.586  -5.013 -28.266  0.00  0.00    +0.022 C 
ATOM     18  H   UNL     1      35.282  -6.280 -23.916  0.00  0.00    +0.164 HD
ENDBRANCH   3  11
BRANCH   9  21
ATOM     19  N   UNL     1      32.246  -2.003 -23.322  0.00  0.00    -0.343 N 
ATOM     20  N   UNL     1      30.750  -1.998 -21.527  0.00  0.00    -0.285 NA
ATOM     21  C   UNL     1      31.476  -2.691 -22.385  0.00  0.00    +0.117 C 
ATOM     22  H   UNL     1      32.239  -1.019 -23.337  0.00  0.00    +0.144 HD
ATOM     23  H   UNL     1      32.797  -2.502 -23.969  0.00  0.00    +0.144 HD
ATOM     24  H   UNL     1      30.756  -1.014 -21.558  0.00  0.00    +0.188 HD
ENDBRANCH   9  21
BRANCH   4  27
ATOM     25  O   UNL     1      31.453 -11.115 -22.293  0.00  0.00    -0.270 OA
ATOM     26  N   UNL     1      33.495 -11.179 -23.448  0.00  0.00    -0.280 N 
ATOM     27  C   UNL     1      32.407 -10.538 -22.838  0.00  0.00    +0.250 C 
ATOM     28  H   UNL     1      34.177 -10.587 -23.839  0.00  0.00    +0.155 HD
BRANCH  26  29
ATOM     29  C   UNL     1      33.740 -12.568 -23.578  0.00  0.00    +0.051 C 
ATOM     30  C   UNL     1      34.218 -15.283 -23.830  0.00  0.00    -0.044 C 
ATOM     31  C   UNL     1      34.408 -13.234 -22.565  0.00  0.00    +0.014 C 
ATOM     32  C   UNL     1      33.305 -13.229 -24.714  0.00  0.00    +0.014 C 
ATOM     33  C   UNL     1      34.650 -14.602 -22.692  0.00  0.00    -0.005 C 
ATOM     34  C   UNL     1      33.545 -14.596 -24.841  0.00  0.00    -0.005 C 
BRANCH  30  35
ATOM     35  C   UNL     1      34.475 -16.746 -23.965  0.00  0.00    -0.059 C 
BRANCH  35  36
ATOM     36  N   UNL     1      35.442 -17.223 -23.009  0.00  0.00    +0.383 N 
ATOM     37  H   UNL     1      35.677 -18.193 -23.217  0.00  0.00    -0.089 HD
ATOM     38  H   UNL     1      35.049 -17.162 -22.070  0.00  0.00    -0.089 HD
ATOM     39  H   UNL     1      36.284 -16.649 -23.063  0.00  0.00    -0.089 HD
ENDBRANCH  35  36
ENDBRANCH  30  35
ENDBRANCH  26  29
ENDBRANCH   4  27
TORSDOF 6
ENDMDL
MODEL 7
REMARK VINA RESULT:      -9.5      1.147      1.829
REMARK  Name = 448605
REMARK  6 active torsions:
REMARK  status: ('A' for Active; 'I' for Inactive)
REMARK    1  A    between atoms: C_3  and  N_11
REMARK    2  A    between atoms: C_4  and  C_27
REMARK    3  A    between atoms: C_9  and  C_21
REMARK    4  A    between atoms: N_26  and  C_29
REMARK    5  A    between atoms: C_30  and  C_35
REMARK    6  A    between atoms: C_35  and  N_36
REMARK                            x       y       z     vdW  Elec       q    Type
REMARK                         _______ _______ _______ _____ _____    ______ ____
ROOT
ATOM      1  C   UNL     1      32.753 -23.590 -15.918  0.00  0.00    +0.014 C 
ATOM      2  C   UNL     1      31.998 -22.733 -16.755  0.00  0.00    +0.001 C 
ATOM      3  C   UNL     1      34.127 -23.747 -16.156  0.00  0.00    +0.057 C 
ATOM      4  C   UNL     1      34.008 -22.227 -18.029  0.00  0.00    +0.055 C 
ATOM      5  C   UNL     1      32.642 -22.058 -17.806  0.00  0.00    +0.005 C 
ATOM      6  C   UNL     1      34.750 -23.070 -17.205  0.00  0.00    +0.020 C 
ATOM      7  C   UNL     1      32.110 -24.264 -14.867  0.00  0.00    +0.004 C 
ATOM      8  C   UNL     1      30.623 -22.576 -16.516  0.00  0.00    +0.000 C 
ATOM      9  C   UNL     1      30.742 -24.096 -14.644  0.00  0.00    +0.031 C 
ATOM     10  C   UNL     1      30.001 -23.253 -15.467  0.00  0.00    +0.003 C 
ENDROOT
BRANCH   3  11
ATOM     11  N   UNL     1      34.929 -24.592 -15.350  0.00  0.00    -0.257 N 
ATOM     12  N   UNL     1      36.999 -23.489 -15.427  0.00  0.00    -0.180 NA
ATOM     13  N   UNL     1      36.730 -25.528 -14.172  0.00  0.00    -0.203 NA
ATOM     14  C   UNL     1      36.279 -24.534 -14.966  0.00  0.00    +0.091 C 
ATOM     15  C   UNL     1      38.290 -23.465 -15.039  0.00  0.00    +0.108 C 
ATOM     16  C   UNL     1      38.031 -25.442 -13.823  0.00  0.00    +0.165 C 
ATOM     17  C   UNL     1      38.867 -24.423 -14.230  0.00  0.00    +0.022 C 
ATOM     18  H   UNL     1      34.447 -25.371 -14.989  0.00  0.00    +0.164 HD
ENDBRANCH   3  11
BRANCH   9  21
ATOM     19  N   UNL     1      28.997 -25.634 -13.776  0.00  0.00    -0.343 N 
ATOM     20  N   UNL     1      30.535 -24.652 -12.316  0.00  0.00    -0.285 NA
ATOM     21  C   UNL     1      30.091 -24.801 -13.551  0.00  0.00    +0.117 C 
ATOM     22  H   UNL     1      28.571 -26.101 -13.022  0.00  0.00    +0.144 HD
ATOM     23  H   UNL     1      28.649 -25.756 -14.690  0.00  0.00    +0.144 HD
ATOM     24  H   UNL     1      30.095 -25.129 -11.574  0.00  0.00    +0.188 HD
ENDBRANCH   9  21
BRANCH   4  27
ATOM     25  O   UNL     1      35.792 -21.878 -19.480  0.00  0.00    -0.270 OA
ATOM     26  N   UNL     1      33.919 -20.484 -19.705  0.00  0.00    -0.280 N 
ATOM     27  C   UNL     1      34.659 -21.521 -19.121  0.00  0.00    +0.250 C 
ATOM     28  H   UNL     1      33.033 -20.316 -19.311  0.00  0.00    +0.155 HD
BRANCH  26  29
ATOM     29  C   UNL     1      34.279 -19.646 -20.789  0.00  0.00    +0.051 C 
ATOM     30  C   UNL     1      34.983 -18.009 -22.908  0.00  0.00    -0.044 C 
ATOM     31  C   UNL     1      35.072 -18.537 -20.552  0.00  0.00    +0.014 C 
ATOM     32  C   UNL     1      33.828 -19.955 -22.062  0.00  0.00    +0.014 C 
ATOM     33  C   UNL     1      35.427 -17.712 -21.620  0.00  0.00    -0.005 C 
ATOM     34  C   UNL     1      34.183 -19.131 -23.128  0.00  0.00    -0.005 C 
BRANCH  30  35
ATOM     35  C   UNL     1      35.362 -17.127 -24.049  0.00  0.00    -0.059 C 
BRANCH  35  36
ATOM     36  N   UNL     1      34.697 -15.850 -23.999  0.00  0.00    +0.383 N 
ATOM     37  H   UNL     1      35.244 -15.202 -23.433  0.00  0.00    -0.089 HD
ATOM     38  H   UNL     1      33.771 -15.965 -23.586  0.00  0.00    -0.089 HD
ATOM     39  H   UNL     1      34.603 -15.480 -24.945  0.00  0.00    -0.089 HD
ENDBRANCH  35  36
ENDBRANCH  30  35
ENDBRANCH  26  29
ENDBRANCH   4  27
TORSDOF 6
ENDMDL
