MODEL 1
REMARK VINA RESULT:      -9.8      0.000      0.000
REMARK  Name = 11317439
REMARK  4 active torsions:
REMARK  status: ('A' for Active; 'I' for Inactive)
REMARK    1  A    between atoms: C_6  and  C_18
REMARK    2  A    between atoms: C_10  and  O_35
REMARK    3  A    between atoms: C_18  and  C_27
REMARK    4  A    between atoms: C_28  and  C_29
REMARK                            x       y       z     vdW  Elec       q    Type
REMARK                         _______ _______ _______ _____ _____    ______ ____
ROOT
ATOM      1  N   UNL     1      33.330 -14.829 -20.231  0.00  0.00    -0.309 N 
ATOM      2  N   UNL     1      34.967 -16.385 -22.231  0.00  0.00    -0.160 N 
ATOM      3  N   UNL     1      34.373 -14.698 -23.769  0.00  0.00    -0.223 NA
ATOM      4  N   UNL     1      34.933 -16.943 -21.007  0.00  0.00    -0.125 NA
ATOM      5  N   UNL     1      36.193 -18.186 -22.457  0.00  0.00    -0.198 NA
ATOM      6  C   UNL     1      32.256 -12.957 -20.638  0.00  0.00    +0.062 C 
ATOM      7  C   UNL     1      32.886 -13.342 -21.836  0.00  0.00    +0.056 C 
ATOM      8  C   UNL     1      33.561 -14.532 -21.553  0.00  0.00    +0.085 C 
ATOM      9  C   UNL     1      32.533 -13.869 -19.666  0.00  0.00    +0.065 C 
ATOM     10  C   UNL     1      32.962 -12.819 -23.134  0.00  0.00    +0.159 C 
ATOM     11  C   UNL     1      34.301 -15.206 -22.516  0.00  0.00    +0.167 C 
ATOM     12  C   UNL     1      33.719 -13.545 -24.044  0.00  0.00    +0.137 C 
ATOM     13  C   UNL     1      35.721 -17.134 -23.084  0.00  0.00    +0.253 C 
ATOM     14  C   UNL     1      35.688 -18.027 -21.198  0.00  0.00    +0.027 C 
ATOM     15  C   UNL     1      35.958 -18.987 -20.120  0.00  0.00    +0.116 C 
ATOM     16  H   UNL     1      33.686 -15.616 -19.759  0.00  0.00    +0.152 HD
ENDROOT
BRANCH   6  18
ATOM     17  O   UNL     1      30.330 -11.601 -20.938  0.00  0.00    -0.282 OA
ATOM     18  C   UNL     1      31.426 -11.776 -20.410  0.00  0.00    +0.250 C 
BRANCH  18  27
ATOM     19  O   UNL     1      31.883 -10.945 -18.322  0.00  0.00    -0.266 OA
ATOM     20  O   UNL     1      32.696  -4.658 -20.976  0.00  0.00    -0.270 OA
ATOM     21  N   UNL     1      32.181  -9.477 -20.133  0.00  0.00    -0.270 N 
ATOM     22  N   UNL     1      31.921  -6.856 -21.152  0.00  0.00    -0.273 N 
ATOM     23  C   UNL     1      32.620  -8.339 -19.325  0.00  0.00    +0.115 C 
ATOM     24  C   UNL     1      32.205  -9.261 -21.586  0.00  0.00    +0.115 C 
ATOM     25  C   UNL     1      31.860  -7.072 -19.706  0.00  0.00    +0.115 C 
ATOM     26  C   UNL     1      31.444  -7.991 -21.955  0.00  0.00    +0.115 C 
ATOM     27  C   UNL     1      31.857 -10.676 -19.516  0.00  0.00    +0.288 C 
ATOM     28  C   UNL     1      32.348  -5.624 -21.652  0.00  0.00    +0.249 C 
BRANCH  28  29
ATOM     29  C   UNL     1      32.408  -5.453 -23.109  0.00  0.00    +0.054 C 
ATOM     30  C   UNL     1      33.524  -5.894 -23.814  0.00  0.00    +0.005 C 
ATOM     31  C   UNL     1      31.347  -4.847 -23.779  0.00  0.00    +0.005 C 
ATOM     32  C   UNL     1      33.580  -5.731 -25.198  0.00  0.00    +0.000 C 
ATOM     33  C   UNL     1      31.403  -4.684 -25.163  0.00  0.00    +0.000 C 
ATOM     34  C   UNL     1      32.520  -5.126 -25.872  0.00  0.00    +0.000 C 
ENDBRANCH  28  29
ENDBRANCH  18  27
ENDBRANCH   6  18
BRANCH  10  35
ATOM     35  O   UNL     1      32.340 -11.663 -23.505  0.00  0.00    -0.470 OA
ATOM     36  C   UNL     1      33.113 -10.723 -24.249  0.00  0.00    +0.253 C 
ENDBRANCH  10  35
TORSDOF 4
ENDMDL
MODEL 2
REMARK VINA RESULT:      -9.8      6.351     10.967
REMARK  Name = 11317439
REMARK  4 active torsions:
REMARK  status: ('A' for Active; 'I' for Inactive)
REMARK    1  A    between atoms: C_6  and  C_18
REMARK    2  A    between atoms: C_10  and  O_35
REMARK    3  A    between atoms: C_18  and  C_27
REMARK    4  A    between atoms: C_28  and  C_29
REMARK                            x       y       z     vdW  Elec       q    Type
REMARK                         _______ _______ _______ _____ _____    ______ ____
ROOT
ATOM      1  N   UNL     1      32.253 -22.095 -17.975  0.00  0.00    -0.309 N 
ATOM      2  N   UNL     1      31.322 -23.690 -15.589  0.00  0.00    -0.160 N 
ATOM      3  N   UNL     1      33.608 -23.865 -15.032  0.00  0.00    -0.223 NA
ATOM      4  N   UNL     1      30.321 -23.267 -16.382  0.00  0.00    -0.125 NA
ATOM      5  N   UNL     1      29.526 -24.464 -14.602  0.00  0.00    -0.198 NA
ATOM      6  C   UNL     1      34.342 -21.622 -18.459  0.00  0.00    +0.062 C 
ATOM      7  C   UNL     1      34.353 -22.378 -17.273  0.00  0.00    +0.056 C 
ATOM      8  C   UNL     1      33.017 -22.666 -16.985  0.00  0.00    +0.085 C 
ATOM      9  C   UNL     1      33.058 -21.455 -18.879  0.00  0.00    +0.065 C 
ATOM     10  C   UNL     1      35.345 -22.854 -16.404  0.00  0.00    +0.159 C 
ATOM     11  C   UNL     1      32.647 -23.407 -15.869  0.00  0.00    +0.167 C 
ATOM     12  C   UNL     1      34.903 -23.586 -15.310  0.00  0.00    +0.137 C 
ATOM     13  C   UNL     1      30.835 -24.402 -14.533  0.00  0.00    +0.253 C 
ATOM     14  C   UNL     1      29.259 -23.761 -15.742  0.00  0.00    +0.027 C 
ATOM     15  C   UNL     1      27.891 -23.559 -16.233  0.00  0.00    +0.116 C 
ATOM     16  H   UNL     1      31.271 -22.140 -18.025  0.00  0.00    +0.152 HD
ENDROOT
BRANCH   6  18
ATOM     17  O   UNL     1      36.456 -20.552 -18.618  0.00  0.00    -0.282 OA
ATOM     18  C   UNL     1      35.493 -21.074 -19.175  0.00  0.00    +0.250 C 
BRANCH  18  27
ATOM     19  O   UNL     1      35.988 -22.144 -21.142  0.00  0.00    -0.266 OA
ATOM     20  O   UNL     1      34.965 -16.299 -24.608  0.00  0.00    -0.270 OA
ATOM     21  N   UNL     1      35.187 -19.941 -21.309  0.00  0.00    -0.270 N 
ATOM     22  N   UNL     1      35.342 -17.434 -22.600  0.00  0.00    -0.273 N 
ATOM     23  C   UNL     1      35.237 -19.881 -22.771  0.00  0.00    +0.115 C 
ATOM     24  C   UNL     1      34.624 -18.754 -20.651  0.00  0.00    +0.115 C 
ATOM     25  C   UNL     1      35.935 -18.608 -23.242  0.00  0.00    +0.115 C 
ATOM     26  C   UNL     1      35.327 -17.488 -21.131  0.00  0.00    +0.115 C 
ATOM     27  C   UNL     1      35.579 -21.099 -20.654  0.00  0.00    +0.288 C 
ATOM     28  C   UNL     1      34.903 -16.363 -23.382  0.00  0.00    +0.249 C 
BRANCH  28  29
ATOM     29  C   UNL     1      34.302 -15.210 -22.700  0.00  0.00    +0.054 C 
ATOM     30  C   UNL     1      33.445 -14.362 -23.398  0.00  0.00    +0.005 C 
ATOM     31  C   UNL     1      34.593 -14.968 -21.360  0.00  0.00    +0.005 C 
ATOM     32  C   UNL     1      32.874 -13.267 -22.750  0.00  0.00    +0.000 C 
ATOM     33  C   UNL     1      34.023 -13.873 -20.712  0.00  0.00    +0.000 C 
ATOM     34  C   UNL     1      33.163 -13.022 -21.408  0.00  0.00    +0.000 C 
ENDBRANCH  28  29
ENDBRANCH  18  27
ENDBRANCH   6  18
BRANCH  10  35
ATOM     35  O   UNL     1      36.675 -22.622 -16.600  0.00  0.00    -0.470 OA
ATOM     36  C   UNL     1      37.520 -22.703 -15.455  0.00  0.00    +0.253 C 
ENDBRANCH  10  35
TORSDOF 4
ENDMDL
MODEL 3
REMARK VINA RESULT:      -8.9      6.091     10.716
REMARK  Name = 11317439
REMARK  4 active torsions:
REMARK  status: ('A' for Active; 'I' for Inactive)
REMARK    1  A    between atoms: C_6  and  C_18
REMARK    2  A    between atoms: C_10  and  O_35
REMARK    3  A    between atoms: C_18  and  C_27
REMARK    4  A    between atoms: C_28  and  C_29
REMARK                            x       y       z     vdW  Elec       q    Type
REMARK                         _______ _______ _______ _____ _____    ______ ____
ROOT
ATOM      1  N   UNL     1      36.589 -22.066 -15.901  0.00  0.00    -0.309 N 
ATOM      2  N   UNL     1      34.580 -23.728 -14.383  0.00  0.00    -0.160 N 
ATOM      3  N   UNL     1      33.168 -23.409 -16.246  0.00  0.00    -0.223 NA
ATOM      4  N   UNL     1      35.740 -23.545 -13.725  0.00  0.00    -0.125 NA
ATOM      5  N   UNL     1      34.279 -24.813 -12.505  0.00  0.00    -0.198 NA
ATOM      6  C   UNL     1      36.280 -21.191 -17.892  0.00  0.00    +0.062 C 
ATOM      7  C   UNL     1      35.102 -21.884 -17.557  0.00  0.00    +0.056 C 
ATOM      8  C   UNL     1      35.322 -22.430 -16.290  0.00  0.00    +0.085 C 
ATOM      9  C   UNL     1      37.180 -21.308 -16.877  0.00  0.00    +0.065 C 
ATOM     10  C   UNL     1      33.869 -22.113 -18.183  0.00  0.00    +0.159 C 
ATOM     11  C   UNL     1      34.358 -23.190 -15.638  0.00  0.00    +0.167 C 
ATOM     12  C   UNL     1      32.954 -22.879 -17.473  0.00  0.00    +0.137 C 
ATOM     13  C   UNL     1      33.719 -24.485 -13.645  0.00  0.00    +0.253 C 
ATOM     14  C   UNL     1      35.505 -24.220 -12.598  0.00  0.00    +0.027 C 
ATOM     15  C   UNL     1      36.505 -24.317 -11.527  0.00  0.00    +0.116 C 
ATOM     16  H   UNL     1      37.010 -22.314 -15.047  0.00  0.00    +0.152 HD
ENDROOT
BRANCH   6  18
ATOM     17  O   UNL     1      37.240 -19.427 -19.159  0.00  0.00    -0.282 OA
ATOM     18  C   UNL     1      36.555 -20.447 -19.119  0.00  0.00    +0.250 C 
BRANCH  18  27
ATOM     19  O   UNL     1      36.119 -22.061 -20.689  0.00  0.00    -0.266 OA
ATOM     20  O   UNL     1      34.052 -17.231 -25.119  0.00  0.00    -0.270 OA
ATOM     21  N   UNL     1      35.442 -19.872 -21.207  0.00  0.00    -0.270 N 
ATOM     22  N   UNL     1      35.175 -17.854 -23.165  0.00  0.00    -0.273 N 
ATOM     23  C   UNL     1      34.876 -20.203 -22.517  0.00  0.00    +0.115 C 
ATOM     24  C   UNL     1      35.273 -18.474 -20.786  0.00  0.00    +0.115 C 
ATOM     25  C   UNL     1      35.379 -19.240 -23.589  0.00  0.00    +0.115 C 
ATOM     26  C   UNL     1      35.777 -17.521 -21.867  0.00  0.00    +0.115 C 
ATOM     27  C   UNL     1      36.011 -20.870 -20.431  0.00  0.00    +0.288 C 
ATOM     28  C   UNL     1      34.508 -16.963 -24.008  0.00  0.00    +0.249 C 
BRANCH  28  29
ATOM     29  C   UNL     1      34.312 -15.584 -23.542  0.00  0.00    +0.054 C 
ATOM     30  C   UNL     1      34.782 -15.204 -22.287  0.00  0.00    +0.005 C 
ATOM     31  C   UNL     1      33.655 -14.664 -24.355  0.00  0.00    +0.005 C 
ATOM     32  C   UNL     1      34.595 -13.895 -21.845  0.00  0.00    +0.000 C 
ATOM     33  C   UNL     1      33.469 -13.355 -23.912  0.00  0.00    +0.000 C 
ATOM     34  C   UNL     1      33.939 -12.971 -22.656  0.00  0.00    +0.000 C 
ENDBRANCH  28  29
ENDBRANCH  18  27
ENDBRANCH   6  18
BRANCH  10  35
ATOM     35  O   UNL     1      33.563 -21.623 -19.418  0.00  0.00    -0.470 OA
ATOM     36  C   UNL     1      32.570 -20.602 -19.481  0.00  0.00    +0.253 C 
ENDBRANCH  10  35
TORSDOF 4
ENDMDL
MODEL 4
REMARK VINA RESULT:      -8.9      2.224      3.980
REMARK  Name = 11317439
REMARK  4 active torsions:
REMARK  status: ('A' for Active; 'I' for Inactive)
REMARK    1  A    between atoms: C_6  and  C_18
REMARK    2  A    between atoms: C_10  and  O_35
REMARK    3  A    between atoms: C_18  and  C_27
REMARK    4  A    between atoms: C_28  and  C_29
REMARK                            x       y       z     vdW  Elec       q    Type
REMARK                         _______ _______ _______ _____ _____    ______ ____
ROOT
ATOM      1  N   UNL     1      32.995 -12.176 -23.404  0.00  0.00    -0.309 N 
ATOM      2  N   UNL     1      33.895 -14.575 -21.811  0.00  0.00    -0.160 N 
ATOM      3  N   UNL     1      32.972 -13.465 -19.945  0.00  0.00    -0.223 NA
ATOM      4  N   UNL     1      34.191 -14.652 -23.121  0.00  0.00    -0.125 NA
ATOM      5  N   UNL     1      34.908 -16.509 -21.993  0.00  0.00    -0.198 NA
ATOM      6  C   UNL     1      31.952 -10.421 -22.592  0.00  0.00    +0.062 C 
ATOM      7  C   UNL     1      32.186 -11.298 -21.517  0.00  0.00    +0.056 C 
ATOM      8  C   UNL     1      32.847 -12.404 -22.056  0.00  0.00    +0.085 C 
ATOM      9  C   UNL     1      32.449 -10.965 -23.737  0.00  0.00    +0.065 C 
ATOM     10  C   UNL     1      31.911 -11.284 -20.142  0.00  0.00    +0.159 C 
ATOM     11  C   UNL     1      33.238 -13.482 -21.272  0.00  0.00    +0.167 C 
ATOM     12  C   UNL     1      32.331 -12.394 -19.422  0.00  0.00    +0.137 C 
ATOM     13  C   UNL     1      34.327 -15.687 -21.151  0.00  0.00    +0.253 C 
ATOM     14  C   UNL     1      34.802 -15.837 -23.177  0.00  0.00    +0.027 C 
ATOM     15  C   UNL     1      35.326 -16.384 -24.435  0.00  0.00    +0.116 C 
ATOM     16  H   UNL     1      33.428 -12.793 -24.036  0.00  0.00    +0.152 HD
ENDROOT
BRANCH   6  18
ATOM     17  O   UNL     1      30.112  -8.946 -22.863  0.00  0.00    -0.282 OA
ATOM     18  C   UNL     1      31.287  -9.120 -22.550  0.00  0.00    +0.250 C 
BRANCH  18  27
ATOM     19  O   UNL     1      32.189  -7.776 -20.926  0.00  0.00    -0.266 OA
ATOM     20  O   UNL     1      33.341  -2.866 -25.594  0.00  0.00    -0.270 OA
ATOM     21  N   UNL     1      32.364  -7.018 -23.143  0.00  0.00    -0.270 N 
ATOM     22  N   UNL     1      32.273  -4.839 -24.937  0.00  0.00    -0.273 N 
ATOM     23  C   UNL     1      33.074  -5.780 -22.816  0.00  0.00    +0.115 C 
ATOM     24  C   UNL     1      32.173  -7.271 -24.578  0.00  0.00    +0.115 C 
ATOM     25  C   UNL     1      32.428  -4.581 -23.505  0.00  0.00    +0.115 C 
ATOM     26  C   UNL     1      31.529  -6.066 -25.256  0.00  0.00    +0.115 C 
ATOM     27  C   UNL     1      31.998  -7.890 -22.129  0.00  0.00    +0.288 C 
ATOM     28  C   UNL     1      32.765  -3.918 -25.865  0.00  0.00    +0.249 C 
BRANCH  28  29
ATOM     29  C   UNL     1      32.601  -4.220 -27.292  0.00  0.00    +0.054 C 
ATOM     30  C   UNL     1      33.390  -5.200 -27.889  0.00  0.00    +0.005 C 
ATOM     31  C   UNL     1      31.659  -3.522 -28.044  0.00  0.00    +0.005 C 
ATOM     32  C   UNL     1      33.234  -5.486 -29.244  0.00  0.00    +0.000 C 
ATOM     33  C   UNL     1      31.503  -3.808 -29.400  0.00  0.00    +0.000 C 
ATOM     34  C   UNL     1      32.291  -4.791 -30.000  0.00  0.00    +0.000 C 
ENDBRANCH  28  29
ENDBRANCH  18  27
ENDBRANCH   6  18
BRANCH  10  35
ATOM     35  O   UNL     1      31.268 -10.251 -19.526  0.00  0.00    -0.470 OA
ATOM     36  C   UNL     1      31.591 -10.013 -18.158  0.00  0.00    +0.253 C 
ENDBRANCH  10  35
TORSDOF 4
ENDMDL
MODEL 5
REMARK VINA RESULT:      -8.7      2.471     10.565
REMARK  Name = 11317439
REMARK  4 active torsions:
REMARK  status: ('A' for Active; 'I' for Inactive)
REMARK    1  A    between atoms: C_6  and  C_18
REMARK    2  A    between atoms: C_10  and  O_35
REMARK    3  A    between atoms: C_18  and  C_27
REMARK    4  A    between atoms: C_28  and  C_29
REMARK                            x       y       z     vdW  Elec       q    Type
REMARK                         _______ _______ _______ _____ _____    ______ ____
ROOT
ATOM      1  N   UNL     1      33.823  -9.707 -23.808  0.00  0.00    -0.309 N 
ATOM      2  N   UNL     1      31.803  -7.580 -23.103  0.00  0.00    -0.160 N 
ATOM      3  N   UNL     1      30.766  -9.244 -21.791  0.00  0.00    -0.223 NA
ATOM      4  N   UNL     1      32.768  -7.155 -23.939  0.00  0.00    -0.125 NA
ATOM      5  N   UNL     1      31.283  -5.482 -23.459  0.00  0.00    -0.198 NA
ATOM      6  C   UNL     1      33.804 -11.779 -23.081  0.00  0.00    +0.062 C 
ATOM      7  C   UNL     1      32.692 -11.130 -22.513  0.00  0.00    +0.056 C 
ATOM      8  C   UNL     1      32.725  -9.817 -22.988  0.00  0.00    +0.085 C 
ATOM      9  C   UNL     1      34.487 -10.903 -23.868  0.00  0.00    +0.065 C 
ATOM     10  C   UNL     1      31.656 -11.505 -21.646  0.00  0.00    +0.159 C 
ATOM     11  C   UNL     1      31.766  -8.879 -22.628  0.00  0.00    +0.167 C 
ATOM     12  C   UNL     1      30.733 -10.516 -21.331  0.00  0.00    +0.137 C 
ATOM     13  C   UNL     1      30.926  -6.574 -22.825  0.00  0.00    +0.253 C 
ATOM     14  C   UNL     1      32.407  -5.883 -24.123  0.00  0.00    +0.027 C 
ATOM     15  C   UNL     1      33.173  -4.974 -24.985  0.00  0.00    +0.116 C 
ATOM     16  H   UNL     1      34.093  -8.887 -24.281  0.00  0.00    +0.152 HD
ENDROOT
BRANCH   6  18
ATOM     17  O   UNL     1      34.600 -13.626 -21.819  0.00  0.00    -0.282 OA
ATOM     18  C   UNL     1      34.214 -13.169 -22.893  0.00  0.00    +0.250 C 
BRANCH  18  27
ATOM     19  O   UNL     1      33.820 -13.714 -25.085  0.00  0.00    -0.266 OA
ATOM     20  O   UNL     1      35.018 -20.334 -23.681  0.00  0.00    -0.270 OA
ATOM     21  N   UNL     1      34.628 -15.429 -23.698  0.00  0.00    -0.270 N 
ATOM     22  N   UNL     1      34.539 -18.157 -22.973  0.00  0.00    -0.273 N 
ATOM     23  C   UNL     1      34.653 -16.457 -24.740  0.00  0.00    +0.115 C 
ATOM     24  C   UNL     1      35.156 -15.847 -22.392  0.00  0.00    +0.115 C 
ATOM     25  C   UNL     1      33.980 -17.740 -24.259  0.00  0.00    +0.115 C 
ATOM     26  C   UNL     1      34.479 -17.131 -21.923  0.00  0.00    +0.115 C 
ATOM     27  C   UNL     1      34.203 -14.146 -24.006  0.00  0.00    +0.288 C 
ATOM     28  C   UNL     1      35.017 -19.460 -22.815  0.00  0.00    +0.249 C 
BRANCH  28  29
ATOM     29  C   UNL     1      35.582 -19.836 -21.513  0.00  0.00    +0.054 C 
ATOM     30  C   UNL     1      34.884 -20.706 -20.679  0.00  0.00    +0.005 C 
ATOM     31  C   UNL     1      36.813 -19.320 -21.117  0.00  0.00    +0.005 C 
ATOM     32  C   UNL     1      35.422 -21.063 -19.443  0.00  0.00    +0.000 C 
ATOM     33  C   UNL     1      37.351 -19.676 -19.881  0.00  0.00    +0.000 C 
ATOM     34  C   UNL     1      36.654 -20.548 -19.043  0.00  0.00    +0.000 C 
ENDBRANCH  28  29
ENDBRANCH  18  27
ENDBRANCH   6  18
BRANCH  10  35
ATOM     35  O   UNL     1      31.540 -12.762 -21.129  0.00  0.00    -0.470 OA
ATOM     36  C   UNL     1      32.102 -12.982 -19.837  0.00  0.00    +0.253 C 
ENDBRANCH  10  35
TORSDOF 4
ENDMDL
MODEL 6
REMARK VINA RESULT:      -8.6      5.042      9.301
REMARK  Name = 11317439
REMARK  4 active torsions:
REMARK  status: ('A' for Active; 'I' for Inactive)
REMARK    1  A    between atoms: C_6  and  C_18
REMARK    2  A    between atoms: C_10  and  O_35
REMARK    3  A    between atoms: C_18  and  C_27
REMARK    4  A    between atoms: C_28  and  C_29
REMARK                            x       y       z     vdW  Elec       q    Type
REMARK                         _______ _______ _______ _____ _____    ______ ____
ROOT
ATOM      1  N   UNL     1      36.831 -21.502 -17.782  0.00  0.00    -0.309 N 
ATOM      2  N   UNL     1      35.022 -23.357 -16.236  0.00  0.00    -0.160 N 
ATOM      3  N   UNL     1      33.327 -22.661 -17.721  0.00  0.00    -0.223 NA
ATOM      4  N   UNL     1      36.289 -23.331 -15.782  0.00  0.00    -0.125 NA
ATOM      5  N   UNL     1      34.990 -24.761 -14.555  0.00  0.00    -0.198 NA
ATOM      6  C   UNL     1      36.230 -20.268 -19.496  0.00  0.00    +0.062 C 
ATOM      7  C   UNL     1      35.090 -20.976 -19.077  0.00  0.00    +0.056 C 
ATOM      8  C   UNL     1      35.495 -21.753 -17.989  0.00  0.00    +0.085 C 
ATOM      9  C   UNL     1      37.285 -20.595 -18.701  0.00  0.00    +0.065 C 
ATOM     10  C   UNL     1      33.754 -21.051 -19.495  0.00  0.00    +0.159 C 
ATOM     11  C   UNL     1      34.616 -22.591 -17.315  0.00  0.00    +0.167 C 
ATOM     12  C   UNL     1      32.933 -21.909 -18.775  0.00  0.00    +0.137 C 
ATOM     13  C   UNL     1      34.260 -24.213 -15.497  0.00  0.00    +0.253 C 
ATOM     14  C   UNL     1      36.215 -24.195 -14.767  0.00  0.00    +0.027 C 
ATOM     15  C   UNL     1      37.380 -24.516 -13.932  0.00  0.00    +0.116 C 
ATOM     16  H   UNL     1      37.379 -21.915 -17.077  0.00  0.00    +0.152 HD
ENDROOT
BRANCH   6  18
ATOM     17  O   UNL     1      36.954 -18.261 -20.540  0.00  0.00    -0.282 OA
ATOM     18  C   UNL     1      36.330 -19.318 -20.603  0.00  0.00    +0.250 C 
BRANCH  18  27
ATOM     19  O   UNL     1      35.793 -20.688 -22.362  0.00  0.00    -0.266 OA
ATOM     20  O   UNL     1      33.074 -15.346 -25.723  0.00  0.00    -0.270 OA
ATOM     21  N   UNL     1      34.979 -18.485 -22.449  0.00  0.00    -0.270 N 
ATOM     22  N   UNL     1      34.424 -16.204 -24.018  0.00  0.00    -0.273 N 
ATOM     23  C   UNL     1      34.289 -18.638 -23.732  0.00  0.00    +0.115 C 
ATOM     24  C   UNL     1      34.801 -17.183 -21.793  0.00  0.00    +0.115 C 
ATOM     25  C   UNL     1      34.636 -17.492 -24.679  0.00  0.00    +0.115 C 
ATOM     26  C   UNL     1      35.148 -16.046 -22.749  0.00  0.00    +0.115 C 
ATOM     27  C   UNL     1      35.665 -19.559 -21.905  0.00  0.00    +0.288 C 
ATOM     28  C   UNL     1      33.636 -15.230 -24.635  0.00  0.00    +0.249 C 
BRANCH  28  29
ATOM     29  C   UNL     1      33.437 -13.955 -23.934  0.00  0.00    +0.054 C 
ATOM     30  C   UNL     1      34.018 -12.792 -24.433  0.00  0.00    +0.005 C 
ATOM     31  C   UNL     1      32.669 -13.915 -22.773  0.00  0.00    +0.005 C 
ATOM     32  C   UNL     1      33.829 -11.582 -23.766  0.00  0.00    +0.000 C 
ATOM     33  C   UNL     1      32.480 -12.705 -22.107  0.00  0.00    +0.000 C 
ATOM     34  C   UNL     1      33.060 -11.538 -22.604  0.00  0.00    +0.000 C 
ENDBRANCH  28  29
ENDBRANCH  18  27
ENDBRANCH   6  18
BRANCH  10  35
ATOM     35  O   UNL     1      33.266 -20.334 -20.548  0.00  0.00    -0.470 OA
ATOM     36  C   UNL     1      31.983 -19.735 -20.382  0.00  0.00    +0.253 C 
ENDBRANCH  10  35
TORSDOF 4
ENDMDL
MODEL 7
REMARK VINA RESULT:      -8.6      8.177     14.483
REMARK  Name = 11317439
REMARK  4 active torsions:
REMARK  status: ('A' for Active; 'I' for Inactive)
REMARK    1  A    between atoms: C_6  and  C_18
REMARK    2  A    between atoms: C_10  and  O_35
REMARK    3  A    between atoms: C_18  and  C_27
REMARK    4  A    between atoms: C_28  and  C_29
REMARK                            x       y       z     vdW  Elec       q    Type
REMARK                         _______ _______ _______ _____ _____    ______ ____
ROOT
ATOM      1  N   UNL     1      33.578 -20.027 -21.044  0.00  0.00    -0.309 N 
ATOM      2  N   UNL     1      35.607 -17.945 -21.849  0.00  0.00    -0.160 N 
ATOM      3  N   UNL     1      37.033 -18.975 -20.278  0.00  0.00    -0.223 NA
ATOM      4  N   UNL     1      34.434 -17.840 -22.502  0.00  0.00    -0.125 NA
ATOM      5  N   UNL     1      35.910 -16.226 -23.174  0.00  0.00    -0.198 NA
ATOM      6  C   UNL     1      33.889 -21.601 -19.543  0.00  0.00    +0.062 C 
ATOM      7  C   UNL     1      35.078 -20.852 -19.611  0.00  0.00    +0.056 C 
ATOM      8  C   UNL     1      34.858 -19.860 -20.569  0.00  0.00    +0.085 C 
ATOM      9  C   UNL     1      32.982 -21.090 -20.420  0.00  0.00    +0.065 C 
ATOM     10  C   UNL     1      36.323 -20.900 -18.968  0.00  0.00    +0.159 C 
ATOM     11  C   UNL     1      35.831 -18.926 -20.900  0.00  0.00    +0.167 C 
ATOM     12  C   UNL     1      37.247 -19.935 -19.349  0.00  0.00    +0.137 C 
ATOM     13  C   UNL     1      36.476 -16.978 -22.259  0.00  0.00    +0.253 C 
ATOM     14  C   UNL     1      34.671 -16.788 -23.288  0.00  0.00    +0.027 C 
ATOM     15  C   UNL     1      33.660 -16.269 -24.218  0.00  0.00    +0.116 C 
ATOM     16  H   UNL     1      33.154 -19.465 -21.732  0.00  0.00    +0.152 HD
ENDROOT
BRANCH   6  18
ATOM     17  O   UNL     1      34.051 -23.882 -18.903  0.00  0.00    -0.282 OA
ATOM     18  C   UNL     1      33.612 -22.754 -18.689  0.00  0.00    +0.250 C 
BRANCH  18  27
ATOM     19  O   UNL     1      31.667 -22.117 -17.654  0.00  0.00    -0.266 OA
ATOM     20  O   UNL     1      34.352 -23.763 -11.546  0.00  0.00    -0.270 OA
ATOM     21  N   UNL     1      33.287 -23.163 -16.311  0.00  0.00    -0.270 N 
ATOM     22  N   UNL     1      34.610 -23.282 -13.819  0.00  0.00    -0.273 N 
ATOM     23  C   UNL     1      32.507 -23.104 -15.073  0.00  0.00    +0.115 C 
ATOM     24  C   UNL     1      34.573 -23.866 -16.209  0.00  0.00    +0.115 C 
ATOM     25  C   UNL     1      33.346 -22.551 -13.925  0.00  0.00    +0.115 C 
ATOM     26  C   UNL     1      35.402 -23.307 -15.056  0.00  0.00    +0.115 C 
ATOM     27  C   UNL     1      32.757 -22.648 -17.484  0.00  0.00    +0.288 C 
ATOM     28  C   UNL     1      34.993 -23.831 -12.593  0.00  0.00    +0.249 C 
BRANCH  28  29
ATOM     29  C   UNL     1      36.261 -24.569 -12.532  0.00  0.00    +0.054 C 
ATOM     30  C   UNL     1      36.394 -25.777 -13.211  0.00  0.00    +0.005 C 
ATOM     31  C   UNL     1      37.325 -24.056 -11.793  0.00  0.00    +0.005 C 
ATOM     32  C   UNL     1      37.599 -26.477 -13.152  0.00  0.00    +0.000 C 
ATOM     33  C   UNL     1      38.530 -24.756 -11.734  0.00  0.00    +0.000 C 
ATOM     34  C   UNL     1      38.666 -25.967 -12.414  0.00  0.00    +0.000 C 
ENDBRANCH  28  29
ENDBRANCH  18  27
ENDBRANCH   6  18
BRANCH  10  35
ATOM     35  O   UNL     1      36.633 -21.832 -18.022  0.00  0.00    -0.470 OA
ATOM     36  C   UNL     1      37.242 -21.358 -16.823  0.00  0.00    +0.253 C 
ENDBRANCH  10  35
TORSDOF 4
ENDMDL
MODEL 8
REMARK VINA RESULT:      -8.5      5.280      9.403
REMARK  Name = 11317439
REMARK  4 active torsions:
REMARK  status: ('A' for Active; 'I' for Inactive)
REMARK    1  A    between atoms: C_6  and  C_18
REMARK    2  A    between atoms: C_10  and  O_35
REMARK    3  A    between atoms: C_18  and  C_27
REMARK    4  A    between atoms: C_28  and  C_29
REMARK                            x       y       z     vdW  Elec       q    Type
REMARK                         _______ _______ _______ _____ _____    ______ ____
ROOT
ATOM      1  N   UNL     1      32.376 -21.049 -19.003  0.00  0.00    -0.309 N 
ATOM      2  N   UNL     1      32.125 -22.928 -16.656  0.00  0.00    -0.160 N 
ATOM      3  N   UNL     1      34.484 -22.969 -16.658  0.00  0.00    -0.223 NA
ATOM      4  N   UNL     1      30.943 -22.514 -17.148  0.00  0.00    -0.125 NA
ATOM      5  N   UNL     1      30.659 -23.931 -15.374  0.00  0.00    -0.198 NA
ATOM      6  C   UNL     1      34.262 -20.366 -19.897  0.00  0.00    +0.062 C 
ATOM      7  C   UNL     1      34.595 -21.226 -18.834  0.00  0.00    +0.056 C 
ATOM      8  C   UNL     1      33.383 -21.646 -18.282  0.00  0.00    +0.085 C 
ATOM      9  C   UNL     1      32.908 -20.265 -19.992  0.00  0.00    +0.065 C 
ATOM     10  C   UNL     1      35.789 -21.699 -18.272  0.00  0.00    +0.159 C 
ATOM     11  C   UNL     1      33.329 -22.514 -17.198  0.00  0.00    +0.167 C 
ATOM     12  C   UNL     1      35.659 -22.563 -17.193  0.00  0.00    +0.137 C 
ATOM     13  C   UNL     1      31.942 -23.771 -15.600  0.00  0.00    +0.253 C 
ATOM     14  C   UNL     1      30.092 -23.149 -16.339  0.00  0.00    +0.027 C 
ATOM     15  C   UNL     1      28.637 -23.013 -16.480  0.00  0.00    +0.116 C 
ATOM     16  H   UNL     1      31.414 -21.167 -18.832  0.00  0.00    +0.152 HD
ENDROOT
BRANCH   6  18
ATOM     17  O   UNL     1      36.184 -19.069 -20.410  0.00  0.00    -0.282 OA
ATOM     18  C   UNL     1      35.179 -19.664 -20.793  0.00  0.00    +0.250 C 
BRANCH  18  27
ATOM     19  O   UNL     1      35.226 -20.630 -22.872  0.00  0.00    -0.266 OA
ATOM     20  O   UNL     1      33.652 -14.588 -25.743  0.00  0.00    -0.270 OA
ATOM     21  N   UNL     1      34.464 -18.411 -22.755  0.00  0.00    -0.270 N 
ATOM     22  N   UNL     1      34.410 -15.838 -23.919  0.00  0.00    -0.273 N 
ATOM     23  C   UNL     1      34.210 -18.270 -24.190  0.00  0.00    +0.115 C 
ATOM     24  C   UNL     1      34.081 -17.254 -21.933  0.00  0.00    +0.115 C 
ATOM     25  C   UNL     1      34.826 -16.983 -24.730  0.00  0.00    +0.115 C 
ATOM     26  C   UNL     1      34.701 -15.973 -22.485  0.00  0.00    +0.115 C 
ATOM     27  C   UNL     1      34.955 -19.608 -22.257  0.00  0.00    +0.288 C 
ATOM     28  C   UNL     1      33.846 -14.719 -24.536  0.00  0.00    +0.249 C 
BRANCH  28  29
ATOM     29  C   UNL     1      33.430 -13.597 -23.686  0.00  0.00    +0.054 C 
ATOM     30  C   UNL     1      33.889 -12.311 -23.960  0.00  0.00    +0.005 C 
ATOM     31  C   UNL     1      32.578 -13.824 -22.607  0.00  0.00    +0.005 C 
ATOM     32  C   UNL     1      33.493 -11.246 -23.152  0.00  0.00    +0.000 C 
ATOM     33  C   UNL     1      32.183 -12.759 -21.799  0.00  0.00    +0.000 C 
ATOM     34  C   UNL     1      32.641 -11.469 -22.072  0.00  0.00    +0.000 C 
ENDBRANCH  28  29
ENDBRANCH  18  27
ENDBRANCH   6  18
BRANCH  10  35
ATOM     35  O   UNL     1      37.020 -21.344 -18.740  0.00  0.00    -0.470 OA
ATOM     36  C   UNL     1      37.663 -20.244 -18.099  0.00  0.00    +0.253 C 
ENDBRANCH  10  35
TORSDOF 4
ENDMDL
MODEL 9
REMARK VINA RESULT:      -8.1      2.772      9.556
REMARK  Name = 11317439
REMARK  4 active torsions:
REMARK  status: ('A' for Active; 'I' for Inactive)
REMARK    1  A    between atoms: C_6  and  C_18
REMARK    2  A    between atoms: C_10  and  O_35
REMARK    3  A    between atoms: C_18  and  C_27
REMARK    4  A    between atoms: C_28  and  C_29
REMARK                            x       y       z     vdW  Elec       q    Type
REMARK                         _______ _______ _______ _____ _____    ______ ____
ROOT
ATOM      1  N   UNL     1      30.784  -4.858 -22.533  0.00  0.00    -0.309 N 
ATOM      2  N   UNL     1      31.248  -3.657 -25.261  0.00  0.00    -0.160 N 
ATOM      3  N   UNL     1      33.274  -4.865 -25.257  0.00  0.00    -0.223 NA
ATOM      4  N   UNL     1      30.091  -3.275 -24.691  0.00  0.00    -0.125 NA
ATOM      5  N   UNL     1      30.360  -2.320 -26.752  0.00  0.00    -0.198 NA
ATOM      6  C   UNL     1      32.146  -6.231 -21.492  0.00  0.00    +0.062 C 
ATOM      7  C   UNL     1      32.740  -5.915 -22.728  0.00  0.00    +0.056 C 
ATOM      8  C   UNL     1      31.858  -5.044 -23.371  0.00  0.00    +0.085 C 
ATOM      9  C   UNL     1      30.954  -5.582 -21.383  0.00  0.00    +0.065 C 
ATOM     10  C   UNL     1      33.930  -6.269 -23.381  0.00  0.00    +0.159 C 
ATOM     11  C   UNL     1      32.125  -4.521 -24.630  0.00  0.00    +0.167 C 
ATOM     12  C   UNL     1      34.130  -5.709 -24.635  0.00  0.00    +0.137 C 
ATOM     13  C   UNL     1      31.396  -3.082 -26.488  0.00  0.00    +0.253 C 
ATOM     14  C   UNL     1      29.594  -2.468 -25.631  0.00  0.00    +0.027 C 
ATOM     15  C   UNL     1      28.305  -1.786 -25.469  0.00  0.00    +0.116 C 
ATOM     16  H   UNL     1      30.005  -4.289 -22.732  0.00  0.00    +0.152 HD
ENDROOT
BRANCH   6  18
ATOM     17  O   UNL     1      33.855  -7.131 -20.110  0.00  0.00    -0.282 OA
ATOM     18  C   UNL     1      32.674  -7.110 -20.450  0.00  0.00    +0.250 C 
BRANCH  18  27
ATOM     19  O   UNL     1      31.193  -7.600 -18.769  0.00  0.00    -0.266 OA
ATOM     20  O   UNL     1      31.595 -14.280 -20.330  0.00  0.00    -0.270 OA
ATOM     21  N   UNL     1      31.796  -9.367 -20.196  0.00  0.00    -0.270 N 
ATOM     22  N   UNL     1      32.436 -12.104 -20.471  0.00  0.00    -0.273 N 
ATOM     23  C   UNL     1      30.966 -10.375 -19.535  0.00  0.00    +0.115 C 
ATOM     24  C   UNL     1      32.501  -9.826 -21.400  0.00  0.00    +0.115 C 
ATOM     25  C   UNL     1      31.766 -11.644 -19.254  0.00  0.00    +0.115 C 
ATOM     26  C   UNL     1      33.295 -11.096 -21.108  0.00  0.00    +0.115 C 
ATOM     27  C   UNL     1      31.809  -8.065 -19.719  0.00  0.00    +0.288 C 
ATOM     28  C   UNL     1      32.273 -13.424 -20.895  0.00  0.00    +0.249 C 
BRANCH  28  29
ATOM     29  C   UNL     1      32.952 -13.843 -22.128  0.00  0.00    +0.054 C 
ATOM     30  C   UNL     1      32.463 -13.426 -23.364  0.00  0.00    +0.005 C 
ATOM     31  C   UNL     1      34.080 -14.656 -22.056  0.00  0.00    +0.005 C 
ATOM     32  C   UNL     1      33.108 -13.825 -24.534  0.00  0.00    +0.000 C 
ATOM     33  C   UNL     1      34.725 -15.054 -23.226  0.00  0.00    +0.000 C 
ATOM     34  C   UNL     1      34.238 -14.638 -24.466  0.00  0.00    +0.000 C 
ENDBRANCH  28  29
ENDBRANCH  18  27
ENDBRANCH   6  18
BRANCH  10  35
ATOM     35  O   UNL     1      34.850  -7.114 -22.836  0.00  0.00    -0.470 OA
ATOM     36  C   UNL     1      35.285  -8.205 -23.645  0.00  0.00    +0.253 C 
ENDBRANCH  10  35
TORSDOF 4
ENDMDL
