MODEL 1
REMARK VINA RESULT:     -10.1      0.000      0.000
REMARK  Name = 16058752
REMARK  4 active torsions:
REMARK  status: ('A' for Active; 'I' for Inactive)
REMARK    1  A    between atoms: N_1  and  C_20
REMARK    2  A    between atoms: C_2  and  N_8
REMARK    3  A    between atoms: C_14  and  C_19
REMARK    4  A    between atoms: C_20  and  C_23
REMARK                            x       y       z     vdW  Elec       q    Type
REMARK                         _______ _______ _______ _____ _____    ______ ____
ROOT
ATOM      1  N   UNL     1      33.174 -12.393 -22.635  0.00  0.00    +0.390 N 
ATOM      2  C   UNL     1      31.527  -9.960 -22.756  0.00  0.00    +0.066 C 
ATOM      3  C   UNL     1      32.575 -10.302 -23.818  0.00  0.00    -0.003 C 
ATOM      4  C   UNL     1      31.078 -11.227 -22.025  0.00  0.00    -0.003 C 
ATOM      5  C   UNL     1      33.704 -11.175 -23.262  0.00  0.00    -0.075 C 
ATOM      6  C   UNL     1      32.260 -12.066 -21.532  0.00  0.00    -0.075 C 
ATOM      7  H   UNL     1      32.645 -12.906 -23.341  0.00  0.00    -0.079 HD
ENDROOT
BRANCH   2   8
ATOM      8  N   UNL     1      32.069  -9.002 -21.810  0.00  0.00    -0.318 N 
ATOM      9  N   UNL     1      31.027  -7.131 -22.858  0.00  0.00    -0.133 NA
ATOM     10  N   UNL     1      30.782  -5.795 -22.918  0.00  0.00    -0.143 NA
ATOM     11  C   UNL     1      31.819  -7.643 -21.871  0.00  0.00    +0.150 C 
ATOM     12  C   UNL     1      32.387  -6.807 -20.910  0.00  0.00    +0.037 C 
ATOM     13  C   UNL     1      32.138  -5.447 -20.970  0.00  0.00    +0.028 C 
ATOM     14  C   UNL     1      31.332  -4.983 -21.989  0.00  0.00    +0.174 C 
ATOM     15  H   UNL     1      32.646  -9.338 -21.086  0.00  0.00    +0.148 HD
BRANCH  14  19
ATOM     16  F   UNL     1      30.162  -3.074 -21.147  0.00  0.00    -0.164 F 
ATOM     17  F   UNL     1      32.136  -2.730 -21.980  0.00  0.00    -0.164 F 
ATOM     18  F   UNL     1      30.468  -3.195 -23.297  0.00  0.00    -0.164 F 
ATOM     19  C   UNL     1      31.032  -3.527 -22.099  0.00  0.00    +0.437 C 
ENDBRANCH  14  19
ENDBRANCH   2   8
BRANCH   1  20
ATOM     20  C   UNL     1      34.267 -13.242 -22.160  0.00  0.00    -0.050 C 
BRANCH  20  23
ATOM     21  F   UNL     1      35.716 -17.864 -22.643  0.00  0.00    -0.202 F 
ATOM     22  F   UNL     1      34.401 -18.071 -25.031  0.00  0.00    -0.202 F 
ATOM     23  C   UNL     1      34.302 -14.534 -22.928  0.00  0.00    -0.041 C 
ATOM     24  C   UNL     1      35.006 -15.616 -22.416  0.00  0.00    +0.026 C 
ATOM     25  C   UNL     1      33.631 -14.629 -24.140  0.00  0.00    -0.004 C 
ATOM     26  C   UNL     1      35.039 -16.815 -23.128  0.00  0.00    +0.167 C 
ATOM     27  C   UNL     1      33.664 -15.828 -24.852  0.00  0.00    +0.032 C 
ATOM     28  C   UNL     1      34.368 -16.921 -24.347  0.00  0.00    +0.167 C 
ENDBRANCH  20  23
ENDBRANCH   1  20
TORSDOF 4
ENDMDL
MODEL 2
REMARK VINA RESULT:     -10.0      1.361      1.786
REMARK  Name = 16058752
REMARK  4 active torsions:
REMARK  status: ('A' for Active; 'I' for Inactive)
REMARK    1  A    between atoms: N_1  and  C_20
REMARK    2  A    between atoms: C_2  and  N_8
REMARK    3  A    between atoms: C_14  and  C_19
REMARK    4  A    between atoms: C_20  and  C_23
REMARK                            x       y       z     vdW  Elec       q    Type
REMARK                         _______ _______ _______ _____ _____    ______ ____
ROOT
ATOM      1  N   UNL     1      33.793 -13.673 -22.217  0.00  0.00    +0.390 N 
ATOM      2  C   UNL     1      31.939 -11.404 -22.469  0.00  0.00    +0.066 C 
ATOM      3  C   UNL     1      33.051 -11.679 -23.484  0.00  0.00    -0.003 C 
ATOM      4  C   UNL     1      31.579 -12.686 -21.715  0.00  0.00    -0.003 C 
ATOM      5  C   UNL     1      34.233 -12.429 -22.863  0.00  0.00    -0.075 C 
ATOM      6  C   UNL     1      32.813 -13.400 -21.157  0.00  0.00    -0.075 C 
ATOM      7  H   UNL     1      33.339 -14.251 -22.924  0.00  0.00    -0.079 HD
ENDROOT
BRANCH   2   8
ATOM      8  N   UNL     1      32.356 -10.375 -21.535  0.00  0.00    -0.318 N 
ATOM      9  N   UNL     1      31.159  -8.643 -22.655  0.00  0.00    -0.133 NA
ATOM     10  N   UNL     1      30.784  -7.341 -22.755  0.00  0.00    -0.143 NA
ATOM     11  C   UNL     1      31.973  -9.051 -21.637  0.00  0.00    +0.150 C 
ATOM     12  C   UNL     1      32.429  -8.140 -20.683  0.00  0.00    +0.037 C 
ATOM     13  C   UNL     1      32.046  -6.813 -20.785  0.00  0.00    +0.028 C 
ATOM     14  C   UNL     1      31.224  -6.457 -21.834  0.00  0.00    +0.174 C 
ATOM     15  H   UNL     1      32.944 -10.635 -20.789  0.00  0.00    +0.148 HD
BRANCH  14  19
ATOM     16  F   UNL     1      31.735  -4.129 -21.629  0.00  0.00    -0.164 F 
ATOM     17  F   UNL     1      30.439  -4.712 -23.269  0.00  0.00    -0.164 F 
ATOM     18  F   UNL     1      29.688  -4.745 -21.228  0.00  0.00    -0.164 F 
ATOM     19  C   UNL     1      30.783  -5.041 -21.988  0.00  0.00    +0.437 C 
ENDBRANCH  14  19
ENDBRANCH   2   8
BRANCH   1  20
ATOM     20  C   UNL     1      34.940 -14.404 -21.679  0.00  0.00    -0.050 C 
BRANCH  20  23
ATOM     21  F   UNL     1      35.511 -19.183 -20.947  0.00  0.00    -0.202 F 
ATOM     22  F   UNL     1      34.968 -19.694 -23.578  0.00  0.00    -0.202 F 
ATOM     23  C   UNL     1      34.947 -15.820 -22.187  0.00  0.00    -0.041 C 
ATOM     24  C   UNL     1      35.231 -16.860 -21.312  0.00  0.00    +0.026 C 
ATOM     25  C   UNL     1      34.669 -16.069 -23.525  0.00  0.00    -0.004 C 
ATOM     26  C   UNL     1      35.238 -18.173 -21.783  0.00  0.00    +0.167 C 
ATOM     27  C   UNL     1      34.676 -17.381 -23.995  0.00  0.00    +0.032 C 
ATOM     28  C   UNL     1      34.960 -18.434 -23.125  0.00  0.00    +0.167 C 
ENDBRANCH  20  23
ENDBRANCH   1  20
TORSDOF 4
ENDMDL
MODEL 3
REMARK VINA RESULT:      -9.9      1.385      2.094
REMARK  Name = 16058752
REMARK  4 active torsions:
REMARK  status: ('A' for Active; 'I' for Inactive)
REMARK    1  A    between atoms: N_1  and  C_20
REMARK    2  A    between atoms: C_2  and  N_8
REMARK    3  A    between atoms: C_14  and  C_19
REMARK    4  A    between atoms: C_20  and  C_23
REMARK                            x       y       z     vdW  Elec       q    Type
REMARK                         _______ _______ _______ _____ _____    ______ ____
ROOT
ATOM      1  N   UNL     1      33.703 -13.856 -21.820  0.00  0.00    +0.390 N 
ATOM      2  C   UNL     1      31.791 -11.632 -22.035  0.00  0.00    +0.066 C 
ATOM      3  C   UNL     1      32.794 -11.970 -23.141  0.00  0.00    -0.003 C 
ATOM      4  C   UNL     1      31.537 -12.858 -21.156  0.00  0.00    -0.003 C 
ATOM      5  C   UNL     1      34.049 -12.660 -22.598  0.00  0.00    -0.075 C 
ATOM      6  C   UNL     1      32.837 -13.516 -20.682  0.00  0.00    -0.075 C 
ATOM      7  H   UNL     1      33.186 -14.490 -22.430  0.00  0.00    -0.079 HD
ENDROOT
BRANCH   2   8
ATOM      8  N   UNL     1      32.288 -10.532 -21.229  0.00  0.00    -0.318 N 
ATOM      9  N   UNL     1      31.155  -8.869 -22.508  0.00  0.00    -0.133 NA
ATOM     10  N   UNL     1      30.847  -7.565 -22.742  0.00  0.00    -0.143 NA
ATOM     11  C   UNL     1      31.973  -9.207 -21.468  0.00  0.00    +0.150 C 
ATOM     12  C   UNL     1      32.502  -8.224 -20.630  0.00  0.00    +0.037 C 
ATOM     13  C   UNL     1      32.187  -6.898 -20.869  0.00  0.00    +0.028 C 
ATOM     14  C   UNL     1      31.358  -6.612 -21.933  0.00  0.00    +0.174 C 
ATOM     15  H   UNL     1      32.881 -10.741 -20.471  0.00  0.00    +0.148 HD
BRANCH  14  19
ATOM     16  F   UNL     1      30.112  -4.660 -21.334  0.00  0.00    -0.164 F 
ATOM     17  F   UNL     1      32.054  -4.346 -22.247  0.00  0.00    -0.164 F 
ATOM     18  F   UNL     1      30.392  -5.059 -23.453  0.00  0.00    -0.164 F 
ATOM     19  C   UNL     1      30.988  -5.200 -22.234  0.00  0.00    +0.437 C 
ENDBRANCH  14  19
ENDBRANCH   2   8
BRANCH   1  20
ATOM     20  C   UNL     1      34.913 -14.534 -21.356  0.00  0.00    -0.050 C 
BRANCH  20  23
ATOM     21  F   UNL     1      34.555 -17.706 -25.033  0.00  0.00    -0.202 F 
ATOM     22  F   UNL     1      35.113 -19.786 -23.348  0.00  0.00    -0.202 F 
ATOM     23  C   UNL     1      34.967 -15.940 -21.890  0.00  0.00    -0.041 C 
ATOM     24  C   UNL     1      34.731 -16.170 -23.239  0.00  0.00    +0.026 C 
ATOM     25  C   UNL     1      35.252 -16.989 -21.026  0.00  0.00    -0.004 C 
ATOM     26  C   UNL     1      34.781 -17.473 -23.733  0.00  0.00    +0.167 C 
ATOM     27  C   UNL     1      35.302 -18.292 -21.521  0.00  0.00    +0.032 C 
ATOM     28  C   UNL     1      35.066 -18.535 -22.874  0.00  0.00    +0.167 C 
ENDBRANCH  20  23
ENDBRANCH   1  20
TORSDOF 4
ENDMDL
MODEL 4
REMARK VINA RESULT:      -9.8      4.244     11.492
REMARK  Name = 16058752
REMARK  4 active torsions:
REMARK  status: ('A' for Active; 'I' for Inactive)
REMARK    1  A    between atoms: N_1  and  C_20
REMARK    2  A    between atoms: C_2  and  N_8
REMARK    3  A    between atoms: C_14  and  C_19
REMARK    4  A    between atoms: C_20  and  C_23
REMARK                            x       y       z     vdW  Elec       q    Type
REMARK                         _______ _______ _______ _____ _____    ______ ____
ROOT
ATOM      1  N   UNL     1      33.256 -13.538 -21.889  0.00  0.00    +0.390 N 
ATOM      2  C   UNL     1      35.244 -15.704 -21.921  0.00  0.00    +0.066 C 
ATOM      3  C   UNL     1      34.864 -14.913 -23.174  0.00  0.00    -0.003 C 
ATOM      4  C   UNL     1      34.927 -14.892 -20.663  0.00  0.00    -0.003 C 
ATOM      5  C   UNL     1      33.442 -14.349 -23.098  0.00  0.00    -0.075 C 
ATOM      6  C   UNL     1      33.502 -14.330 -20.676  0.00  0.00    -0.075 C 
ATOM      7  H   UNL     1      33.936 -12.778 -21.912  0.00  0.00    -0.079 HD
ENDROOT
BRANCH   2   8
ATOM      8  N   UNL     1      34.533 -16.969 -21.893  0.00  0.00    -0.318 N 
ATOM      9  N   UNL     1      36.179 -18.053 -20.550  0.00  0.00    -0.133 NA
ATOM     10  N   UNL     1      36.632 -19.156 -19.899  0.00  0.00    -0.143 NA
ATOM     11  C   UNL     1      34.994 -18.090 -21.229  0.00  0.00    +0.150 C 
ATOM     12  C   UNL     1      34.231 -19.258 -21.262  0.00  0.00    +0.037 C 
ATOM     13  C   UNL     1      34.692 -20.382 -20.598  0.00  0.00    +0.028 C 
ATOM     14  C   UNL     1      35.895 -20.288 -19.930  0.00  0.00    +0.174 C 
ATOM     15  H   UNL     1      33.675 -17.031 -22.373  0.00  0.00    +0.148 HD
BRANCH  14  19
ATOM     16  F   UNL     1      36.855 -21.182 -17.930  0.00  0.00    -0.164 F 
ATOM     17  F   UNL     1      35.534 -22.484 -19.054  0.00  0.00    -0.164 F 
ATOM     18  F   UNL     1      37.516 -22.025 -19.822  0.00  0.00    -0.164 F 
ATOM     19  C   UNL     1      36.437 -21.468 -19.199  0.00  0.00    +0.437 C 
ENDBRANCH  14  19
ENDBRANCH   2   8
BRANCH   1  20
ATOM     20  C   UNL     1      31.912 -12.962 -21.859  0.00  0.00    -0.050 C 
BRANCH  20  23
ATOM     21  F   UNL     1      31.821 -10.500 -17.660  0.00  0.00    -0.202 F 
ATOM     22  F   UNL     1      31.904  -8.121 -19.004  0.00  0.00    -0.202 F 
ATOM     23  C   UNL     1      31.910 -11.667 -21.095  0.00  0.00    -0.041 C 
ATOM     24  C   UNL     1      31.866 -11.690 -19.707  0.00  0.00    +0.026 C 
ATOM     25  C   UNL     1      31.953 -10.463 -21.787  0.00  0.00    -0.004 C 
ATOM     26  C   UNL     1      31.864 -10.489 -18.999  0.00  0.00    +0.167 C 
ATOM     27  C   UNL     1      31.952  -9.262 -21.079  0.00  0.00    +0.032 C 
ATOM     28  C   UNL     1      31.907  -9.274 -19.685  0.00  0.00    +0.167 C 
ENDBRANCH  20  23
ENDBRANCH   1  20
TORSDOF 4
ENDMDL
MODEL 5
REMARK VINA RESULT:      -9.7      8.868     14.218
REMARK  Name = 16058752
REMARK  4 active torsions:
REMARK  status: ('A' for Active; 'I' for Inactive)
REMARK    1  A    between atoms: N_1  and  C_20
REMARK    2  A    between atoms: C_2  and  N_8
REMARK    3  A    between atoms: C_14  and  C_19
REMARK    4  A    between atoms: C_20  and  C_23
REMARK                            x       y       z     vdW  Elec       q    Type
REMARK                         _______ _______ _______ _____ _____    ______ ____
ROOT
ATOM      1  N   UNL     1      35.065 -20.489 -20.467  0.00  0.00    +0.390 N 
ATOM      2  C   UNL     1      33.790 -22.664 -18.953  0.00  0.00    +0.066 C 
ATOM      3  C   UNL     1      33.017 -21.439 -19.449  0.00  0.00    -0.003 C 
ATOM      4  C   UNL     1      35.052 -22.871 -19.792  0.00  0.00    -0.003 C 
ATOM      5  C   UNL     1      33.915 -20.207 -19.598  0.00  0.00    -0.075 C 
ATOM      6  C   UNL     1      35.878 -21.588 -19.928  0.00  0.00    -0.075 C 
ATOM      7  H   UNL     1      34.708 -20.779 -21.377  0.00  0.00    -0.079 HD
ENDROOT
BRANCH   2   8
ATOM      8  N   UNL     1      34.138 -22.504 -17.554  0.00  0.00    -0.318 N 
ATOM      9  N   UNL     1      32.176 -23.609 -16.770  0.00  0.00    -0.133 NA
ATOM     10  N   UNL     1      31.404 -24.060 -15.746  0.00  0.00    -0.143 NA
ATOM     11  C   UNL     1      33.352 -22.964 -16.514  0.00  0.00    +0.150 C 
ATOM     12  C   UNL     1      33.780 -22.761 -15.201  0.00  0.00    +0.037 C 
ATOM     13  C   UNL     1      32.994 -23.220 -14.159  0.00  0.00    +0.028 C 
ATOM     14  C   UNL     1      31.815 -23.864 -14.475  0.00  0.00    +0.174 C 
ATOM     15  H   UNL     1      34.979 -22.042 -17.334  0.00  0.00    +0.148 HD
BRANCH  14  19
ATOM     16  F   UNL     1      31.431 -25.481 -12.755  0.00  0.00    -0.164 F 
ATOM     17  F   UNL     1      30.700 -23.470 -12.395  0.00  0.00    -0.164 F 
ATOM     18  F   UNL     1      29.699 -24.746 -13.844  0.00  0.00    -0.164 F 
ATOM     19  C   UNL     1      30.932 -24.379 -13.390  0.00  0.00    +0.437 C 
ENDBRANCH  14  19
ENDBRANCH   2   8
BRANCH   1  20
ATOM     20  C   UNL     1      35.881 -19.288 -20.644  0.00  0.00    -0.050 C 
BRANCH  20  23
ATOM     21  F   UNL     1      35.220 -15.054 -22.955  0.00  0.00    -0.202 F 
ATOM     22  F   UNL     1      34.109 -16.346 -25.093  0.00  0.00    -0.202 F 
ATOM     23  C   UNL     1      35.407 -18.501 -21.835  0.00  0.00    -0.041 C 
ATOM     24  C   UNL     1      35.538 -17.118 -21.838  0.00  0.00    +0.026 C 
ATOM     25  C   UNL     1      34.845 -19.167 -22.916  0.00  0.00    -0.004 C 
ATOM     26  C   UNL     1      35.099 -16.389 -22.942  0.00  0.00    +0.167 C 
ATOM     27  C   UNL     1      34.405 -18.437 -24.020  0.00  0.00    +0.032 C 
ATOM     28  C   UNL     1      34.532 -17.048 -24.034  0.00  0.00    +0.167 C 
ENDBRANCH  20  23
ENDBRANCH   1  20
TORSDOF 4
ENDMDL
MODEL 6
REMARK VINA RESULT:      -9.6      4.014     11.467
REMARK  Name = 16058752
REMARK  4 active torsions:
REMARK  status: ('A' for Active; 'I' for Inactive)
REMARK    1  A    between atoms: N_1  and  C_20
REMARK    2  A    between atoms: C_2  and  N_8
REMARK    3  A    between atoms: C_14  and  C_19
REMARK    4  A    between atoms: C_20  and  C_23
REMARK                            x       y       z     vdW  Elec       q    Type
REMARK                         _______ _______ _______ _____ _____    ______ ____
ROOT
ATOM      1  N   UNL     1      33.316 -13.683 -22.421  0.00  0.00    +0.390 N 
ATOM      2  C   UNL     1      35.296 -15.840 -22.145  0.00  0.00    +0.066 C 
ATOM      3  C   UNL     1      34.991 -15.164 -23.484  0.00  0.00    -0.003 C 
ATOM      4  C   UNL     1      34.909 -14.920 -20.986  0.00  0.00    -0.003 C 
ATOM      5  C   UNL     1      33.568 -14.599 -23.541  0.00  0.00    -0.075 C 
ATOM      6  C   UNL     1      33.489 -14.364 -21.131  0.00  0.00    -0.075 C 
ATOM      7  H   UNL     1      33.999 -12.927 -22.472  0.00  0.00    -0.079 HD
ENDROOT
BRANCH   2   8
ATOM      8  N   UNL     1      34.580 -17.098 -22.046  0.00  0.00    -0.318 N 
ATOM      9  N   UNL     1      36.207 -18.099 -20.618  0.00  0.00    -0.133 NA
ATOM     10  N   UNL     1      36.649 -19.160 -19.892  0.00  0.00    -0.143 NA
ATOM     11  C   UNL     1      35.030 -18.177 -21.307  0.00  0.00    +0.150 C 
ATOM     12  C   UNL     1      34.264 -19.342 -21.276  0.00  0.00    +0.037 C 
ATOM     13  C   UNL     1      34.714 -20.423 -20.536  0.00  0.00    +0.028 C 
ATOM     14  C   UNL     1      35.909 -20.290 -19.861  0.00  0.00    +0.174 C 
ATOM     15  H   UNL     1      33.729 -17.189 -22.532  0.00  0.00    +0.148 HD
BRANCH  14  19
ATOM     16  F   UNL     1      35.526 -22.418 -18.840  0.00  0.00    -0.164 F 
ATOM     17  F   UNL     1      37.517 -22.043 -19.614  0.00  0.00    -0.164 F 
ATOM     18  F   UNL     1      36.848 -21.035 -17.807  0.00  0.00    -0.164 F 
ATOM     19  C   UNL     1      36.438 -21.423 -19.050  0.00  0.00    +0.437 C 
ENDBRANCH  14  19
ENDBRANCH   2   8
BRANCH   1  20
ATOM     20  C   UNL     1      31.974 -13.110 -22.521  0.00  0.00    -0.050 C 
BRANCH  20  23
ATOM     21  F   UNL     1      32.967  -8.351 -22.776  0.00  0.00    -0.202 F 
ATOM     22  F   UNL     1      31.871  -7.946 -20.304  0.00  0.00    -0.202 F 
ATOM     23  C   UNL     1      31.946 -11.728 -21.928  0.00  0.00    -0.041 C 
ATOM     24  C   UNL     1      32.480 -10.664 -22.644  0.00  0.00    +0.026 C 
ATOM     25  C   UNL     1      31.386 -11.533 -20.671  0.00  0.00    -0.004 C 
ATOM     26  C   UNL     1      32.454  -9.383 -22.094  0.00  0.00    +0.167 C 
ATOM     27  C   UNL     1      31.361 -10.252 -20.122  0.00  0.00    +0.032 C 
ATOM     28  C   UNL     1      31.894  -9.177 -20.832  0.00  0.00    +0.167 C 
ENDBRANCH  20  23
ENDBRANCH   1  20
TORSDOF 4
ENDMDL
MODEL 7
REMARK VINA RESULT:      -9.6     11.329     16.777
REMARK  Name = 16058752
REMARK  4 active torsions:
REMARK  status: ('A' for Active; 'I' for Inactive)
REMARK    1  A    between atoms: N_1  and  C_20
REMARK    2  A    between atoms: C_2  and  N_8
REMARK    3  A    between atoms: C_14  and  C_19
REMARK    4  A    between atoms: C_20  and  C_23
REMARK                            x       y       z     vdW  Elec       q    Type
REMARK                         _______ _______ _______ _____ _____    ______ ____
ROOT
ATOM      1  N   UNL     1      33.833 -22.664 -17.125  0.00  0.00    +0.390 N 
ATOM      2  C   UNL     1      34.386 -23.336 -14.316  0.00  0.00    +0.066 C 
ATOM      3  C   UNL     1      35.302 -22.433 -15.145  0.00  0.00    -0.003 C 
ATOM      4  C   UNL     1      32.974 -23.346 -14.905  0.00  0.00    -0.003 C 
ATOM      5  C   UNL     1      35.219 -22.738 -16.644  0.00  0.00    -0.075 C 
ATOM      6  C   UNL     1      32.974 -23.620 -16.412  0.00  0.00    -0.075 C 
ATOM      7  H   UNL     1      33.484 -21.725 -16.935  0.00  0.00    -0.079 HD
ENDROOT
BRANCH   2   8
ATOM      8  N   UNL     1      34.920 -24.685 -14.272  0.00  0.00    -0.318 N 
ATOM      9  N   UNL     1      37.192 -23.960 -14.273  0.00  0.00    -0.133 NA
ATOM     10  N   UNL     1      38.522 -24.242 -14.254  0.00  0.00    -0.143 NA
ATOM     11  C   UNL     1      36.273 -24.970 -14.251  0.00  0.00    +0.150 C 
ATOM     12  C   UNL     1      36.682 -26.303 -14.206  0.00  0.00    +0.037 C 
ATOM     13  C   UNL     1      38.036 -26.590 -14.186  0.00  0.00    +0.028 C 
ATOM     14  C   UNL     1      38.921 -25.532 -14.211  0.00  0.00    +0.174 C 
ATOM     15  H   UNL     1      34.284 -25.436 -14.256  0.00  0.00    +0.148 HD
BRANCH  14  19
ATOM     16  F   UNL     1      41.133 -24.679 -13.892  0.00  0.00    -0.164 F 
ATOM     17  F   UNL     1      40.769 -26.726 -13.273  0.00  0.00    -0.164 F 
ATOM     18  F   UNL     1      40.864 -26.232 -15.389  0.00  0.00    -0.164 F 
ATOM     19  C   UNL     1      40.389 -25.786 -14.190  0.00  0.00    +0.437 C 
ENDBRANCH  14  19
ENDBRANCH   2   8
BRANCH   1  20
ATOM     20  C   UNL     1      33.778 -22.903 -18.567  0.00  0.00    -0.050 C 
BRANCH  20  23
ATOM     21  F   UNL     1      37.159 -19.860 -20.301  0.00  0.00    -0.202 F 
ATOM     22  F   UNL     1      35.225 -18.261 -21.386  0.00  0.00    -0.202 F 
ATOM     23  C   UNL     1      34.165 -21.661 -19.321  0.00  0.00    -0.041 C 
ATOM     24  C   UNL     1      35.508 -21.335 -19.461  0.00  0.00    +0.026 C 
ATOM     25  C   UNL     1      33.175 -20.855 -19.869  0.00  0.00    -0.004 C 
ATOM     26  C   UNL     1      35.867 -20.183 -20.161  0.00  0.00    +0.167 C 
ATOM     27  C   UNL     1      33.534 -19.704 -20.569  0.00  0.00    +0.032 C 
ATOM     28  C   UNL     1      34.880 -19.367 -20.715  0.00  0.00    +0.167 C 
ENDBRANCH  20  23
ENDBRANCH   1  20
TORSDOF 4
ENDMDL
MODEL 8
REMARK VINA RESULT:      -9.6      1.870      3.110
REMARK  Name = 16058752
REMARK  4 active torsions:
REMARK  status: ('A' for Active; 'I' for Inactive)
REMARK    1  A    between atoms: N_1  and  C_20
REMARK    2  A    between atoms: C_2  and  N_8
REMARK    3  A    between atoms: C_14  and  C_19
REMARK    4  A    between atoms: C_20  and  C_23
REMARK                            x       y       z     vdW  Elec       q    Type
REMARK                         _______ _______ _______ _____ _____    ______ ____
ROOT
ATOM      1  N   UNL     1      33.945 -14.620 -22.890  0.00  0.00    +0.390 N 
ATOM      2  C   UNL     1      32.344 -12.210 -22.365  0.00  0.00    +0.066 C 
ATOM      3  C   UNL     1      32.008 -13.198 -23.485  0.00  0.00    -0.003 C 
ATOM      4  C   UNL     1      33.183 -12.896 -21.285  0.00  0.00    -0.003 C 
ATOM      5  C   UNL     1      33.244 -13.947 -23.991  0.00  0.00    -0.075 C 
ATOM      6  C   UNL     1      34.378 -13.655 -21.870  0.00  0.00    -0.075 C 
ATOM      7  H   UNL     1      33.293 -15.270 -22.452  0.00  0.00    -0.079 HD
ENDROOT
BRANCH   2   8
ATOM      8  N   UNL     1      33.059 -11.069 -22.904  0.00  0.00    -0.318 N 
ATOM      9  N   UNL     1      31.867  -9.488 -21.574  0.00  0.00    -0.133 NA
ATOM     10  N   UNL     1      31.632  -8.205 -21.192  0.00  0.00    -0.143 NA
ATOM     11  C   UNL     1      32.819  -9.764 -22.514  0.00  0.00    +0.150 C 
ATOM     12  C   UNL     1      33.565  -8.737 -23.093  0.00  0.00    +0.037 C 
ATOM     13  C   UNL     1      33.326  -7.430 -22.703  0.00  0.00    +0.028 C 
ATOM     14  C   UNL     1      32.352  -7.208 -21.752  0.00  0.00    +0.174 C 
ATOM     15  H   UNL     1      33.751 -11.232 -23.585  0.00  0.00    +0.148 HD
BRANCH  14  19
ATOM     16  F   UNL     1      32.396  -4.861 -22.208  0.00  0.00    -0.164 F 
ATOM     17  F   UNL     1      30.733  -5.603 -21.030  0.00  0.00    -0.164 F 
ATOM     18  F   UNL     1      32.719  -5.488 -20.151  0.00  0.00    -0.164 F 
ATOM     19  C   UNL     1      32.055  -5.821 -21.297  0.00  0.00    +0.437 C 
ENDBRANCH  14  19
ENDBRANCH   2   8
BRANCH   1  20
ATOM     20  C   UNL     1      35.091 -15.376 -23.398  0.00  0.00    -0.050 C 
BRANCH  20  23
ATOM     21  F   UNL     1      34.758 -20.207 -23.898  0.00  0.00    -0.202 F 
ATOM     22  F   UNL     1      35.153 -20.554 -21.215  0.00  0.00    -0.202 F 
ATOM     23  C   UNL     1      35.108 -16.762 -22.814  0.00  0.00    -0.041 C 
ATOM     24  C   UNL     1      34.921 -17.858 -23.646  0.00  0.00    +0.026 C 
ATOM     25  C   UNL     1      35.310 -16.927 -21.449  0.00  0.00    -0.004 C 
ATOM     26  C   UNL     1      34.937 -19.143 -23.104  0.00  0.00    +0.167 C 
ATOM     27  C   UNL     1      35.326 -18.213 -20.908  0.00  0.00    +0.032 C 
ATOM     28  C   UNL     1      35.139 -19.321 -21.734  0.00  0.00    +0.167 C 
ENDBRANCH  20  23
ENDBRANCH   1  20
TORSDOF 4
ENDMDL
MODEL 9
REMARK VINA RESULT:      -9.5      3.046      4.937
REMARK  Name = 16058752
REMARK  4 active torsions:
REMARK  status: ('A' for Active; 'I' for Inactive)
REMARK    1  A    between atoms: N_1  and  C_20
REMARK    2  A    between atoms: C_2  and  N_8
REMARK    3  A    between atoms: C_14  and  C_19
REMARK    4  A    between atoms: C_20  and  C_23
REMARK                            x       y       z     vdW  Elec       q    Type
REMARK                         _______ _______ _______ _____ _____    ______ ____
ROOT
ATOM      1  N   UNL     1      34.900 -16.347 -22.435  0.00  0.00    +0.390 N 
ATOM      2  C   UNL     1      33.327 -13.959 -23.121  0.00  0.00    +0.066 C 
ATOM      3  C   UNL     1      33.554 -15.109 -24.105  0.00  0.00    -0.003 C 
ATOM      4  C   UNL     1      33.502 -14.448 -21.682  0.00  0.00    -0.003 C 
ATOM      5  C   UNL     1      34.855 -15.868 -23.822  0.00  0.00    -0.075 C 
ATOM      6  C   UNL     1      34.804 -15.229 -21.486  0.00  0.00    -0.075 C 
ATOM      7  H   UNL     1      34.096 -16.956 -22.285  0.00  0.00    -0.079 HD
ENDROOT
BRANCH   2   8
ATOM      8  N   UNL     1      34.251 -12.875 -23.398  0.00  0.00    -0.318 N 
ATOM      9  N   UNL     1      32.606 -11.176 -23.087  0.00  0.00    -0.133 NA
ATOM     10  N   UNL     1      32.253  -9.863 -23.068  0.00  0.00    -0.143 NA
ATOM     11  C   UNL     1      33.890 -11.540 -23.377  0.00  0.00    +0.150 C 
ATOM     12  C   UNL     1      34.858 -10.574 -23.655  0.00  0.00    +0.037 C 
ATOM     13  C   UNL     1      34.498  -9.237 -23.636  0.00  0.00    +0.028 C 
ATOM     14  C   UNL     1      33.187  -8.926 -23.338  0.00  0.00    +0.174 C 
ATOM     15  H   UNL     1      35.184 -13.102 -23.611  0.00  0.00    +0.148 HD
BRANCH  14  19
ATOM     16  F   UNL     1      33.119  -6.787 -24.407  0.00  0.00    -0.164 F 
ATOM     17  F   UNL     1      31.392  -7.350 -23.221  0.00  0.00    -0.164 F 
ATOM     18  F   UNL     1      33.257  -6.819 -22.237  0.00  0.00    -0.164 F 
ATOM     19  C   UNL     1      32.748  -7.502 -23.303  0.00  0.00    +0.437 C 
ENDBRANCH  14  19
ENDBRANCH   2   8
BRANCH   1  20
ATOM     20  C   UNL     1      36.122 -17.116 -22.197  0.00  0.00    -0.050 C 
BRANCH  20  23
ATOM     21  F   UNL     1      32.993 -20.476 -20.578  0.00  0.00    -0.202 F 
ATOM     22  F   UNL     1      34.990 -21.730 -19.194  0.00  0.00    -0.202 F 
ATOM     23  C   UNL     1      35.819 -18.351 -21.394  0.00  0.00    -0.041 C 
ATOM     24  C   UNL     1      34.521 -18.846 -21.361  0.00  0.00    +0.026 C 
ATOM     25  C   UNL     1      36.841 -18.981 -20.695  0.00  0.00    -0.004 C 
ATOM     26  C   UNL     1      34.241 -19.990 -20.616  0.00  0.00    +0.167 C 
ATOM     27  C   UNL     1      36.560 -20.126 -19.951  0.00  0.00    +0.032 C 
ATOM     28  C   UNL     1      35.260 -20.631 -19.910  0.00  0.00    +0.167 C 
ENDBRANCH  20  23
ENDBRANCH   1  20
TORSDOF 4
ENDMDL
