MODEL 1
REMARK VINA RESULT:     -11.0      0.000      0.000
REMARK  Name = 11304412
REMARK  4 active torsions:
REMARK  status: ('A' for Active; 'I' for Inactive)
REMARK    1  A    between atoms: C_5  and  N_18
REMARK    2  A    between atoms: C_6  and  C_11
REMARK    3  A    between atoms: N_18  and  C_20
REMARK    4  A    between atoms: C_20  and  C_23
REMARK                            x       y       z     vdW  Elec       q    Type
REMARK                         _______ _______ _______ _____ _____    ______ ____
ROOT
ATOM      1 BR   UNL     1      30.436 -24.470 -13.222  0.00  0.00    -0.066 Br
ATOM      2  N   UNL     1      33.069 -23.154 -16.015  0.00  0.00    -0.152 N 
ATOM      3  N   UNL     1      33.826 -24.052 -13.912  0.00  0.00    -0.388 NA
ATOM      4  N   UNL     1      31.903 -22.900 -16.677  0.00  0.00    -0.173 NA
ATOM      5  C   UNL     1      34.378 -22.921 -16.462  0.00  0.00    +0.126 C 
ATOM      6  C   UNL     1      35.041 -23.824 -14.320  0.00  0.00    +0.135 C 
ATOM      7  C   UNL     1      35.401 -23.242 -15.651  0.00  0.00    +0.064 C 
ATOM      8  C   UNL     1      32.818 -23.713 -14.761  0.00  0.00    +0.200 C 
ATOM      9  C   UNL     1      31.450 -23.812 -14.641  0.00  0.00    +0.168 C 
ATOM     10  C   UNL     1      30.946 -23.300 -15.841  0.00  0.00    +0.112 C 
ENDROOT
BRANCH   6  11
ATOM     11  C   UNL     1      36.174 -24.173 -13.423  0.00  0.00    +0.026 C 
ATOM     12  C   UNL     1      36.874 -25.369 -13.579  0.00  0.00    -0.019 C 
ATOM     13  C   UNL     1      36.531 -23.281 -12.413  0.00  0.00    +0.002 C 
ATOM     14  C   UNL     1      37.933 -25.672 -12.723  0.00  0.00    -0.004 C 
ATOM     15  C   UNL     1      36.512 -26.343 -14.654  0.00  0.00    +0.031 C 
ATOM     16  C   UNL     1      37.589 -23.585 -11.557  0.00  0.00    +0.000 C 
ATOM     17  C   UNL     1      38.291 -24.781 -11.712  0.00  0.00    -0.000 C 
ENDBRANCH   6  11
BRANCH   5  18
ATOM     18  N   UNL     1      34.533 -22.384 -17.709  0.00  0.00    -0.316 N 
ATOM     19  H   UNL     1      33.736 -22.253 -18.271  0.00  0.00    +0.148 HD
BRANCH  18  20
ATOM     20  C   UNL     1      35.813 -22.006 -18.228  0.00  0.00    +0.117 C 
BRANCH  20  23
ATOM     21  O   UNL     1      37.774 -18.643 -21.040  0.00  0.00    -0.163 OA
ATOM     22  N   UNL     1      36.737 -19.285 -20.674  0.00  0.00    -0.127 N 
ATOM     23  C   UNL     1      35.696 -20.953 -19.298  0.00  0.00    +0.018 C 
ATOM     24  C   UNL     1      36.823 -20.256 -19.695  0.00  0.00    +0.119 C 
ATOM     25  C   UNL     1      34.466 -20.691 -19.873  0.00  0.00    +0.001 C 
ATOM     26  C   UNL     1      34.369 -19.716 -20.860  0.00  0.00    +0.022 C 
ATOM     27  C   UNL     1      35.510 -19.021 -21.250  0.00  0.00    +0.121 C 
ENDBRANCH  20  23
ENDBRANCH  18  20
ENDBRANCH   5  18
TORSDOF 4
ENDMDL
MODEL 2
REMARK VINA RESULT:     -10.8      1.886      4.664
REMARK  Name = 11304412
REMARK  4 active torsions:
REMARK  status: ('A' for Active; 'I' for Inactive)
REMARK    1  A    between atoms: C_5  and  N_18
REMARK    2  A    between atoms: C_6  and  C_11
REMARK    3  A    between atoms: N_18  and  C_20
REMARK    4  A    between atoms: C_20  and  C_23
REMARK                            x       y       z     vdW  Elec       q    Type
REMARK                         _______ _______ _______ _____ _____    ______ ____
ROOT
ATOM      1 BR   UNL     1      35.674 -24.056 -11.523  0.00  0.00    -0.066 Br
ATOM      2  N   UNL     1      35.448 -22.993 -15.432  0.00  0.00    -0.152 N 
ATOM      3  N   UNL     1      33.474 -23.574 -14.181  0.00  0.00    -0.388 NA
ATOM      4  N   UNL     1      36.796 -22.886 -15.255  0.00  0.00    -0.173 NA
ATOM      5  C   UNL     1      34.714 -22.745 -16.602  0.00  0.00    +0.126 C 
ATOM      6  C   UNL     1      32.792 -23.358 -15.270  0.00  0.00    +0.135 C 
ATOM      7  C   UNL     1      33.381 -22.912 -16.571  0.00  0.00    +0.064 C 
ATOM      8  C   UNL     1      34.821 -23.395 -14.252  0.00  0.00    +0.200 C 
ATOM      9  C   UNL     1      35.813 -23.541 -13.309  0.00  0.00    +0.168 C 
ATOM     10  C   UNL     1      36.997 -23.217 -13.980  0.00  0.00    +0.112 C 
ENDROOT
BRANCH   6  11
ATOM     11  C   UNL     1      31.318 -23.546 -15.240  0.00  0.00    +0.026 C 
ATOM     12  C   UNL     1      30.728 -24.482 -14.392  0.00  0.00    -0.019 C 
ATOM     13  C   UNL     1      30.525 -22.768 -16.081  0.00  0.00    +0.002 C 
ATOM     14  C   UNL     1      29.342 -24.638 -14.384  0.00  0.00    -0.004 C 
ATOM     15  C   UNL     1      31.556 -25.329 -13.480  0.00  0.00    +0.031 C 
ATOM     16  C   UNL     1      29.139 -22.925 -16.074  0.00  0.00    +0.000 C 
ATOM     17  C   UNL     1      28.547 -23.861 -15.225  0.00  0.00    -0.000 C 
ENDBRANCH   6  11
BRANCH   5  18
ATOM     18  N   UNL     1      35.406 -22.341 -17.708  0.00  0.00    -0.316 N 
ATOM     19  H   UNL     1      36.338 -22.042 -17.601  0.00  0.00    +0.148 HD
BRANCH  18  20
ATOM     20  C   UNL     1      34.826 -22.333 -19.017  0.00  0.00    +0.117 C 
BRANCH  20  23
ATOM     21  O   UNL     1      37.822 -18.917 -20.570  0.00  0.00    -0.163 OA
ATOM     22  N   UNL     1      36.633 -19.363 -20.485  0.00  0.00    -0.127 N 
ATOM     23  C   UNL     1      35.082 -21.036 -19.737  0.00  0.00    +0.018 C 
ATOM     24  C   UNL     1      36.375 -20.552 -19.830  0.00  0.00    +0.119 C 
ATOM     25  C   UNL     1      34.028 -20.340 -20.297  0.00  0.00    +0.001 C 
ATOM     26  C   UNL     1      34.276 -19.142 -20.959  0.00  0.00    +0.022 C 
ATOM     27  C   UNL     1      35.580 -18.666 -21.046  0.00  0.00    +0.121 C 
ENDBRANCH  20  23
ENDBRANCH  18  20
ENDBRANCH   5  18
TORSDOF 4
ENDMDL
MODEL 3
REMARK VINA RESULT:     -10.4      3.270      7.190
REMARK  Name = 11304412
REMARK  4 active torsions:
REMARK  status: ('A' for Active; 'I' for Inactive)
REMARK    1  A    between atoms: C_5  and  N_18
REMARK    2  A    between atoms: C_6  and  C_11
REMARK    3  A    between atoms: N_18  and  C_20
REMARK    4  A    between atoms: C_20  and  C_23
REMARK                            x       y       z     vdW  Elec       q    Type
REMARK                         _______ _______ _______ _____ _____    ______ ____
ROOT
ATOM      1 BR   UNL     1      28.591 -22.758 -16.205  0.00  0.00    -0.066 Br
ATOM      2  N   UNL     1      32.396 -23.865 -15.333  0.00  0.00    -0.152 N 
ATOM      3  N   UNL     1      31.914 -22.419 -17.198  0.00  0.00    -0.388 NA
ATOM      4  N   UNL     1      31.742 -24.529 -14.337  0.00  0.00    -0.173 NA
ATOM      5  C   UNL     1      33.777 -23.836 -15.583  0.00  0.00    +0.126 C 
ATOM      6  C   UNL     1      33.193 -22.402 -17.440  0.00  0.00    +0.135 C 
ATOM      7  C   UNL     1      34.226 -23.116 -16.626  0.00  0.00    +0.064 C 
ATOM      8  C   UNL     1      31.498 -23.159 -16.135  0.00  0.00    +0.200 C 
ATOM      9  C   UNL     1      30.243 -23.392 -15.619  0.00  0.00    +0.168 C 
ATOM     10  C   UNL     1      30.456 -24.236 -14.523  0.00  0.00    +0.112 C 
ENDROOT
BRANCH   6  11
ATOM     11  C   UNL     1      33.692 -21.611 -18.595  0.00  0.00    +0.026 C 
ATOM     12  C   UNL     1      35.058 -21.449 -18.821  0.00  0.00    -0.019 C 
ATOM     13  C   UNL     1      32.767 -21.025 -19.457  0.00  0.00    +0.002 C 
ATOM     14  C   UNL     1      35.500 -20.701 -19.912  0.00  0.00    -0.004 C 
ATOM     15  C   UNL     1      36.071 -22.067 -17.911  0.00  0.00    +0.031 C 
ATOM     16  C   UNL     1      33.209 -20.276 -20.548  0.00  0.00    +0.000 C 
ATOM     17  C   UNL     1      34.576 -20.114 -20.776  0.00  0.00    -0.000 C 
ENDBRANCH   6  11
BRANCH   5  18
ATOM     18  N   UNL     1      34.586 -24.543 -14.740  0.00  0.00    -0.316 N 
ATOM     19  H   UNL     1      34.212 -25.319 -14.265  0.00  0.00    +0.148 HD
BRANCH  18  20
ATOM     20  C   UNL     1      35.958 -24.194 -14.520  0.00  0.00    +0.117 C 
BRANCH  20  23
ATOM     21  O   UNL     1      35.297 -25.349  -9.906  0.00  0.00    -0.163 OA
ATOM     22  N   UNL     1      35.882 -24.622 -10.771  0.00  0.00    -0.127 N 
ATOM     23  C   UNL     1      36.258 -23.996 -13.058  0.00  0.00    +0.018 C 
ATOM     24  C   UNL     1      35.622 -24.787 -12.118  0.00  0.00    +0.119 C 
ATOM     25  C   UNL     1      37.164 -23.028 -12.667  0.00  0.00    +0.001 C 
ATOM     26  C   UNL     1      37.433 -22.854 -11.313  0.00  0.00    +0.022 C 
ATOM     27  C   UNL     1      36.787 -23.655 -10.378  0.00  0.00    +0.121 C 
ENDBRANCH  20  23
ENDBRANCH  18  20
ENDBRANCH   5  18
TORSDOF 4
ENDMDL
MODEL 4
REMARK VINA RESULT:     -10.4      2.883      6.649
REMARK  Name = 11304412
REMARK  4 active torsions:
REMARK  status: ('A' for Active; 'I' for Inactive)
REMARK    1  A    between atoms: C_5  and  N_18
REMARK    2  A    between atoms: C_6  and  C_11
REMARK    3  A    between atoms: N_18  and  C_20
REMARK    4  A    between atoms: C_20  and  C_23
REMARK                            x       y       z     vdW  Elec       q    Type
REMARK                         _______ _______ _______ _____ _____    ______ ____
ROOT
ATOM      1 BR   UNL     1      28.178 -23.146 -16.539  0.00  0.00    -0.066 Br
ATOM      2  N   UNL     1      31.786 -23.902 -14.844  0.00  0.00    -0.152 N 
ATOM      3  N   UNL     1      31.612 -22.707 -16.928  0.00  0.00    -0.388 NA
ATOM      4  N   UNL     1      30.980 -24.492 -13.915  0.00  0.00    -0.173 NA
ATOM      5  C   UNL     1      33.186 -23.813 -14.834  0.00  0.00    +0.126 C 
ATOM      6  C   UNL     1      32.912 -22.635 -16.927  0.00  0.00    +0.135 C 
ATOM      7  C   UNL     1      33.798 -23.186 -15.854  0.00  0.00    +0.064 C 
ATOM      8  C   UNL     1      31.030 -23.349 -15.880  0.00  0.00    +0.200 C 
ATOM      9  C   UNL     1      29.711 -23.603 -15.582  0.00  0.00    +0.168 C 
ATOM     10  C   UNL     1      29.743 -24.305 -14.371  0.00  0.00    +0.112 C 
ENDROOT
BRANCH   6  11
ATOM     11  C   UNL     1      33.592 -21.946 -18.056  0.00  0.00    +0.026 C 
ATOM     12  C   UNL     1      34.982 -21.891 -18.133  0.00  0.00    -0.019 C 
ATOM     13  C   UNL     1      32.812 -21.350 -19.045  0.00  0.00    +0.002 C 
ATOM     14  C   UNL     1      35.595 -21.238 -19.203  0.00  0.00    -0.004 C 
ATOM     15  C   UNL     1      35.841 -22.522 -17.085  0.00  0.00    +0.031 C 
ATOM     16  C   UNL     1      33.424 -20.696 -20.114  0.00  0.00    +0.000 C 
ATOM     17  C   UNL     1      34.816 -20.640 -20.194  0.00  0.00    -0.000 C 
ENDBRANCH   6  11
BRANCH   5  18
ATOM     18  N   UNL     1      33.846 -24.368 -13.775  0.00  0.00    -0.316 N 
ATOM     19  H   UNL     1      33.440 -25.137 -13.313  0.00  0.00    +0.148 HD
BRANCH  18  20
ATOM     20  C   UNL     1      35.107 -23.872 -13.309  0.00  0.00    +0.117 C 
BRANCH  20  23
ATOM     21  O   UNL     1      36.956 -27.528 -15.813  0.00  0.00    -0.163 OA
ATOM     22  N   UNL     1      37.095 -26.663 -14.890  0.00  0.00    -0.127 N 
ATOM     23  C   UNL     1      36.229 -24.832 -13.602  0.00  0.00    +0.018 C 
ATOM     24  C   UNL     1      36.078 -25.772 -14.605  0.00  0.00    +0.119 C 
ATOM     25  C   UNL     1      37.399 -24.766 -12.868  0.00  0.00    +0.001 C 
ATOM     26  C   UNL     1      38.429 -25.658 -13.147  0.00  0.00    +0.022 C 
ATOM     27  C   UNL     1      38.265 -26.600 -14.158  0.00  0.00    +0.121 C 
ENDBRANCH  20  23
ENDBRANCH  18  20
ENDBRANCH   5  18
TORSDOF 4
ENDMDL
MODEL 5
REMARK VINA RESULT:     -10.3      2.973      6.590
REMARK  Name = 11304412
REMARK  4 active torsions:
REMARK  status: ('A' for Active; 'I' for Inactive)
REMARK    1  A    between atoms: C_5  and  N_18
REMARK    2  A    between atoms: C_6  and  C_11
REMARK    3  A    between atoms: N_18  and  C_20
REMARK    4  A    between atoms: C_20  and  C_23
REMARK                            x       y       z     vdW  Elec       q    Type
REMARK                         _______ _______ _______ _____ _____    ______ ____
ROOT
ATOM      1 BR   UNL     1      28.779 -23.131 -16.136  0.00  0.00    -0.066 Br
ATOM      2  N   UNL     1      32.194 -24.318 -14.295  0.00  0.00    -0.152 N 
ATOM      3  N   UNL     1      32.256 -23.052 -16.343  0.00  0.00    -0.388 NA
ATOM      4  N   UNL     1      31.283 -24.845 -13.427  0.00  0.00    -0.173 NA
ATOM      5  C   UNL     1      33.594 -24.380 -14.214  0.00  0.00    +0.126 C 
ATOM      6  C   UNL     1      33.555 -23.120 -16.277  0.00  0.00    +0.135 C 
ATOM      7  C   UNL     1      34.320 -23.793 -15.181  0.00  0.00    +0.064 C 
ATOM      8  C   UNL     1      31.556 -23.658 -15.347  0.00  0.00    +0.200 C 
ATOM      9  C   UNL     1      30.203 -23.778 -15.122  0.00  0.00    +0.168 C 
ATOM     10  C   UNL     1      30.098 -24.512 -13.936  0.00  0.00    +0.112 C 
ENDROOT
BRANCH   6  11
ATOM     11  C   UNL     1      34.361 -22.477 -17.347  0.00  0.00    +0.026 C 
ATOM     12  C   UNL     1      35.715 -22.202 -17.163  0.00  0.00    -0.019 C 
ATOM     13  C   UNL     1      33.738 -22.147 -18.550  0.00  0.00    +0.002 C 
ATOM     14  C   UNL     1      36.448 -21.597 -18.183  0.00  0.00    -0.004 C 
ATOM     15  C   UNL     1      36.406 -22.546 -15.882  0.00  0.00    +0.031 C 
ATOM     16  C   UNL     1      34.471 -21.541 -19.570  0.00  0.00    +0.000 C 
ATOM     17  C   UNL     1      35.827 -21.266 -19.387  0.00  0.00    -0.000 C 
ENDBRANCH   6  11
BRANCH   5  18
ATOM     18  N   UNL     1      34.135 -25.033 -13.143  0.00  0.00    -0.316 N 
ATOM     19  H   UNL     1      33.873 -25.967 -12.975  0.00  0.00    +0.148 HD
BRANCH  18  20
ATOM     20  C   UNL     1      35.069 -24.408 -12.255  0.00  0.00    +0.117 C 
BRANCH  20  23
ATOM     21  O   UNL     1      38.226 -27.387 -14.308  0.00  0.00    -0.163 OA
ATOM     22  N   UNL     1      38.011 -26.353 -13.597  0.00  0.00    -0.127 N 
ATOM     23  C   UNL     1      36.485 -24.827 -12.546  0.00  0.00    +0.018 C 
ATOM     24  C   UNL     1      36.719 -25.951 -13.319  0.00  0.00    +0.119 C 
ATOM     25  C   UNL     1      37.539 -24.089 -12.040  0.00  0.00    +0.001 C 
ATOM     26  C   UNL     1      38.844 -24.486 -12.315  0.00  0.00    +0.022 C 
ATOM     27  C   UNL     1      39.065 -25.617 -13.093  0.00  0.00    +0.121 C 
ENDBRANCH  20  23
ENDBRANCH  18  20
ENDBRANCH   5  18
TORSDOF 4
ENDMDL
MODEL 6
REMARK VINA RESULT:     -10.0      1.464      2.185
REMARK  Name = 11304412
REMARK  4 active torsions:
REMARK  status: ('A' for Active; 'I' for Inactive)
REMARK    1  A    between atoms: C_5  and  N_18
REMARK    2  A    between atoms: C_6  and  C_11
REMARK    3  A    between atoms: N_18  and  C_20
REMARK    4  A    between atoms: C_20  and  C_23
REMARK                            x       y       z     vdW  Elec       q    Type
REMARK                         _______ _______ _______ _____ _____    ______ ____
ROOT
ATOM      1 BR   UNL     1      30.499 -23.653 -13.126  0.00  0.00    -0.066 Br
ATOM      2  N   UNL     1      32.190 -22.908 -16.738  0.00  0.00    -0.152 N 
ATOM      3  N   UNL     1      33.504 -23.720 -14.889  0.00  0.00    -0.388 NA
ATOM      4  N   UNL     1      30.902 -22.566 -17.026  0.00  0.00    -0.173 NA
ATOM      5  C   UNL     1      33.299 -22.878 -17.598  0.00  0.00    +0.126 C 
ATOM      6  C   UNL     1      34.536 -23.679 -15.681  0.00  0.00    +0.135 C 
ATOM      7  C   UNL     1      34.496 -23.257 -17.116  0.00  0.00    +0.064 C 
ATOM      8  C   UNL     1      32.310 -23.328 -15.412  0.00  0.00    +0.200 C 
ATOM      9  C   UNL     1      31.053 -23.246 -14.859  0.00  0.00    +0.168 C 
ATOM     10  C   UNL     1      30.235 -22.774 -15.892  0.00  0.00    +0.112 C 
ENDROOT
BRANCH   6  11
ATOM     11  C   UNL     1      35.862 -24.092 -15.151  0.00  0.00    +0.026 C 
ATOM     12  C   UNL     1      36.974 -23.259 -15.263  0.00  0.00    -0.019 C 
ATOM     13  C   UNL     1      35.980 -25.337 -14.535  0.00  0.00    +0.002 C 
ATOM     14  C   UNL     1      38.207 -23.672 -14.756  0.00  0.00    -0.004 C 
ATOM     15  C   UNL     1      36.874 -21.920 -15.919  0.00  0.00    +0.031 C 
ATOM     16  C   UNL     1      37.213 -25.749 -14.030  0.00  0.00    +0.000 C 
ATOM     17  C   UNL     1      38.327 -24.917 -14.140  0.00  0.00    -0.000 C 
ENDBRANCH   6  11
BRANCH   5  18
ATOM     18  N   UNL     1      33.090 -22.468 -18.884  0.00  0.00    -0.316 N 
ATOM     19  H   UNL     1      33.029 -23.147 -19.594  0.00  0.00    +0.148 HD
BRANCH  18  20
ATOM     20  C   UNL     1      32.958 -21.087 -19.238  0.00  0.00    +0.117 C 
BRANCH  20  23
ATOM     21  O   UNL     1      35.327 -18.178 -22.235  0.00  0.00    -0.163 OA
ATOM     22  N   UNL     1      35.367 -19.047 -21.305  0.00  0.00    -0.127 N 
ATOM     23  C   UNL     1      34.243 -20.522 -19.781  0.00  0.00    +0.018 C 
ATOM     24  C   UNL     1      34.200 -19.578 -20.791  0.00  0.00    +0.119 C 
ATOM     25  C   UNL     1      35.454 -20.950 -19.269  0.00  0.00    +0.001 C 
ATOM     26  C   UNL     1      36.635 -20.421 -19.779  0.00  0.00    +0.022 C 
ATOM     27  C   UNL     1      36.578 -19.473 -20.795  0.00  0.00    +0.121 C 
ENDBRANCH  20  23
ENDBRANCH  18  20
ENDBRANCH   5  18
TORSDOF 4
ENDMDL
MODEL 7
REMARK VINA RESULT:     -10.0      9.511     14.674
REMARK  Name = 11304412
REMARK  4 active torsions:
REMARK  status: ('A' for Active; 'I' for Inactive)
REMARK    1  A    between atoms: C_5  and  N_18
REMARK    2  A    between atoms: C_6  and  C_11
REMARK    3  A    between atoms: N_18  and  C_20
REMARK    4  A    between atoms: C_20  and  C_23
REMARK                            x       y       z     vdW  Elec       q    Type
REMARK                         _______ _______ _______ _____ _____    ______ ____
ROOT
ATOM      1 BR   UNL     1      31.547  -9.999 -18.376  0.00  0.00    -0.066 Br
ATOM      2  N   UNL     1      32.363 -11.907 -21.863  0.00  0.00    -0.152 N 
ATOM      3  N   UNL     1      32.685  -9.531 -21.636  0.00  0.00    -0.388 NA
ATOM      4  N   UNL     1      31.944 -12.974 -21.123  0.00  0.00    -0.173 NA
ATOM      5  C   UNL     1      32.804 -11.907 -23.195  0.00  0.00    +0.126 C 
ATOM      6  C   UNL     1      33.081  -9.526 -22.877  0.00  0.00    +0.135 C 
ATOM      7  C   UNL     1      33.177 -10.739 -23.748  0.00  0.00    +0.064 C 
ATOM      8  C   UNL     1      32.315 -10.731 -21.113  0.00  0.00    +0.200 C 
ATOM      9  C   UNL     1      31.852 -11.080 -19.864  0.00  0.00    +0.168 C 
ATOM     10  C   UNL     1      31.642 -12.462 -19.931  0.00  0.00    +0.112 C 
ENDROOT
BRANCH   6  11
ATOM     11  C   UNL     1      33.489  -8.236 -23.493  0.00  0.00    +0.026 C 
ATOM     12  C   UNL     1      32.563  -7.426 -24.148  0.00  0.00    -0.019 C 
ATOM     13  C   UNL     1      34.824  -7.844 -23.407  0.00  0.00    +0.002 C 
ATOM     14  C   UNL     1      32.972  -6.220 -24.717  0.00  0.00    -0.004 C 
ATOM     15  C   UNL     1      31.126  -7.824 -24.254  0.00  0.00    +0.031 C 
ATOM     16  C   UNL     1      35.233  -6.639 -23.978  0.00  0.00    +0.000 C 
ATOM     17  C   UNL     1      34.308  -5.827 -24.633  0.00  0.00    -0.000 C 
ENDBRANCH   6  11
BRANCH   5  18
ATOM     18  N   UNL     1      32.834 -13.105 -23.851  0.00  0.00    -0.316 N 
ATOM     19  H   UNL     1      31.990 -13.596 -23.978  0.00  0.00    +0.148 HD
BRANCH  18  20
ATOM     20  C   UNL     1      34.046 -13.673 -24.359  0.00  0.00    +0.117 C 
BRANCH  20  23
ATOM     21  O   UNL     1      35.063 -16.028 -20.300  0.00  0.00    -0.163 OA
ATOM     22  N   UNL     1      34.922 -16.053 -21.565  0.00  0.00    -0.127 N 
ATOM     23  C   UNL     1      34.423 -14.934 -23.629  0.00  0.00    +0.018 C 
ATOM     24  C   UNL     1      34.576 -14.907 -22.254  0.00  0.00    +0.119 C 
ATOM     25  C   UNL     1      34.614 -16.107 -24.336  0.00  0.00    +0.001 C 
ATOM     26  C   UNL     1      34.962 -17.267 -23.651  0.00  0.00    +0.022 C 
ATOM     27  C   UNL     1      35.113 -17.226 -22.269  0.00  0.00    +0.121 C 
ENDBRANCH  20  23
ENDBRANCH  18  20
ENDBRANCH   5  18
TORSDOF 4
ENDMDL
MODEL 8
REMARK VINA RESULT:      -9.9      3.428      7.171
REMARK  Name = 11304412
REMARK  4 active torsions:
REMARK  status: ('A' for Active; 'I' for Inactive)
REMARK    1  A    between atoms: C_5  and  N_18
REMARK    2  A    between atoms: C_6  and  C_11
REMARK    3  A    between atoms: N_18  and  C_20
REMARK    4  A    between atoms: C_20  and  C_23
REMARK                            x       y       z     vdW  Elec       q    Type
REMARK                         _______ _______ _______ _____ _____    ______ ____
ROOT
ATOM      1 BR   UNL     1      35.048 -22.076 -19.185  0.00  0.00    -0.066 Br
ATOM      2  N   UNL     1      35.089 -22.808 -15.195  0.00  0.00    -0.152 N 
ATOM      3  N   UNL     1      33.048 -22.943 -16.467  0.00  0.00    -0.388 NA
ATOM      4  N   UNL     1      36.411 -22.533 -15.379  0.00  0.00    -0.173 NA
ATOM      5  C   UNL     1      34.443 -23.155 -13.998  0.00  0.00    +0.126 C 
ATOM      6  C   UNL     1      32.444 -23.251 -15.355  0.00  0.00    +0.135 C 
ATOM      7  C   UNL     1      33.119 -23.388 -14.026  0.00  0.00    +0.064 C 
ATOM      8  C   UNL     1      34.387 -22.713 -16.397  0.00  0.00    +0.200 C 
ATOM      9  C   UNL     1      35.306 -22.368 -17.362  0.00  0.00    +0.168 C 
ATOM     10  C   UNL     1      36.525 -22.271 -16.680  0.00  0.00    +0.112 C 
ENDROOT
BRANCH   6  11
ATOM     11  C   UNL     1      30.980 -23.505 -15.382  0.00  0.00    +0.026 C 
ATOM     12  C   UNL     1      30.408 -24.508 -14.601  0.00  0.00    -0.019 C 
ATOM     13  C   UNL     1      30.178 -22.720 -16.209  0.00  0.00    +0.002 C 
ATOM     14  C   UNL     1      29.031 -24.725 -14.646  0.00  0.00    -0.004 C 
ATOM     15  C   UNL     1      31.246 -25.363 -13.706  0.00  0.00    +0.031 C 
ATOM     16  C   UNL     1      28.801 -22.939 -16.255  0.00  0.00    +0.000 C 
ATOM     17  C   UNL     1      28.227 -23.942 -15.473  0.00  0.00    -0.000 C 
ENDBRANCH   6  11
BRANCH   5  18
ATOM     18  N   UNL     1      35.208 -23.240 -12.869  0.00  0.00    -0.316 N 
ATOM     19  H   UNL     1      35.543 -22.410 -12.461  0.00  0.00    +0.148 HD
BRANCH  18  20
ATOM     20  C   UNL     1      35.541 -24.493 -12.260  0.00  0.00    +0.117 C 
BRANCH  20  23
ATOM     21  O   UNL     1      36.951 -27.415 -15.800  0.00  0.00    -0.163 OA
ATOM     22  N   UNL     1      37.261 -26.682 -14.806  0.00  0.00    -0.127 N 
ATOM     23  C   UNL     1      36.623 -25.215 -13.018  0.00  0.00    +0.018 C 
ATOM     24  C   UNL     1      36.285 -26.011 -14.098  0.00  0.00    +0.119 C 
ATOM     25  C   UNL     1      37.943 -25.078 -12.630  0.00  0.00    +0.001 C 
ATOM     26  C   UNL     1      38.934 -25.749 -13.337  0.00  0.00    +0.022 C 
ATOM     27  C   UNL     1      38.581 -26.547 -14.421  0.00  0.00    +0.121 C 
ENDBRANCH  20  23
ENDBRANCH  18  20
ENDBRANCH   5  18
TORSDOF 4
ENDMDL
MODEL 9
REMARK VINA RESULT:      -9.8     10.207     15.119
REMARK  Name = 11304412
REMARK  4 active torsions:
REMARK  status: ('A' for Active; 'I' for Inactive)
REMARK    1  A    between atoms: C_5  and  N_18
REMARK    2  A    between atoms: C_6  and  C_11
REMARK    3  A    between atoms: N_18  and  C_20
REMARK    4  A    between atoms: C_20  and  C_23
REMARK                            x       y       z     vdW  Elec       q    Type
REMARK                         _______ _______ _______ _____ _____    ______ ____
ROOT
ATOM      1 BR   UNL     1      30.816 -10.132 -18.765  0.00  0.00    -0.066 Br
ATOM      2  N   UNL     1      32.787 -11.540 -22.020  0.00  0.00    -0.152 N 
ATOM      3  N   UNL     1      32.145  -9.225 -21.856  0.00  0.00    -0.388 NA
ATOM      4  N   UNL     1      32.703 -12.695 -21.299  0.00  0.00    -0.173 NA
ATOM      5  C   UNL     1      33.380 -11.355 -23.278  0.00  0.00    +0.126 C 
ATOM      6  C   UNL     1      32.683  -9.054 -23.029  0.00  0.00    +0.135 C 
ATOM      7  C   UNL     1      33.356 -10.128 -23.825  0.00  0.00    +0.064 C 
ATOM      8  C   UNL     1      32.189 -10.481 -21.336  0.00  0.00    +0.200 C 
ATOM      9  C   UNL     1      31.719 -10.995 -20.148  0.00  0.00    +0.168 C 
ATOM     10  C   UNL     1      32.062 -12.352 -20.183  0.00  0.00    +0.112 C 
ENDROOT
BRANCH   6  11
ATOM     11  C   UNL     1      32.653  -7.699 -23.639  0.00  0.00    +0.026 C 
ATOM     12  C   UNL     1      33.781  -6.880 -23.630  0.00  0.00    -0.019 C 
ATOM     13  C   UNL     1      31.470  -7.252 -24.225  0.00  0.00    +0.002 C 
ATOM     14  C   UNL     1      33.726  -5.612 -24.209  0.00  0.00    -0.004 C 
ATOM     15  C   UNL     1      35.062  -7.335 -23.007  0.00  0.00    +0.031 C 
ATOM     16  C   UNL     1      31.415  -5.984 -24.803  0.00  0.00    +0.000 C 
ATOM     17  C   UNL     1      32.543  -5.163 -24.795  0.00  0.00    -0.000 C 
ENDBRANCH   6  11
BRANCH   5  18
ATOM     18  N   UNL     1      33.957 -12.443 -23.870  0.00  0.00    -0.316 N 
ATOM     19  H   UNL     1      34.931 -12.447 -24.007  0.00  0.00    +0.148 HD
BRANCH  18  20
ATOM     20  C   UNL     1      33.195 -13.576 -24.301  0.00  0.00    +0.117 C 
BRANCH  20  23
ATOM     21  O   UNL     1      34.045 -18.238 -25.075  0.00  0.00    -0.163 OA
ATOM     22  N   UNL     1      34.240 -17.201 -24.363  0.00  0.00    -0.127 N 
ATOM     23  C   UNL     1      33.856 -14.874 -23.920  0.00  0.00    +0.018 C 
ATOM     24  C   UNL     1      33.644 -16.001 -24.695  0.00  0.00    +0.119 C 
ATOM     25  C   UNL     1      34.669 -14.930 -22.803  0.00  0.00    +0.001 C 
ATOM     26  C   UNL     1      35.274 -16.135 -22.461  0.00  0.00    +0.022 C 
ATOM     27  C   UNL     1      35.052 -17.260 -23.247  0.00  0.00    +0.121 C 
ENDBRANCH  20  23
ENDBRANCH  18  20
ENDBRANCH   5  18
TORSDOF 4
ENDMDL
