MODEL 1
REMARK VINA RESULT:     -12.3      0.000      0.000
REMARK  Name = 23629645
REMARK  6 active torsions:
REMARK  status: ('A' for Active; 'I' for Inactive)
REMARK    1  A    between atoms: N_1  and  C_6
REMARK    2  A    between atoms: N_1  and  C_21
REMARK    3  A    between atoms: C_3  and  C_16
REMARK    4  A    between atoms: C_11  and  C_18
REMARK    5  A    between atoms: C_18  and  O_19
REMARK    6  A    between atoms: C_21  and  C_28
REMARK                            x       y       z     vdW  Elec       q    Type
REMARK                         _______ _______ _______ _____ _____    ______ ____
ROOT
ATOM      1  N   UNL     1      35.054 -18.885 -22.198  0.00  0.00    -0.300 N 
ATOM      2  C   UNL     1      34.538 -19.124 -23.530  0.00  0.00    +0.113 C 
ENDROOT
BRANCH   1   6
ATOM      3  C   UNL     1      34.031 -21.443 -19.033  0.00  0.00    +0.054 C 
ATOM      4  C   UNL     1      35.353 -21.367 -19.463  0.00  0.00    +0.006 C 
ATOM      5  C   UNL     1      33.047 -20.675 -19.648  0.00  0.00    +0.006 C 
ATOM      6  C   UNL     1      34.710 -19.745 -21.133  0.00  0.00    +0.048 C 
ATOM      7  C   UNL     1      35.694 -20.516 -20.514  0.00  0.00    +0.015 C 
ATOM      8  C   UNL     1      33.386 -19.824 -20.701  0.00  0.00    +0.015 C 
BRANCH   3  16
ATOM      9  O   UNL     1      32.485 -22.646 -17.839  0.00  0.00    -0.270 OA
ATOM     10  N   UNL     1      34.688 -22.760 -17.063  0.00  0.00    -0.276 N 
ATOM     11  C   UNL     1      36.251 -22.587 -14.626  0.00  0.00    +0.102 C 
ATOM     12  C   UNL     1      34.795 -23.064 -14.628  0.00  0.00    +0.033 C 
ATOM     13  C   UNL     1      36.591 -21.752 -15.867  0.00  0.00    +0.033 C 
ATOM     14  C   UNL     1      34.375 -23.672 -15.967  0.00  0.00    +0.094 C 
ATOM     15  C   UNL     1      36.105 -22.395 -17.166  0.00  0.00    +0.094 C 
ATOM     16  C   UNL     1      33.673 -22.339 -17.926  0.00  0.00    +0.249 C 
BRANCH  11  18
ATOM     17  O   UNL     1      38.371 -23.725 -14.770  0.00  0.00    -0.250 OA
ATOM     18  C   UNL     1      37.180 -23.759 -14.492  0.00  0.00    +0.317 C 
BRANCH  18  19
ATOM     19  O   UNL     1      36.489 -24.837 -14.024  0.00  0.00    -0.444 OA
ATOM     20  C   UNL     1      36.910 -26.107 -14.532  0.00  0.00    +0.256 C 
ENDBRANCH  18  19
ENDBRANCH  11  18
ENDBRANCH   3  16
ENDBRANCH   1   6
BRANCH   1  21
ATOM     21  C   UNL     1      35.918 -17.744 -21.968  0.00  0.00    +0.148 C 
BRANCH  21  28
ATOM     22  N   UNL     1      34.677 -15.899 -22.936  0.00  0.00    -0.392 NA
ATOM     23  N   UNL     1      34.214 -14.795 -20.441  0.00  0.00    -0.200 NA
ATOM     24  N   UNL     1      33.039 -13.053 -21.414  0.00  0.00    -0.271 NA
ATOM     25  N   UNL     1      32.749 -12.937 -23.791  0.00  0.00    -0.310 NA
ATOM     26  N   UNL     1      33.676 -14.622 -25.165  0.00  0.00    -0.329 N 
ATOM     27  N   UNL     1      31.845 -11.287 -22.397  0.00  0.00    -0.283 N 
ATOM     28  C   UNL     1      35.133 -16.467 -21.819  0.00  0.00    +0.133 C 
ATOM     29  C   UNL     1      34.915 -15.936 -20.588  0.00  0.00    +0.193 C 
ATOM     30  C   UNL     1      33.977 -14.758 -22.787  0.00  0.00    +0.248 C 
ATOM     31  C   UNL     1      33.737 -14.189 -21.535  0.00  0.00    +0.131 C 
ATOM     32  C   UNL     1      33.455 -14.079 -23.872  0.00  0.00    +0.231 C 
ATOM     33  C   UNL     1      32.580 -12.484 -22.544  0.00  0.00    +0.207 C 
ATOM     34  H   UNL     1      33.317 -14.163 -25.958  0.00  0.00    +0.145 HD
ATOM     35  H   UNL     1      34.187 -15.456 -25.267  0.00  0.00    +0.145 HD
ATOM     36  H   UNL     1      31.692 -10.911 -21.500  0.00  0.00    +0.156 HD
ATOM     37  H   UNL     1      31.488 -10.829 -23.191  0.00  0.00    +0.156 HD
ENDBRANCH  21  28
ENDBRANCH   1  21
TORSDOF 6
ENDMDL
MODEL 2
REMARK VINA RESULT:     -11.3      4.158     10.553
REMARK  Name = 23629645
REMARK  6 active torsions:
REMARK  status: ('A' for Active; 'I' for Inactive)
REMARK    1  A    between atoms: N_1  and  C_6
REMARK    2  A    between atoms: N_1  and  C_21
REMARK    3  A    between atoms: C_3  and  C_16
REMARK    4  A    between atoms: C_11  and  C_18
REMARK    5  A    between atoms: C_18  and  O_19
REMARK    6  A    between atoms: C_21  and  C_28
REMARK                            x       y       z     vdW  Elec       q    Type
REMARK                         _______ _______ _______ _____ _____    ______ ____
ROOT
ATOM      1  N   UNL     1      36.113 -20.308 -20.142  0.00  0.00    -0.300 N 
ATOM      2  C   UNL     1      36.986 -19.924 -19.052  0.00  0.00    +0.113 C 
ENDROOT
BRANCH   1   6
ATOM      3  C   UNL     1      34.914 -17.480 -23.001  0.00  0.00    +0.054 C 
ATOM      4  C   UNL     1      35.728 -17.091 -21.940  0.00  0.00    +0.006 C 
ATOM      5  C   UNL     1      34.495 -18.803 -23.117  0.00  0.00    +0.006 C 
ATOM      6  C   UNL     1      35.710 -19.357 -21.104  0.00  0.00    +0.048 C 
ATOM      7  C   UNL     1      36.127 -18.031 -20.990  0.00  0.00    +0.015 C 
ATOM      8  C   UNL     1      34.894 -19.743 -22.167  0.00  0.00    +0.015 C 
BRANCH   3  16
ATOM      9  O   UNL     1      34.696 -16.787 -25.176  0.00  0.00    -0.270 OA
ATOM     10  N   UNL     1      33.914 -15.302 -23.549  0.00  0.00    -0.276 N 
ATOM     11  C   UNL     1      34.001 -12.502 -22.796  0.00  0.00    +0.102 C 
ATOM     12  C   UNL     1      34.136 -12.960 -24.253  0.00  0.00    +0.033 C 
ATOM     13  C   UNL     1      34.345 -13.619 -21.803  0.00  0.00    +0.033 C 
ATOM     14  C   UNL     1      33.460 -14.305 -24.514  0.00  0.00    +0.094 C 
ATOM     15  C   UNL     1      33.671 -14.947 -22.146  0.00  0.00    +0.094 C 
ATOM     16  C   UNL     1      34.493 -16.490 -24.001  0.00  0.00    +0.249 C 
BRANCH  11  18
ATOM     17  O   UNL     1      31.808 -12.484 -21.799  0.00  0.00    -0.250 OA
ATOM     18  C   UNL     1      32.622 -11.963 -22.549  0.00  0.00    +0.317 C 
BRANCH  18  19
ATOM     19  O   UNL     1      32.438 -10.829 -23.282  0.00  0.00    -0.444 OA
ATOM     20  C   UNL     1      32.628  -9.600 -22.572  0.00  0.00    +0.256 C 
ENDBRANCH  18  19
ENDBRANCH  11  18
ENDBRANCH   3  16
ENDBRANCH   1   6
BRANCH   1  21
ATOM     21  C   UNL     1      35.647 -21.678 -20.226  0.00  0.00    +0.148 C 
BRANCH  21  28
ATOM     22  N   UNL     1      35.273 -22.440 -17.955  0.00  0.00    -0.392 NA
ATOM     23  N   UNL     1      32.529 -22.221 -18.247  0.00  0.00    -0.200 NA
ATOM     24  N   UNL     1      32.225 -22.954 -16.071  0.00  0.00    -0.271 NA
ATOM     25  N   UNL     1      34.100 -23.510 -14.684  0.00  0.00    -0.310 NA
ATOM     26  N   UNL     1      36.291 -23.309 -15.545  0.00  0.00    -0.329 N 
ATOM     27  N   UNL     1      31.913 -23.695 -13.866  0.00  0.00    -0.283 N 
ATOM     28  C   UNL     1      34.717 -22.025 -19.094  0.00  0.00    +0.133 C 
ATOM     29  C   UNL     1      33.372 -21.914 -19.252  0.00  0.00    +0.193 C 
ATOM     30  C   UNL     1      34.429 -22.747 -16.951  0.00  0.00    +0.248 C 
ATOM     31  C   UNL     1      33.043 -22.642 -17.084  0.00  0.00    +0.131 C 
ATOM     32  C   UNL     1      34.888 -23.187 -15.724  0.00  0.00    +0.231 C 
ATOM     33  C   UNL     1      32.791 -23.371 -14.923  0.00  0.00    +0.207 C 
ATOM     34  H   UNL     1      36.652 -23.620 -14.683  0.00  0.00    +0.145 HD
ATOM     35  H   UNL     1      36.903 -23.083 -16.282  0.00  0.00    +0.145 HD
ATOM     36  H   UNL     1      30.941 -23.610 -13.991  0.00  0.00    +0.156 HD
ATOM     37  H   UNL     1      32.274 -24.007 -13.005  0.00  0.00    +0.156 HD
ENDBRANCH  21  28
ENDBRANCH   1  21
TORSDOF 6
ENDMDL
MODEL 3
REMARK VINA RESULT:     -11.2      4.875     10.361
REMARK  Name = 23629645
REMARK  6 active torsions:
REMARK  status: ('A' for Active; 'I' for Inactive)
REMARK    1  A    between atoms: N_1  and  C_6
REMARK    2  A    between atoms: N_1  and  C_21
REMARK    3  A    between atoms: C_3  and  C_16
REMARK    4  A    between atoms: C_11  and  C_18
REMARK    5  A    between atoms: C_18  and  O_19
REMARK    6  A    between atoms: C_21  and  C_28
REMARK                            x       y       z     vdW  Elec       q    Type
REMARK                         _______ _______ _______ _____ _____    ______ ____
ROOT
ATOM      1  N   UNL     1      35.240 -18.516 -22.876  0.00  0.00    -0.300 N 
ATOM      2  C   UNL     1      34.929 -19.491 -23.900  0.00  0.00    +0.113 C 
ENDROOT
BRANCH   1   6
ATOM      3  C   UNL     1      34.126 -14.499 -23.356  0.00  0.00    +0.054 C 
ATOM      4  C   UNL     1      33.931 -15.402 -24.398  0.00  0.00    +0.006 C 
ATOM      5  C   UNL     1      34.690 -14.923 -22.156  0.00  0.00    +0.006 C 
ATOM      6  C   UNL     1      34.865 -17.165 -23.037  0.00  0.00    +0.048 C 
ATOM      7  C   UNL     1      34.301 -16.737 -24.239  0.00  0.00    +0.015 C 
ATOM      8  C   UNL     1      35.060 -16.258 -21.995  0.00  0.00    +0.015 C 
BRANCH   3  16
ATOM      9  O   UNL     1      34.246 -12.500 -24.473  0.00  0.00    -0.270 OA
ATOM     10  N   UNL     1      32.843 -12.542 -22.605  0.00  0.00    -0.276 N 
ATOM     11  C   UNL     1      32.187 -11.027 -20.219  0.00  0.00    +0.102 C 
ATOM     12  C   UNL     1      32.725 -10.357 -21.489  0.00  0.00    +0.033 C 
ATOM     13  C   UNL     1      32.530 -12.520 -20.161  0.00  0.00    +0.033 C 
ATOM     14  C   UNL     1      32.412 -11.155 -22.755  0.00  0.00    +0.094 C 
ATOM     15  C   UNL     1      32.234 -13.249 -21.472  0.00  0.00    +0.094 C 
ATOM     16  C   UNL     1      33.737 -13.093 -23.525  0.00  0.00    +0.249 C 
BRANCH  11  18
ATOM     17  O   UNL     1      29.895 -11.159 -20.950  0.00  0.00    -0.250 OA
ATOM     18  C   UNL     1      30.707 -10.807 -20.105  0.00  0.00    +0.317 C 
BRANCH  18  19
ATOM     19  O   UNL     1      30.430 -10.166 -18.934  0.00  0.00    -0.444 OA
ATOM     20  C   UNL     1      31.522 -10.064 -18.016  0.00  0.00    +0.256 C 
ENDBRANCH  18  19
ENDBRANCH  11  18
ENDBRANCH   3  16
ENDBRANCH   1   6
BRANCH   1  21
ATOM     21  C   UNL     1      35.954 -18.942 -21.688  0.00  0.00    +0.148 C 
BRANCH  21  28
ATOM     22  N   UNL     1      35.719 -20.482 -19.830  0.00  0.00    -0.392 NA
ATOM     23  N   UNL     1      32.982 -20.650 -20.210  0.00  0.00    -0.200 NA
ATOM     24  N   UNL     1      32.811 -22.119 -18.428  0.00  0.00    -0.271 NA
ATOM     25  N   UNL     1      34.752 -22.783 -17.187  0.00  0.00    -0.310 NA
ATOM     26  N   UNL     1      36.872 -21.930 -17.787  0.00  0.00    -0.329 N 
ATOM     27  N   UNL     1      32.633 -23.607 -16.621  0.00  0.00    -0.283 N 
ATOM     28  C   UNL     1      35.100 -19.807 -20.799  0.00  0.00    +0.133 C 
ATOM     29  C   UNL     1      33.758 -19.880 -20.998  0.00  0.00    +0.193 C 
ATOM     30  C   UNL     1      34.942 -21.251 -19.043  0.00  0.00    +0.248 C 
ATOM     31  C   UNL     1      33.561 -21.346 -19.223  0.00  0.00    +0.131 C 
ATOM     32  C   UNL     1      35.471 -21.996 -18.006  0.00  0.00    +0.231 C 
ATOM     33  C   UNL     1      33.440 -22.798 -17.451  0.00  0.00    +0.207 C 
ATOM     34  H   UNL     1      37.280 -22.448 -17.056  0.00  0.00    +0.145 HD
ATOM     35  H   UNL     1      37.434 -21.365 -18.364  0.00  0.00    +0.145 HD
ATOM     36  H   UNL     1      31.662 -23.652 -16.774  0.00  0.00    +0.156 HD
ATOM     37  H   UNL     1      33.042 -24.125 -15.892  0.00  0.00    +0.156 HD
ENDBRANCH  21  28
ENDBRANCH   1  21
TORSDOF 6
ENDMDL
MODEL 4
REMARK VINA RESULT:     -11.2      4.075      7.763
REMARK  Name = 23629645
REMARK  6 active torsions:
REMARK  status: ('A' for Active; 'I' for Inactive)
REMARK    1  A    between atoms: N_1  and  C_6
REMARK    2  A    between atoms: N_1  and  C_21
REMARK    3  A    between atoms: C_3  and  C_16
REMARK    4  A    between atoms: C_11  and  C_18
REMARK    5  A    between atoms: C_18  and  O_19
REMARK    6  A    between atoms: C_21  and  C_28
REMARK                            x       y       z     vdW  Elec       q    Type
REMARK                         _______ _______ _______ _____ _____    ______ ____
ROOT
ATOM      1  N   UNL     1      33.236 -11.444 -23.099  0.00  0.00    -0.300 N 
ATOM      2  C   UNL     1      34.061 -10.378 -23.630  0.00  0.00    +0.113 C 
ENDROOT
BRANCH   1   6
ATOM      3  C   UNL     1      34.252 -15.457 -23.781  0.00  0.00    +0.054 C 
ATOM      4  C   UNL     1      34.706 -14.813 -22.632  0.00  0.00    +0.006 C 
ATOM      5  C   UNL     1      33.464 -14.775 -24.704  0.00  0.00    +0.006 C 
ATOM      6  C   UNL     1      33.578 -12.793 -23.328  0.00  0.00    +0.048 C 
ATOM      7  C   UNL     1      34.368 -13.479 -22.405  0.00  0.00    +0.015 C 
ATOM      8  C   UNL     1      33.126 -13.441 -24.478  0.00  0.00    +0.015 C 
BRANCH   3  16
ATOM      9  O   UNL     1      34.357 -17.301 -25.140  0.00  0.00    -0.270 OA
ATOM     10  N   UNL     1      35.187 -17.582 -22.973  0.00  0.00    -0.276 N 
ATOM     11  C   UNL     1      35.086 -19.404 -20.718  0.00  0.00    +0.102 C 
ATOM     12  C   UNL     1      34.892 -19.882 -22.162  0.00  0.00    +0.033 C 
ATOM     13  C   UNL     1      34.808 -17.905 -20.561  0.00  0.00    +0.033 C 
ATOM     14  C   UNL     1      35.579 -18.973 -23.181  0.00  0.00    +0.094 C 
ATOM     15  C   UNL     1      35.488 -17.059 -21.636  0.00  0.00    +0.094 C 
ATOM     16  C   UNL     1      34.609 -16.861 -24.020  0.00  0.00    +0.249 C 
BRANCH  11  18
ATOM     17  O   UNL     1      37.385 -18.951 -20.160  0.00  0.00    -0.250 OA
ATOM     18  C   UNL     1      36.465 -19.752 -20.239  0.00  0.00    +0.317 C 
BRANCH  18  19
ATOM     19  O   UNL     1      36.515 -21.076 -19.916  0.00  0.00    -0.444 OA
ATOM     20  C   UNL     1      36.366 -21.376 -18.525  0.00  0.00    +0.256 C 
ENDBRANCH  18  19
ENDBRANCH  11  18
ENDBRANCH   3  16
ENDBRANCH   1   6
BRANCH   1  21
ATOM     21  C   UNL     1      32.048 -11.107 -22.339  0.00  0.00    +0.148 C 
BRANCH  21  28
ATOM     22  N   UNL     1      32.368  -8.895 -21.399  0.00  0.00    -0.392 NA
ATOM     23  N   UNL     1      30.715  -7.757 -23.305  0.00  0.00    -0.200 NA
ATOM     24  N   UNL     1      31.052  -5.666 -22.370  0.00  0.00    -0.271 NA
ATOM     25  N   UNL     1      32.461  -5.386 -20.450  0.00  0.00    -0.310 NA
ATOM     26  N   UNL     1      33.524  -7.269 -19.496  0.00  0.00    -0.329 N 
ATOM     27  N   UNL     1      31.392  -3.544 -21.424  0.00  0.00    -0.283 N 
ATOM     28  C   UNL     1      31.779  -9.625 -22.346  0.00  0.00    +0.133 C 
ATOM     29  C   UNL     1      30.965  -9.080 -23.288  0.00  0.00    +0.193 C 
ATOM     30  C   UNL     1      32.117  -7.571 -21.417  0.00  0.00    +0.248 C 
ATOM     31  C   UNL     1      31.286  -6.983 -22.373  0.00  0.00    +0.131 C 
ATOM     32  C   UNL     1      32.672  -6.714 -20.487  0.00  0.00    +0.231 C 
ATOM     33  C   UNL     1      31.649  -4.932 -21.412  0.00  0.00    +0.207 C 
ATOM     34  H   UNL     1      33.935  -6.685 -18.818  0.00  0.00    +0.145 HD
ATOM     35  H   UNL     1      33.704  -8.236 -19.488  0.00  0.00    +0.145 HD
ATOM     36  H   UNL     1      30.801  -3.160 -22.111  0.00  0.00    +0.156 HD
ATOM     37  H   UNL     1      31.803  -2.962 -20.745  0.00  0.00    +0.156 HD
ENDBRANCH  21  28
ENDBRANCH   1  21
TORSDOF 6
ENDMDL
MODEL 5
REMARK VINA RESULT:     -11.1      4.965     10.277
REMARK  Name = 23629645
REMARK  6 active torsions:
REMARK  status: ('A' for Active; 'I' for Inactive)
REMARK    1  A    between atoms: N_1  and  C_6
REMARK    2  A    between atoms: N_1  and  C_21
REMARK    3  A    between atoms: C_3  and  C_16
REMARK    4  A    between atoms: C_11  and  C_18
REMARK    5  A    between atoms: C_18  and  O_19
REMARK    6  A    between atoms: C_21  and  C_28
REMARK                            x       y       z     vdW  Elec       q    Type
REMARK                         _______ _______ _______ _____ _____    ______ ____
ROOT
ATOM      1  N   UNL     1      35.512 -18.316 -22.604  0.00  0.00    -0.300 N 
ATOM      2  C   UNL     1      34.970 -19.429 -23.355  0.00  0.00    +0.113 C 
ENDROOT
BRANCH   1   6
ATOM      3  C   UNL     1      34.099 -14.420 -23.263  0.00  0.00    +0.054 C 
ATOM      4  C   UNL     1      34.560 -14.786 -22.001  0.00  0.00    +0.006 C 
ATOM      5  C   UNL     1      34.104 -15.341 -24.307  0.00  0.00    +0.006 C 
ATOM      6  C   UNL     1      35.037 -17.005 -22.826  0.00  0.00    +0.048 C 
ATOM      7  C   UNL     1      35.031 -16.081 -21.782  0.00  0.00    +0.015 C 
ATOM      8  C   UNL     1      34.574 -16.636 -24.089  0.00  0.00    +0.015 C 
BRANCH   3  16
ATOM      9  O   UNL     1      34.006 -12.499 -24.512  0.00  0.00    -0.270 OA
ATOM     10  N   UNL     1      32.736 -12.503 -22.550  0.00  0.00    -0.276 N 
ATOM     11  C   UNL     1      32.136 -10.874 -20.226  0.00  0.00    +0.102 C 
ATOM     12  C   UNL     1      32.541 -10.259 -21.570  0.00  0.00    +0.033 C 
ATOM     13  C   UNL     1      32.585 -12.334 -20.097  0.00  0.00    +0.033 C 
ATOM     14  C   UNL     1      32.201 -11.160 -22.757  0.00  0.00    +0.094 C 
ATOM     15  C   UNL     1      32.254 -13.168 -21.333  0.00  0.00    +0.094 C 
ATOM     16  C   UNL     1      33.603 -13.057 -23.493  0.00  0.00    +0.249 C 
BRANCH  11  18
ATOM     17  O   UNL     1      29.816 -11.194 -20.789  0.00  0.00    -0.250 OA
ATOM     18  C   UNL     1      30.655 -10.743 -20.022  0.00  0.00    +0.317 C 
BRANCH  18  19
ATOM     19  O   UNL     1      30.413 -10.054 -18.870  0.00  0.00    -0.444 OA
ATOM     20  C   UNL     1      31.434  -9.131 -18.479  0.00  0.00    +0.256 C 
ENDBRANCH  18  19
ENDBRANCH  11  18
ENDBRANCH   3  16
ENDBRANCH   1   6
BRANCH   1  21
ATOM     21  C   UNL     1      36.559 -18.562 -21.631  0.00  0.00    +0.148 C 
BRANCH  21  28
ATOM     22  N   UNL     1      34.860 -19.901 -20.537  0.00  0.00    -0.392 NA
ATOM     23  N   UNL     1      36.755 -21.166 -18.965  0.00  0.00    -0.200 NA
ATOM     24  N   UNL     1      35.095 -22.422 -17.949  0.00  0.00    -0.271 NA
ATOM     25  N   UNL     1      32.795 -22.158 -18.571  0.00  0.00    -0.310 NA
ATOM     26  N   UNL     1      32.208 -20.595 -20.244  0.00  0.00    -0.329 N 
ATOM     27  N   UNL     1      33.416 -23.697 -16.919  0.00  0.00    -0.283 N 
ATOM     28  C   UNL     1      36.159 -19.613 -20.630  0.00  0.00    +0.133 C 
ATOM     29  C   UNL     1      37.099 -20.224 -19.865  0.00  0.00    +0.193 C 
ATOM     30  C   UNL     1      34.517 -20.843 -19.637  0.00  0.00    +0.248 C 
ATOM     31  C   UNL     1      35.462 -21.489 -18.837  0.00  0.00    +0.131 C 
ATOM     32  C   UNL     1      33.203 -21.227 -19.452  0.00  0.00    +0.231 C 
ATOM     33  C   UNL     1      33.784 -22.710 -17.859  0.00  0.00    +0.207 C 
ATOM     34  H   UNL     1      31.262 -20.846 -20.136  0.00  0.00    +0.145 HD
ATOM     35  H   UNL     1      32.465 -19.909 -20.900  0.00  0.00    +0.145 HD
ATOM     36  H   UNL     1      34.106 -24.134 -16.369  0.00  0.00    +0.156 HD
ATOM     37  H   UNL     1      32.470 -23.945 -16.811  0.00  0.00    +0.156 HD
ENDBRANCH  21  28
ENDBRANCH   1  21
TORSDOF 6
ENDMDL
MODEL 6
REMARK VINA RESULT:     -11.0      1.721      3.272
REMARK  Name = 23629645
REMARK  6 active torsions:
REMARK  status: ('A' for Active; 'I' for Inactive)
REMARK    1  A    between atoms: N_1  and  C_6
REMARK    2  A    between atoms: N_1  and  C_21
REMARK    3  A    between atoms: C_3  and  C_16
REMARK    4  A    between atoms: C_11  and  C_18
REMARK    5  A    between atoms: C_18  and  O_19
REMARK    6  A    between atoms: C_21  and  C_28
REMARK                            x       y       z     vdW  Elec       q    Type
REMARK                         _______ _______ _______ _____ _____    ______ ____
ROOT
ATOM      1  N   UNL     1      34.301 -20.698 -19.918  0.00  0.00    -0.300 N 
ATOM      2  C   UNL     1      33.068 -20.394 -20.614  0.00  0.00    +0.113 C 
ENDROOT
BRANCH   1   6
ATOM      3  C   UNL     1      34.260 -23.066 -16.454  0.00  0.00    +0.054 C 
ATOM      4  C   UNL     1      35.450 -22.482 -16.880  0.00  0.00    +0.006 C 
ATOM      5  C   UNL     1      33.084 -22.869 -17.172  0.00  0.00    +0.006 C 
ATOM      6  C   UNL     1      34.287 -21.494 -18.753  0.00  0.00    +0.048 C 
ATOM      7  C   UNL     1      35.464 -21.694 -18.031  0.00  0.00    +0.015 C 
ATOM      8  C   UNL     1      33.097 -22.081 -18.324  0.00  0.00    +0.015 C 
BRANCH   3  16
ATOM      9  O   UNL     1      33.137 -24.198 -14.805  0.00  0.00    -0.270 OA
ATOM     10  N   UNL     1      35.470 -24.264 -14.681  0.00  0.00    -0.276 N 
ATOM     11  C   UNL     1      37.657 -23.946 -12.801  0.00  0.00    +0.102 C 
ATOM     12  C   UNL     1      36.268 -24.424 -12.364  0.00  0.00    +0.033 C 
ATOM     13  C   UNL     1      37.616 -23.185 -14.132  0.00  0.00    +0.033 C 
ATOM     14  C   UNL     1      35.497 -25.110 -13.492  0.00  0.00    +0.094 C 
ATOM     15  C   UNL     1      36.794 -23.904 -15.202  0.00  0.00    +0.094 C 
ATOM     16  C   UNL     1      34.246 -23.896 -15.242  0.00  0.00    +0.249 C 
BRANCH  11  18
ATOM     17  O   UNL     1      38.382 -26.205 -12.379  0.00  0.00    -0.250 OA
ATOM     18  C   UNL     1      38.605 -25.107 -12.871  0.00  0.00    +0.317 C 
BRANCH  18  19
ATOM     19  O   UNL     1      39.726 -24.740 -13.554  0.00  0.00    -0.444 OA
ATOM     20  C   UNL     1      40.300 -25.754 -14.386  0.00  0.00    +0.256 C 
ENDBRANCH  18  19
ENDBRANCH  11  18
ENDBRANCH   3  16
ENDBRANCH   1   6
BRANCH   1  21
ATOM     21  C   UNL     1      35.549 -20.163 -20.425  0.00  0.00    +0.148 C 
BRANCH  21  28
ATOM     22  N   UNL     1      35.141 -17.791 -20.723  0.00  0.00    -0.392 NA
ATOM     23  N   UNL     1      35.123 -18.058 -23.478  0.00  0.00    -0.200 NA
ATOM     24  N   UNL     1      34.733 -15.787 -23.709  0.00  0.00    -0.271 NA
ATOM     25  N   UNL     1      34.537 -14.367 -21.787  0.00  0.00    -0.310 NA
ATOM     26  N   UNL     1      34.745 -15.294 -19.624  0.00  0.00    -0.329 N 
ATOM     27  N   UNL     1      34.339 -13.485 -23.947  0.00  0.00    -0.283 N 
ATOM     28  C   UNL     1      35.328 -18.970 -21.318  0.00  0.00    +0.133 C 
ATOM     29  C   UNL     1      35.320 -19.116 -22.668  0.00  0.00    +0.193 C 
ATOM     30  C   UNL     1      34.944 -16.734 -21.534  0.00  0.00    +0.248 C 
ATOM     31  C   UNL     1      34.932 -16.853 -22.925  0.00  0.00    +0.131 C 
ATOM     32  C   UNL     1      34.741 -15.462 -21.033  0.00  0.00    +0.231 C 
ATOM     33  C   UNL     1      34.546 -14.599 -23.105  0.00  0.00    +0.207 C 
ATOM     34  H   UNL     1      34.603 -14.401 -19.234  0.00  0.00    +0.145 HD
ATOM     35  H   UNL     1      34.890 -16.070 -19.036  0.00  0.00    +0.145 HD
ATOM     36  H   UNL     1      34.336 -13.602 -24.925  0.00  0.00    +0.156 HD
ATOM     37  H   UNL     1      34.196 -12.593 -23.557  0.00  0.00    +0.156 HD
ENDBRANCH  21  28
ENDBRANCH   1  21
TORSDOF 6
ENDMDL
MODEL 7
REMARK VINA RESULT:     -10.8      4.946      9.027
REMARK  Name = 23629645
REMARK  6 active torsions:
REMARK  status: ('A' for Active; 'I' for Inactive)
REMARK    1  A    between atoms: N_1  and  C_6
REMARK    2  A    between atoms: N_1  and  C_21
REMARK    3  A    between atoms: C_3  and  C_16
REMARK    4  A    between atoms: C_11  and  C_18
REMARK    5  A    between atoms: C_18  and  O_19
REMARK    6  A    between atoms: C_21  and  C_28
REMARK                            x       y       z     vdW  Elec       q    Type
REMARK                         _______ _______ _______ _____ _____    ______ ____
ROOT
ATOM      1  N   UNL     1      32.448 -10.323 -22.537  0.00  0.00    -0.300 N 
ATOM      2  C   UNL     1      31.200 -10.095 -21.837  0.00  0.00    +0.113 C 
ENDROOT
BRANCH   1   6
ATOM      3  C   UNL     1      33.506 -14.187 -23.786  0.00  0.00    +0.054 C 
ATOM      4  C   UNL     1      34.043 -13.077 -24.434  0.00  0.00    +0.006 C 
ATOM      5  C   UNL     1      32.619 -14.020 -22.725  0.00  0.00    +0.006 C 
ATOM      6  C   UNL     1      32.804 -11.623 -22.957  0.00  0.00    +0.048 C 
ATOM      7  C   UNL     1      33.692 -11.793 -24.019  0.00  0.00    +0.015 C 
ATOM      8  C   UNL     1      32.267 -12.736 -22.310  0.00  0.00    +0.015 C 
BRANCH   3  16
ATOM      9  O   UNL     1      33.419 -15.902 -25.306  0.00  0.00    -0.270 OA
ATOM     10  N   UNL     1      34.694 -16.302 -23.388  0.00  0.00    -0.276 N 
ATOM     11  C   UNL     1      35.156 -18.305 -21.341  0.00  0.00    +0.102 C 
ATOM     12  C   UNL     1      34.691 -18.675 -22.754  0.00  0.00    +0.033 C 
ATOM     13  C   UNL     1      34.841 -16.845 -20.990  0.00  0.00    +0.033 C 
ATOM     14  C   UNL     1      35.105 -17.641 -23.801  0.00  0.00    +0.094 C 
ATOM     15  C   UNL     1      35.240 -15.870 -22.096  0.00  0.00    +0.094 C 
ATOM     16  C   UNL     1      33.876 -15.539 -24.223  0.00  0.00    +0.249 C 
BRANCH  11  18
ATOM     17  O   UNL     1      37.450 -18.421 -22.067  0.00  0.00    -0.250 OA
ATOM     18  C   UNL     1      36.620 -18.595 -21.185  0.00  0.00    +0.317 C 
BRANCH  18  19
ATOM     19  O   UNL     1      36.860 -19.073 -19.931  0.00  0.00    -0.444 OA
ATOM     20  C   UNL     1      36.387 -20.400 -19.677  0.00  0.00    +0.256 C 
ENDBRANCH  18  19
ENDBRANCH  11  18
ENDBRANCH   3  16
ENDBRANCH   1   6
BRANCH   1  21
ATOM     21  C   UNL     1      33.332  -9.203 -22.790  0.00  0.00    +0.148 C 
BRANCH  21  28
ATOM     22  N   UNL     1      32.590  -6.952 -22.277  0.00  0.00    -0.392 NA
ATOM     23  N   UNL     1      31.210  -6.775 -24.670  0.00  0.00    -0.200 NA
ATOM     24  N   UNL     1      30.527  -4.628 -24.134  0.00  0.00    -0.271 NA
ATOM     25  N   UNL     1      31.185  -3.605 -22.068  0.00  0.00    -0.310 NA
ATOM     26  N   UNL     1      32.550  -4.801 -20.554  0.00  0.00    -0.329 N 
ATOM     27  N   UNL     1      29.834  -2.452 -23.594  0.00  0.00    -0.283 N 
ATOM     28  C   UNL     1      32.569  -7.957 -23.154  0.00  0.00    +0.133 C 
ATOM     29  C   UNL     1      31.896  -7.884 -24.332  0.00  0.00    +0.193 C 
ATOM     30  C   UNL     1      31.903  -5.844 -22.617  0.00  0.00    +0.248 C 
ATOM     31  C   UNL     1      31.202  -5.741 -23.820  0.00  0.00    +0.131 C 
ATOM     32  C   UNL     1      31.852  -4.739 -21.789  0.00  0.00    +0.231 C 
ATOM     33  C   UNL     1      30.551  -3.617 -23.246  0.00  0.00    +0.207 C 
ATOM     34  H   UNL     1      32.534  -4.030 -19.941  0.00  0.00    +0.145 HD
ATOM     35  H   UNL     1      33.051  -5.612 -20.312  0.00  0.00    +0.145 HD
ATOM     36  H   UNL     1      29.350  -2.410 -24.450  0.00  0.00    +0.156 HD
ATOM     37  H   UNL     1      29.817  -1.683 -22.980  0.00  0.00    +0.156 HD
ENDBRANCH  21  28
ENDBRANCH   1  21
TORSDOF 6
ENDMDL
MODEL 8
REMARK VINA RESULT:     -10.6      4.820     11.071
REMARK  Name = 23629645
REMARK  6 active torsions:
REMARK  status: ('A' for Active; 'I' for Inactive)
REMARK    1  A    between atoms: N_1  and  C_6
REMARK    2  A    between atoms: N_1  and  C_21
REMARK    3  A    between atoms: C_3  and  C_16
REMARK    4  A    between atoms: C_11  and  C_18
REMARK    5  A    between atoms: C_18  and  O_19
REMARK    6  A    between atoms: C_21  and  C_28
REMARK                            x       y       z     vdW  Elec       q    Type
REMARK                         _______ _______ _______ _____ _____    ______ ____
ROOT
ATOM      1  N   UNL     1      35.449 -17.352 -22.341  0.00  0.00    -0.300 N 
ATOM      2  C   UNL     1      35.139 -18.110 -23.536  0.00  0.00    +0.113 C 
ENDROOT
BRANCH   1   6
ATOM      3  C   UNL     1      33.266 -13.898 -21.390  0.00  0.00    +0.054 C 
ATOM      4  C   UNL     1      33.838 -14.658 -20.373  0.00  0.00    +0.006 C 
ATOM      5  C   UNL     1      33.414 -14.279 -22.721  0.00  0.00    +0.006 C 
ATOM      6  C   UNL     1      34.715 -16.190 -22.021  0.00  0.00    +0.048 C 
ATOM      7  C   UNL     1      34.564 -15.806 -20.689  0.00  0.00    +0.015 C 
ATOM      8  C   UNL     1      34.140 -15.427 -23.037  0.00  0.00    +0.015 C 
BRANCH   3  16
ATOM      9  O   UNL     1      31.632 -12.817 -20.197  0.00  0.00    -0.270 OA
ATOM     10  N   UNL     1      32.804 -11.508 -21.739  0.00  0.00    -0.276 N 
ATOM     11  C   UNL     1      32.389  -9.552 -23.840  0.00  0.00    +0.102 C 
ATOM     12  C   UNL     1      31.415  -9.708 -22.667  0.00  0.00    +0.033 C 
ATOM     13  C   UNL     1      33.238 -10.809 -24.061  0.00  0.00    +0.033 C 
ATOM     14  C   UNL     1      32.083 -10.280 -21.417  0.00  0.00    +0.094 C 
ATOM     15  C   UNL     1      33.840 -11.354 -22.766  0.00  0.00    +0.094 C 
ATOM     16  C   UNL     1      32.500 -12.689 -21.057  0.00  0.00    +0.249 C 
BRANCH  11  18
ATOM     17  O   UNL     1      34.477  -8.358 -23.693  0.00  0.00    -0.250 OA
ATOM     18  C   UNL     1      33.255  -8.343 -23.635  0.00  0.00    +0.317 C 
BRANCH  18  19
ATOM     19  O   UNL     1      32.471  -7.257 -23.381  0.00  0.00    -0.444 OA
ATOM     20  C   UNL     1      33.045  -6.273 -22.515  0.00  0.00    +0.256 C 
ENDBRANCH  18  19
ENDBRANCH  11  18
ENDBRANCH   3  16
ENDBRANCH   1   6
BRANCH   1  21
ATOM     21  C   UNL     1      36.531 -17.795 -21.484  0.00  0.00    +0.148 C 
BRANCH  21  28
ATOM     22  N   UNL     1      34.867 -19.340 -20.634  0.00  0.00    -0.392 NA
ATOM     23  N   UNL     1      36.809 -20.883 -19.405  0.00  0.00    -0.200 NA
ATOM     24  N   UNL     1      35.181 -22.329 -18.617  0.00  0.00    -0.271 NA
ATOM     25  N   UNL     1      32.863 -21.961 -19.107  0.00  0.00    -0.310 NA
ATOM     26  N   UNL     1      32.226 -20.097 -20.411  0.00  0.00    -0.329 N 
ATOM     27  N   UNL     1      33.533 -23.797 -17.818  0.00  0.00    -0.283 N 
ATOM     28  C   UNL     1      36.162 -19.029 -20.704  0.00  0.00    +0.133 C 
ATOM     29  C   UNL     1      37.126 -19.776 -20.106  0.00  0.00    +0.193 C 
ATOM     30  C   UNL     1      34.552 -20.446 -19.934  0.00  0.00    +0.248 C 
ATOM     31  C   UNL     1      35.520 -21.234 -19.308  0.00  0.00    +0.131 C 
ATOM     32  C   UNL     1      33.244 -20.869 -19.792  0.00  0.00    +0.231 C 
ATOM     33  C   UNL     1      33.873 -22.639 -18.550  0.00  0.00    +0.207 C 
ATOM     34  H   UNL     1      31.283 -20.370 -20.330  0.00  0.00    +0.145 HD
ATOM     35  H   UNL     1      32.462 -19.290 -20.923  0.00  0.00    +0.145 HD
ATOM     36  H   UNL     1      34.240 -24.332 -17.388  0.00  0.00    +0.156 HD
ATOM     37  H   UNL     1      32.591 -24.069 -17.736  0.00  0.00    +0.156 HD
ENDBRANCH  21  28
ENDBRANCH   1  21
TORSDOF 6
ENDMDL
MODEL 9
REMARK VINA RESULT:     -10.5      3.658     10.837
REMARK  Name = 23629645
REMARK  6 active torsions:
REMARK  status: ('A' for Active; 'I' for Inactive)
REMARK    1  A    between atoms: N_1  and  C_6
REMARK    2  A    between atoms: N_1  and  C_21
REMARK    3  A    between atoms: C_3  and  C_16
REMARK    4  A    between atoms: C_11  and  C_18
REMARK    5  A    between atoms: C_18  and  O_19
REMARK    6  A    between atoms: C_21  and  C_28
REMARK                            x       y       z     vdW  Elec       q    Type
REMARK                         _______ _______ _______ _____ _____    ______ ____
ROOT
ATOM      1  N   UNL     1      34.423 -22.558 -17.439  0.00  0.00    -0.300 N 
ATOM      2  C   UNL     1      33.828 -23.877 -17.508  0.00  0.00    +0.113 C 
ENDROOT
BRANCH   1   6
ATOM      3  C   UNL     1      34.778 -20.204 -20.894  0.00  0.00    +0.054 C 
ATOM      4  C   UNL     1      35.923 -20.663 -20.247  0.00  0.00    +0.006 C 
ATOM      5  C   UNL     1      33.516 -20.523 -20.400  0.00  0.00    +0.006 C 
ATOM      6  C   UNL     1      34.542 -21.767 -18.602  0.00  0.00    +0.048 C 
ATOM      7  C   UNL     1      35.805 -21.445 -19.099  0.00  0.00    +0.015 C 
ATOM      8  C   UNL     1      33.397 -21.306 -19.252  0.00  0.00    +0.015 C 
BRANCH   3  16
ATOM      9  O   UNL     1      35.324 -19.950 -23.108  0.00  0.00    -0.270 OA
ATOM     10  N   UNL     1      34.549 -18.031 -22.020  0.00  0.00    -0.276 N 
ATOM     11  C   UNL     1      35.149 -15.214 -21.676  0.00  0.00    +0.102 C 
ATOM     12  C   UNL     1      35.540 -15.982 -22.944  0.00  0.00    +0.033 C 
ATOM     13  C   UNL     1      34.923 -16.145 -20.479  0.00  0.00    +0.033 C 
ATOM     14  C   UNL     1      34.634 -17.185 -23.207  0.00  0.00    +0.094 C 
ATOM     15  C   UNL     1      34.046 -17.349 -20.822  0.00  0.00    +0.094 C 
ATOM     16  C   UNL     1      34.902 -19.379 -22.103  0.00  0.00    +0.249 C 
BRANCH  11  18
ATOM     17  O   UNL     1      33.402 -14.257 -23.031  0.00  0.00    -0.250 OA
ATOM     18  C   UNL     1      33.939 -14.365 -21.938  0.00  0.00    +0.317 C 
BRANCH  18  19
ATOM     19  O   UNL     1      33.554 -13.752 -20.782  0.00  0.00    -0.444 OA
ATOM     20  C   UNL     1      32.143 -13.713 -20.548  0.00  0.00    +0.256 C 
ENDBRANCH  18  19
ENDBRANCH  11  18
ENDBRANCH   3  16
ENDBRANCH   1   6
BRANCH   1  21
ATOM     21  C   UNL     1      34.906 -22.066 -16.164  0.00  0.00    +0.148 C 
BRANCH  21  28
ATOM     22  N   UNL     1      36.035 -24.040 -15.321  0.00  0.00    -0.392 NA
ATOM     23  N   UNL     1      38.487 -22.756 -15.366  0.00  0.00    -0.200 NA
ATOM     24  N   UNL     1      39.517 -24.667 -14.560  0.00  0.00    -0.271 NA
ATOM     25  N   UNL     1      38.250 -26.648 -14.092  0.00  0.00    -0.310 NA
ATOM     26  N   UNL     1      35.916 -26.656 -14.459  0.00  0.00    -0.329 N 
ATOM     27  N   UNL     1      40.565 -26.602 -13.743  0.00  0.00    -0.283 N 
ATOM     28  C   UNL     1      36.161 -22.776 -15.728  0.00  0.00    +0.133 C 
ATOM     29  C   UNL     1      37.357 -22.133 -15.754  0.00  0.00    +0.193 C 
ATOM     30  C   UNL     1      37.165 -24.662 -14.933  0.00  0.00    +0.248 C 
ATOM     31  C   UNL     1      38.409 -24.027 -14.950  0.00  0.00    +0.131 C 
ATOM     32  C   UNL     1      37.159 -25.971 -14.494  0.00  0.00    +0.231 C 
ATOM     33  C   UNL     1      39.385 -25.942 -14.151  0.00  0.00    +0.207 C 
ATOM     34  H   UNL     1      35.877 -27.590 -14.151  0.00  0.00    +0.145 HD
ATOM     35  H   UNL     1      35.094 -26.197 -14.745  0.00  0.00    +0.145 HD
ATOM     36  H   UNL     1      41.427 -26.126 -13.767  0.00  0.00    +0.156 HD
ATOM     37  H   UNL     1      40.526 -27.535 -13.434  0.00  0.00    +0.156 HD
ENDBRANCH  21  28
ENDBRANCH   1  21
TORSDOF 6
ENDMDL
