MODEL 1
REMARK VINA RESULT:     -11.4      0.000      0.000
REMARK  Name = 446345
REMARK  6 active torsions:
REMARK  status: ('A' for Active; 'I' for Inactive)
REMARK    1  A    between atoms: N_2  and  C_20
REMARK    2  A    between atoms: N_3  and  S_8
REMARK    3  A    between atoms: S_8  and  C_11
REMARK    4  A    between atoms: C_12  and  C_14
REMARK    5  A    between atoms: C_20  and  C_22
REMARK    6  A    between atoms: N_21  and  C_28
REMARK                            x       y       z     vdW  Elec       q    Type
REMARK                         _______ _______ _______ _____ _____    ______ ____
ROOT
ATOM      1  O   UNL     1      37.715 -19.415 -20.033  0.00  0.00    -0.273 OA
ATOM      2  N   UNL     1      35.623 -18.867 -20.871  0.00  0.00    -0.277 N 
ATOM      3  N   UNL     1      34.507 -20.966 -19.393  0.00  0.00    -0.144 NA
ATOM      4  C   UNL     1      34.180 -19.079 -20.850  0.00  0.00    +0.113 C 
ATOM      5  C   UNL     1      33.810 -20.530 -20.623  0.00  0.00    +0.118 C 
ATOM      6  C   UNL     1      36.512 -19.664 -20.153  0.00  0.00    +0.244 C 
ATOM      7  C   UNL     1      35.973 -20.945 -19.567  0.00  0.00    +0.181 C 
ENDROOT
BRANCH   3   8
ATOM      8  S   UNL     1      33.872 -22.359 -18.629  0.00  0.00    +0.065 S 
ATOM      9  O   UNL     1      34.222 -23.510 -19.445  0.00  0.00    -0.153 OA
ATOM     10  O   UNL     1      32.480 -22.097 -18.308  0.00  0.00    -0.153 OA
BRANCH   8  11
ATOM     11  C   UNL     1      34.754 -22.468 -17.143  0.00  0.00    +0.141 C 
ATOM     12  C   UNL     1      34.204 -23.190 -16.158  0.00  0.00    +0.021 C 
BRANCH  12  14
ATOM     13 CL   UNL     1      36.661 -24.042 -10.789  0.00  0.00    -0.082 Cl
ATOM     14  C   UNL     1      34.811 -23.401 -14.833  0.00  0.00    +0.001 C 
ATOM     15  C   UNL     1      34.025 -23.871 -13.792  0.00  0.00    +0.001 C 
ATOM     16  C   UNL     1      36.157 -23.124 -14.649  0.00  0.00    +0.001 C 
ATOM     17  C   UNL     1      34.599 -24.070 -12.537  0.00  0.00    +0.011 C 
ATOM     18  C   UNL     1      36.731 -23.323 -13.394  0.00  0.00    +0.011 C 
ATOM     19  C   UNL     1      35.952 -23.797 -12.338  0.00  0.00    +0.058 C 
ENDBRANCH  12  14
ENDBRANCH   8  11
ENDBRANCH   3   8
BRANCH   2  20
ATOM     20  C   UNL     1      36.084 -17.633 -21.492  0.00  0.00    +0.094 C 
BRANCH  20  22
ATOM     21  N   UNL     1      33.849 -14.029 -22.247  0.00  0.00    -0.307 N 
ATOM     22  C   UNL     1      34.929 -16.668 -21.744  0.00  0.00    +0.023 C 
ATOM     23  C   UNL     1      35.078 -15.983 -23.107  0.00  0.00    +0.023 C 
ATOM     24  C   UNL     1      34.855 -15.604 -20.644  0.00  0.00    +0.023 C 
ATOM     25  C   UNL     1      33.948 -14.985 -23.358  0.00  0.00    +0.091 C 
ATOM     26  C   UNL     1      33.729 -14.603 -20.903  0.00  0.00    +0.091 C 
BRANCH  21  28
ATOM     27  N   UNL     1      32.101 -10.275 -23.065  0.00  0.00    -0.242 NA
ATOM     28  C   UNL     1      33.269 -12.783 -22.519  0.00  0.00    +0.051 C 
ATOM     29  C   UNL     1      33.842 -11.907 -23.453  0.00  0.00    +0.035 C 
ATOM     30  C   UNL     1      32.098 -12.373 -21.864  0.00  0.00    +0.035 C 
ATOM     31  C   UNL     1      33.230 -10.687 -23.687  0.00  0.00    +0.100 C 
ATOM     32  C   UNL     1      31.564 -11.131 -22.167  0.00  0.00    +0.100 C 
ENDBRANCH  21  28
ENDBRANCH  20  22
ENDBRANCH   2  20
TORSDOF 6
ENDMDL
MODEL 2
REMARK VINA RESULT:     -11.4      4.051     11.345
REMARK  Name = 446345
REMARK  6 active torsions:
REMARK  status: ('A' for Active; 'I' for Inactive)
REMARK    1  A    between atoms: N_2  and  C_20
REMARK    2  A    between atoms: N_3  and  S_8
REMARK    3  A    between atoms: S_8  and  C_11
REMARK    4  A    between atoms: C_12  and  C_14
REMARK    5  A    between atoms: C_20  and  C_22
REMARK    6  A    between atoms: N_21  and  C_28
REMARK                            x       y       z     vdW  Elec       q    Type
REMARK                         _______ _______ _______ _____ _____    ______ ____
ROOT
ATOM      1  O   UNL     1      32.322 -20.906 -19.300  0.00  0.00    -0.273 OA
ATOM      2  N   UNL     1      34.384 -21.913 -18.967  0.00  0.00    -0.277 N 
ATOM      3  N   UNL     1      35.610 -19.804 -20.338  0.00  0.00    -0.144 NA
ATOM      4  C   UNL     1      35.837 -21.839 -19.076  0.00  0.00    +0.113 C 
ATOM      5  C   UNL     1      36.289 -21.117 -20.328  0.00  0.00    +0.118 C 
ATOM      6  C   UNL     1      33.539 -20.948 -19.507  0.00  0.00    +0.244 C 
ATOM      7  C   UNL     1      34.147 -19.953 -20.464  0.00  0.00    +0.181 C 
ENDROOT
BRANCH   3   8
ATOM      8  S   UNL     1      36.319 -18.604 -21.332  0.00  0.00    +0.065 S 
ATOM      9  O   UNL     1      36.067 -18.969 -22.716  0.00  0.00    -0.153 OA
ATOM     10  O   UNL     1      37.683 -18.397 -20.876  0.00  0.00    -0.153 OA
BRANCH   8  11
ATOM     11  C   UNL     1      35.412 -17.171 -20.982  0.00  0.00    +0.141 C 
ATOM     12  C   UNL     1      35.177 -16.333 -21.999  0.00  0.00    +0.021 C 
BRANCH  12  14
ATOM     13 CL   UNL     1      32.103 -11.239 -21.567  0.00  0.00    -0.082 Cl
ATOM     14  C   UNL     1      34.419 -15.075 -21.892  0.00  0.00    +0.001 C 
ATOM     15  C   UNL     1      33.909 -14.691 -20.662  0.00  0.00    +0.001 C 
ATOM     16  C   UNL     1      34.227 -14.299 -23.024  0.00  0.00    +0.001 C 
ATOM     17  C   UNL     1      33.191 -13.500 -20.561  0.00  0.00    +0.011 C 
ATOM     18  C   UNL     1      33.509 -13.108 -22.923  0.00  0.00    +0.011 C 
ATOM     19  C   UNL     1      32.990 -12.709 -21.691  0.00  0.00    +0.058 C 
ENDBRANCH  12  14
ENDBRANCH   8  11
ENDBRANCH   3   8
BRANCH   2  20
ATOM     20  C   UNL     1      33.857 -22.925 -18.062  0.00  0.00    +0.094 C 
BRANCH  20  22
ATOM     21  N   UNL     1      35.330 -23.369 -14.039  0.00  0.00    -0.307 N 
ATOM     22  C   UNL     1      34.229 -22.629 -16.612  0.00  0.00    +0.023 C 
ATOM     23  C   UNL     1      35.739 -22.777 -16.395  0.00  0.00    +0.023 C 
ATOM     24  C   UNL     1      33.481 -23.561 -15.654  0.00  0.00    +0.023 C 
ATOM     25  C   UNL     1      36.122 -22.519 -14.939  0.00  0.00    +0.091 C 
ATOM     26  C   UNL     1      33.874 -23.306 -14.199  0.00  0.00    +0.091 C 
BRANCH  21  28
ATOM     27  N   UNL     1      36.968 -24.242 -10.248  0.00  0.00    -0.242 NA
ATOM     28  C   UNL     1      35.874 -23.658 -12.781  0.00  0.00    +0.051 C 
ATOM     29  C   UNL     1      37.147 -23.193 -12.419  0.00  0.00    +0.035 C 
ATOM     30  C   UNL     1      35.162 -24.424 -11.845  0.00  0.00    +0.035 C 
ATOM     31  C   UNL     1      37.640 -23.506 -11.162  0.00  0.00    +0.100 C 
ATOM     32  C   UNL     1      35.743 -24.683 -10.615  0.00  0.00    +0.100 C 
ENDBRANCH  21  28
ENDBRANCH  20  22
ENDBRANCH   2  20
TORSDOF 6
ENDMDL
MODEL 3
REMARK VINA RESULT:     -10.7      3.347      5.464
REMARK  Name = 446345
REMARK  6 active torsions:
REMARK  status: ('A' for Active; 'I' for Inactive)
REMARK    1  A    between atoms: N_2  and  C_20
REMARK    2  A    between atoms: N_3  and  S_8
REMARK    3  A    between atoms: S_8  and  C_11
REMARK    4  A    between atoms: C_12  and  C_14
REMARK    5  A    between atoms: C_20  and  C_22
REMARK    6  A    between atoms: N_21  and  C_28
REMARK                            x       y       z     vdW  Elec       q    Type
REMARK                         _______ _______ _______ _____ _____    ______ ____
ROOT
ATOM      1  O   UNL     1      33.409 -16.294 -25.633  0.00  0.00    -0.273 OA
ATOM      2  N   UNL     1      33.817 -15.034 -23.729  0.00  0.00    -0.277 N 
ATOM      3  N   UNL     1      35.445 -17.087 -22.747  0.00  0.00    -0.144 NA
ATOM      4  C   UNL     1      34.553 -14.870 -22.480  0.00  0.00    +0.113 C 
ATOM      5  C   UNL     1      34.795 -16.185 -21.772  0.00  0.00    +0.118 C 
ATOM      6  C   UNL     1      33.897 -16.189 -24.504  0.00  0.00    +0.244 C 
ATOM      7  C   UNL     1      34.549 -17.397 -23.878  0.00  0.00    +0.181 C 
ENDROOT
BRANCH   3   8
ATOM      8  S   UNL     1      36.287 -18.422 -22.084  0.00  0.00    +0.065 S 
ATOM      9  O   UNL     1      37.419 -17.904 -21.335  0.00  0.00    -0.153 OA
ATOM     10  O   UNL     1      36.505 -19.386 -23.148  0.00  0.00    -0.153 OA
BRANCH   8  11
ATOM     11  C   UNL     1      35.168 -19.113 -20.956  0.00  0.00    +0.141 C 
ATOM     12  C   UNL     1      35.457 -20.328 -20.475  0.00  0.00    +0.021 C 
BRANCH  12  14
ATOM     13 CL   UNL     1      32.110 -23.310 -16.540  0.00  0.00    -0.082 Cl
ATOM     14  C   UNL     1      34.631 -21.065 -19.504  0.00  0.00    +0.001 C 
ATOM     15  C   UNL     1      33.255 -20.899 -19.518  0.00  0.00    +0.001 C 
ATOM     16  C   UNL     1      35.244 -21.909 -18.592  0.00  0.00    +0.001 C 
ATOM     17  C   UNL     1      32.473 -21.596 -18.598  0.00  0.00    +0.011 C 
ATOM     18  C   UNL     1      34.462 -22.607 -17.672  0.00  0.00    +0.011 C 
ATOM     19  C   UNL     1      33.075 -22.450 -17.676  0.00  0.00    +0.058 C 
ENDBRANCH  12  14
ENDBRANCH   8  11
ENDBRANCH   3   8
BRANCH   2  20
ATOM     20  C   UNL     1      33.171 -13.841 -24.258  0.00  0.00    +0.094 C 
BRANCH  20  22
ATOM     21  N   UNL     1      32.548 -10.034 -22.341  0.00  0.00    -0.307 N 
ATOM     22  C   UNL     1      33.297 -12.663 -23.297  0.00  0.00    +0.023 C 
ATOM     23  C   UNL     1      31.979 -12.422 -22.553  0.00  0.00    +0.023 C 
ATOM     24  C   UNL     1      33.702 -11.388 -24.043  0.00  0.00    +0.023 C 
ATOM     25  C   UNL     1      32.078 -11.221 -21.613  0.00  0.00    +0.091 C 
ATOM     26  C   UNL     1      33.792 -10.187 -23.101  0.00  0.00    +0.091 C 
BRANCH  21  28
ATOM     27  N   UNL     1      31.532  -6.256 -20.757  0.00  0.00    -0.242 NA
ATOM     28  C   UNL     1      32.211  -8.781 -21.815  0.00  0.00    +0.051 C 
ATOM     29  C   UNL     1      32.547  -8.435 -20.497  0.00  0.00    +0.035 C 
ATOM     30  C   UNL     1      31.525  -7.833 -22.589  0.00  0.00    +0.035 C 
ATOM     31  C   UNL     1      32.192  -7.182 -20.024  0.00  0.00    +0.100 C 
ATOM     32  C   UNL     1      31.215  -6.607 -22.023  0.00  0.00    +0.100 C 
ENDBRANCH  21  28
ENDBRANCH  20  22
ENDBRANCH   2  20
TORSDOF 6
ENDMDL
MODEL 4
REMARK VINA RESULT:     -10.5      4.583      7.554
REMARK  Name = 446345
REMARK  6 active torsions:
REMARK  status: ('A' for Active; 'I' for Inactive)
REMARK    1  A    between atoms: N_2  and  C_20
REMARK    2  A    between atoms: N_3  and  S_8
REMARK    3  A    between atoms: S_8  and  C_11
REMARK    4  A    between atoms: C_12  and  C_14
REMARK    5  A    between atoms: C_20  and  C_22
REMARK    6  A    between atoms: N_21  and  C_28
REMARK                            x       y       z     vdW  Elec       q    Type
REMARK                         _______ _______ _______ _____ _____    ______ ____
ROOT
ATOM      1  O   UNL     1      32.386 -13.904 -19.552  0.00  0.00    -0.273 OA
ATOM      2  N   UNL     1      32.444 -12.624 -21.485  0.00  0.00    -0.277 N 
ATOM      3  N   UNL     1      33.757 -14.716 -22.803  0.00  0.00    -0.144 NA
ATOM      4  C   UNL     1      32.746 -12.536 -22.910  0.00  0.00    +0.113 C 
ATOM      5  C   UNL     1      33.971 -13.338 -23.295  0.00  0.00    +0.118 C 
ATOM      6  C   UNL     1      32.763 -13.741 -20.717  0.00  0.00    +0.244 C 
ATOM      7  C   UNL     1      33.693 -14.759 -21.328  0.00  0.00    +0.181 C 
ENDROOT
BRANCH   3   8
ATOM      8  S   UNL     1      34.716 -15.928 -23.537  0.00  0.00    +0.065 S 
ATOM      9  O   UNL     1      35.849 -15.275 -24.169  0.00  0.00    -0.153 OA
ATOM     10  O   UNL     1      33.838 -16.775 -24.325  0.00  0.00    -0.153 OA
BRANCH   8  11
ATOM     11  C   UNL     1      35.311 -16.864 -22.206  0.00  0.00    +0.141 C 
ATOM     12  C   UNL     1      34.972 -18.159 -22.170  0.00  0.00    +0.021 C 
BRANCH  12  14
ATOM     13 CL   UNL     1      36.672 -22.002 -17.936  0.00  0.00    -0.082 Cl
ATOM     14  C   UNL     1      35.392 -19.107 -21.124  0.00  0.00    +0.001 C 
ATOM     15  C   UNL     1      36.700 -19.080 -20.667  0.00  0.00    +0.001 C 
ATOM     16  C   UNL     1      34.471 -20.011 -20.618  0.00  0.00    +0.001 C 
ATOM     17  C   UNL     1      37.097 -19.978 -19.677  0.00  0.00    +0.011 C 
ATOM     18  C   UNL     1      34.869 -20.910 -19.628  0.00  0.00    +0.011 C 
ATOM     19  C   UNL     1      36.182 -20.893 -19.157  0.00  0.00    +0.058 C 
ENDBRANCH  12  14
ENDBRANCH   8  11
ENDBRANCH   3   8
BRANCH   2  20
ATOM     20  C   UNL     1      31.580 -11.585 -20.944  0.00  0.00    +0.094 C 
BRANCH  20  22
ATOM     21  N   UNL     1      31.244  -7.462 -22.144  0.00  0.00    -0.307 N 
ATOM     22  C   UNL     1      31.889 -10.223 -21.558  0.00  0.00    +0.023 C 
ATOM     23  C   UNL     1      31.942  -9.137 -20.478  0.00  0.00    +0.023 C 
ATOM     24  C   UNL     1      30.842  -9.846 -22.610  0.00  0.00    +0.023 C 
ATOM     25  C   UNL     1      32.214  -7.760 -21.081  0.00  0.00    +0.091 C 
ATOM     26  C   UNL     1      31.113  -8.464 -23.206  0.00  0.00    +0.091 C 
BRANCH  21  28
ATOM     27  N   UNL     1      30.513  -3.399 -23.021  0.00  0.00    -0.242 NA
ATOM     28  C   UNL     1      31.002  -6.113 -22.434  0.00  0.00    +0.051 C 
ATOM     29  C   UNL     1      30.759  -5.185 -21.411  0.00  0.00    +0.035 C 
ATOM     30  C   UNL     1      30.992  -5.650 -23.759  0.00  0.00    +0.035 C 
ATOM     31  C   UNL     1      30.525  -3.862 -21.751  0.00  0.00    +0.100 C 
ATOM     32  C   UNL     1      30.747  -4.307 -23.995  0.00  0.00    +0.100 C 
ENDBRANCH  21  28
ENDBRANCH  20  22
ENDBRANCH   2  20
TORSDOF 6
ENDMDL
MODEL 5
REMARK VINA RESULT:     -10.5      4.583      7.486
REMARK  Name = 446345
REMARK  6 active torsions:
REMARK  status: ('A' for Active; 'I' for Inactive)
REMARK    1  A    between atoms: N_2  and  C_20
REMARK    2  A    between atoms: N_3  and  S_8
REMARK    3  A    between atoms: S_8  and  C_11
REMARK    4  A    between atoms: C_12  and  C_14
REMARK    5  A    between atoms: C_20  and  C_22
REMARK    6  A    between atoms: N_21  and  C_28
REMARK                            x       y       z     vdW  Elec       q    Type
REMARK                         _______ _______ _______ _____ _____    ______ ____
ROOT
ATOM      1  O   UNL     1      32.373 -13.889 -19.571  0.00  0.00    -0.273 OA
ATOM      2  N   UNL     1      32.445 -12.613 -21.505  0.00  0.00    -0.277 N 
ATOM      3  N   UNL     1      33.764 -14.707 -22.811  0.00  0.00    -0.144 NA
ATOM      4  C   UNL     1      32.755 -12.526 -22.928  0.00  0.00    +0.113 C 
ATOM      5  C   UNL     1      33.982 -13.330 -23.304  0.00  0.00    +0.118 C 
ATOM      6  C   UNL     1      32.758 -13.728 -20.733  0.00  0.00    +0.244 C 
ATOM      7  C   UNL     1      33.690 -14.748 -21.337  0.00  0.00    +0.181 C 
ENDROOT
BRANCH   3   8
ATOM      8  S   UNL     1      34.726 -15.921 -23.537  0.00  0.00    +0.065 S 
ATOM      9  O   UNL     1      35.869 -15.270 -24.155  0.00  0.00    -0.153 OA
ATOM     10  O   UNL     1      33.854 -16.762 -24.338  0.00  0.00    -0.153 OA
BRANCH   8  11
ATOM     11  C   UNL     1      35.303 -16.863 -22.203  0.00  0.00    +0.141 C 
ATOM     12  C   UNL     1      34.967 -18.158 -22.179  0.00  0.00    +0.021 C 
BRANCH  12  14
ATOM     13 CL   UNL     1      36.606 -22.018 -17.936  0.00  0.00    -0.082 Cl
ATOM     14  C   UNL     1      35.372 -19.112 -21.132  0.00  0.00    +0.001 C 
ATOM     15  C   UNL     1      34.441 -20.009 -20.633  0.00  0.00    +0.001 C 
ATOM     16  C   UNL     1      36.677 -19.094 -20.664  0.00  0.00    +0.001 C 
ATOM     17  C   UNL     1      34.824 -20.911 -19.641  0.00  0.00    +0.011 C 
ATOM     18  C   UNL     1      37.060 -19.996 -19.672  0.00  0.00    +0.011 C 
ATOM     19  C   UNL     1      36.133 -20.905 -19.161  0.00  0.00    +0.058 C 
ENDBRANCH  12  14
ENDBRANCH   8  11
ENDBRANCH   3   8
BRANCH   2  20
ATOM     20  C   UNL     1      31.577 -11.572 -20.971  0.00  0.00    +0.094 C 
BRANCH  20  22
ATOM     21  N   UNL     1      31.230  -7.451 -22.173  0.00  0.00    -0.307 N 
ATOM     22  C   UNL     1      31.871 -10.216 -21.606  0.00  0.00    +0.023 C 
ATOM     23  C   UNL     1      31.990  -9.126 -20.535  0.00  0.00    +0.023 C 
ATOM     24  C   UNL     1      30.778  -9.832 -22.607  0.00  0.00    +0.023 C 
ATOM     25  C   UNL     1      32.248  -7.756 -21.159  0.00  0.00    +0.091 C 
ATOM     26  C   UNL     1      31.035  -8.456 -23.223  0.00  0.00    +0.091 C 
BRANCH  21  28
ATOM     27  N   UNL     1      30.502  -3.383 -23.032  0.00  0.00    -0.242 NA
ATOM     28  C   UNL     1      30.988  -6.101 -22.459  0.00  0.00    +0.051 C 
ATOM     29  C   UNL     1      30.988  -5.630 -23.780  0.00  0.00    +0.035 C 
ATOM     30  C   UNL     1      30.740  -5.178 -21.431  0.00  0.00    +0.035 C 
ATOM     31  C   UNL     1      30.743  -4.286 -24.010  0.00  0.00    +0.100 C 
ATOM     32  C   UNL     1      30.507  -3.854 -21.765  0.00  0.00    +0.100 C 
ENDBRANCH  21  28
ENDBRANCH  20  22
ENDBRANCH   2  20
TORSDOF 6
ENDMDL
MODEL 6
REMARK VINA RESULT:     -10.0      1.263      2.194
REMARK  Name = 446345
REMARK  6 active torsions:
REMARK  status: ('A' for Active; 'I' for Inactive)
REMARK    1  A    between atoms: N_2  and  C_20
REMARK    2  A    between atoms: N_3  and  S_8
REMARK    3  A    between atoms: S_8  and  C_11
REMARK    4  A    between atoms: C_12  and  C_14
REMARK    5  A    between atoms: C_20  and  C_22
REMARK    6  A    between atoms: N_21  and  C_28
REMARK                            x       y       z     vdW  Elec       q    Type
REMARK                         _______ _______ _______ _____ _____    ______ ____
ROOT
ATOM      1  O   UNL     1      33.623 -19.375 -22.405  0.00  0.00    -0.273 OA
ATOM      2  N   UNL     1      35.637 -19.489 -21.263  0.00  0.00    -0.277 N 
ATOM      3  N   UNL     1      34.572 -21.499 -19.633  0.00  0.00    -0.144 NA
ATOM      4  C   UNL     1      36.467 -20.161 -20.268  0.00  0.00    +0.113 C 
ATOM      5  C   UNL     1      35.664 -20.664 -19.087  0.00  0.00    +0.118 C 
ATOM      6  C   UNL     1      34.301 -19.817 -21.473  0.00  0.00    +0.244 C 
ATOM      7  C   UNL     1      33.635 -20.700 -20.447  0.00  0.00    +0.181 C 
ENDROOT
BRANCH   3   8
ATOM      8  S   UNL     1      33.849 -22.594 -18.534  0.00  0.00    +0.065 S 
ATOM      9  O   UNL     1      33.948 -23.926 -19.105  0.00  0.00    -0.153 OA
ATOM     10  O   UNL     1      32.549 -22.061 -18.164  0.00  0.00    -0.153 OA
BRANCH   8  11
ATOM     11  C   UNL     1      34.871 -22.532 -17.137  0.00  0.00    +0.141 C 
ATOM     12  C   UNL     1      34.588 -23.373 -16.135  0.00  0.00    +0.021 C 
BRANCH  12  14
ATOM     13 CL   UNL     1      37.675 -23.763 -11.045  0.00  0.00    -0.082 Cl
ATOM     14  C   UNL     1      35.350 -23.469 -14.878  0.00  0.00    +0.001 C 
ATOM     15  C   UNL     1      36.729 -23.336 -14.908  0.00  0.00    +0.001 C 
ATOM     16  C   UNL     1      34.674 -23.691 -13.689  0.00  0.00    +0.001 C 
ATOM     17  C   UNL     1      37.451 -23.427 -13.718  0.00  0.00    +0.011 C 
ATOM     18  C   UNL     1      35.396 -23.782 -12.499  0.00  0.00    +0.011 C 
ATOM     19  C   UNL     1      36.785 -23.650 -12.514  0.00  0.00    +0.058 C 
ENDBRANCH  12  14
ENDBRANCH   8  11
ENDBRANCH   3   8
BRANCH   2  20
ATOM     20  C   UNL     1      36.332 -18.614 -22.197  0.00  0.00    +0.094 C 
BRANCH  20  22
ATOM     21  N   UNL     1      34.093 -14.975 -21.653  0.00  0.00    -0.307 N 
ATOM     22  C   UNL     1      35.981 -17.148 -21.959  0.00  0.00    +0.023 C 
ATOM     23  C   UNL     1      35.135 -16.988 -20.690  0.00  0.00    +0.023 C 
ATOM     24  C   UNL     1      35.222 -16.566 -23.155  0.00  0.00    +0.023 C 
ATOM     25  C   UNL     1      34.744 -15.530 -20.459  0.00  0.00    +0.091 C 
ATOM     26  C   UNL     1      34.826 -15.109 -22.916  0.00  0.00    +0.091 C 
BRANCH  21  28
ATOM     27  N   UNL     1      31.489 -11.699 -21.101  0.00  0.00    -0.242 NA
ATOM     28  C   UNL     1      33.229 -13.888 -21.470  0.00  0.00    +0.051 C 
ATOM     29  C   UNL     1      32.678 -13.606 -20.210  0.00  0.00    +0.035 C 
ATOM     30  C   UNL     1      32.886 -13.048 -22.540  0.00  0.00    +0.035 C 
ATOM     31  C   UNL     1      31.829 -12.519 -20.081  0.00  0.00    +0.100 C 
ATOM     32  C   UNL     1      32.028 -11.986 -22.308  0.00  0.00    +0.100 C 
ENDBRANCH  21  28
ENDBRANCH  20  22
ENDBRANCH   2  20
TORSDOF 6
ENDMDL
MODEL 7
REMARK VINA RESULT:     -10.0      4.371     11.028
REMARK  Name = 446345
REMARK  6 active torsions:
REMARK  status: ('A' for Active; 'I' for Inactive)
REMARK    1  A    between atoms: N_2  and  C_20
REMARK    2  A    between atoms: N_3  and  S_8
REMARK    3  A    between atoms: S_8  and  C_11
REMARK    4  A    between atoms: C_12  and  C_14
REMARK    5  A    between atoms: C_20  and  C_22
REMARK    6  A    between atoms: N_21  and  C_28
REMARK                            x       y       z     vdW  Elec       q    Type
REMARK                         _______ _______ _______ _____ _____    ______ ____
ROOT
ATOM      1  O   UNL     1      36.483 -18.158 -20.264  0.00  0.00    -0.273 OA
ATOM      2  N   UNL     1      35.504 -19.641 -21.754  0.00  0.00    -0.277 N 
ATOM      3  N   UNL     1      34.920 -17.503 -23.463  0.00  0.00    -0.144 NA
ATOM      4  C   UNL     1      34.903 -19.875 -23.063  0.00  0.00    +0.113 C 
ATOM      5  C   UNL     1      34.063 -18.707 -23.533  0.00  0.00    +0.118 C 
ATOM      6  C   UNL     1      35.838 -18.370 -21.296  0.00  0.00    +0.244 C 
ATOM      7  C   UNL     1      35.302 -17.192 -22.071  0.00  0.00    +0.181 C 
ENDROOT
BRANCH   3   8
ATOM      8  S   UNL     1      34.411 -16.169 -24.406  0.00  0.00    +0.065 S 
ATOM      9  O   UNL     1      33.212 -16.566 -25.124  0.00  0.00    -0.153 OA
ATOM     10  O   UNL     1      35.563 -15.677 -25.141  0.00  0.00    -0.153 OA
BRANCH   8  11
ATOM     11  C   UNL     1      33.966 -14.969 -23.240  0.00  0.00    +0.141 C 
ATOM     12  C   UNL     1      33.268 -13.916 -23.683  0.00  0.00    +0.021 C 
BRANCH  12  14
ATOM     13 CL   UNL     1      31.362  -9.417 -20.259  0.00  0.00    -0.082 Cl
ATOM     14  C   UNL     1      32.797 -12.805 -22.838  0.00  0.00    +0.001 C 
ATOM     15  C   UNL     1      32.895 -11.505 -23.308  0.00  0.00    +0.001 C 
ATOM     16  C   UNL     1      32.266 -13.080 -21.588  0.00  0.00    +0.001 C 
ATOM     17  C   UNL     1      32.449 -10.453 -22.508  0.00  0.00    +0.011 C 
ATOM     18  C   UNL     1      31.820 -12.029 -20.787  0.00  0.00    +0.011 C 
ATOM     19  C   UNL     1      31.912 -10.715 -21.248  0.00  0.00    +0.058 C 
ENDBRANCH  12  14
ENDBRANCH   8  11
ENDBRANCH   3   8
BRANCH   2  20
ATOM     20  C   UNL     1      35.960 -20.822 -21.034  0.00  0.00    +0.094 C 
BRANCH  20  22
ATOM     21  N   UNL     1      34.193 -22.445 -17.456  0.00  0.00    -0.307 N 
ATOM     22  C   UNL     1      35.301 -20.932 -19.662  0.00  0.00    +0.023 C 
ATOM     23  C   UNL     1      36.195 -21.705 -18.687  0.00  0.00    +0.023 C 
ATOM     24  C   UNL     1      33.937 -21.622 -19.763  0.00  0.00    +0.023 C 
ATOM     25  C   UNL     1      35.532 -21.855 -17.319  0.00  0.00    +0.091 C 
ATOM     26  C   UNL     1      33.281 -21.778 -18.391  0.00  0.00    +0.091 C 
BRANCH  21  28
ATOM     27  N   UNL     1      32.618 -24.483 -14.113  0.00  0.00    -0.242 NA
ATOM     28  C   UNL     1      33.670 -23.121 -16.347  0.00  0.00    +0.051 C 
ATOM     29  C   UNL     1      32.285 -23.238 -16.158  0.00  0.00    +0.035 C 
ATOM     30  C   UNL     1      34.516 -23.702 -15.389  0.00  0.00    +0.035 C 
ATOM     31  C   UNL     1      31.817 -23.918 -15.045  0.00  0.00    +0.100 C 
ATOM     32  C   UNL     1      33.950 -24.360 -14.310  0.00  0.00    +0.100 C 
ENDBRANCH  21  28
ENDBRANCH  20  22
ENDBRANCH   2  20
TORSDOF 6
ENDMDL
MODEL 8
REMARK VINA RESULT:      -9.8      5.065      8.015
REMARK  Name = 446345
REMARK  6 active torsions:
REMARK  status: ('A' for Active; 'I' for Inactive)
REMARK    1  A    between atoms: N_2  and  C_20
REMARK    2  A    between atoms: N_3  and  S_8
REMARK    3  A    between atoms: S_8  and  C_11
REMARK    4  A    between atoms: C_12  and  C_14
REMARK    5  A    between atoms: C_20  and  C_22
REMARK    6  A    between atoms: N_21  and  C_28
REMARK                            x       y       z     vdW  Elec       q    Type
REMARK                         _______ _______ _______ _____ _____    ______ ____
ROOT
ATOM      1  O   UNL     1      32.616 -13.336 -20.476  0.00  0.00    -0.273 OA
ATOM      2  N   UNL     1      32.846 -12.144 -22.451  0.00  0.00    -0.277 N 
ATOM      3  N   UNL     1      33.586 -14.503 -23.762  0.00  0.00    -0.144 NA
ATOM      4  C   UNL     1      33.078 -12.156 -23.892  0.00  0.00    +0.113 C 
ATOM      5  C   UNL     1      34.071 -13.218 -24.311  0.00  0.00    +0.118 C 
ATOM      6  C   UNL     1      32.953 -13.286 -21.662  0.00  0.00    +0.244 C 
ATOM      7  C   UNL     1      33.598 -14.499 -22.286  0.00  0.00    +0.181 C 
ENDROOT
BRANCH   3   8
ATOM      8  S   UNL     1      34.210 -15.914 -24.502  0.00  0.00    +0.065 S 
ATOM      9  O   UNL     1      35.584 -15.642 -24.887  0.00  0.00    -0.153 OA
ATOM     10  O   UNL     1      33.253 -16.354 -25.502  0.00  0.00    -0.153 OA
BRANCH   8  11
ATOM     11  C   UNL     1      34.233 -17.088 -23.229  0.00  0.00    +0.141 C 
ATOM     12  C   UNL     1      35.426 -17.578 -22.871  0.00  0.00    +0.021 C 
BRANCH  12  14
ATOM     13 CL   UNL     1      36.290 -21.607 -18.557  0.00  0.00    -0.082 Cl
ATOM     14  C   UNL     1      35.640 -18.573 -21.806  0.00  0.00    +0.001 C 
ATOM     15  C   UNL     1      34.598 -19.411 -21.440  0.00  0.00    +0.001 C 
ATOM     16  C   UNL     1      36.878 -18.653 -21.189  0.00  0.00    +0.001 C 
ATOM     17  C   UNL     1      34.800 -20.353 -20.432  0.00  0.00    +0.011 C 
ATOM     18  C   UNL     1      37.080 -19.595 -20.181  0.00  0.00    +0.011 C 
ATOM     19  C   UNL     1      36.040 -20.445 -19.802  0.00  0.00    +0.058 C 
ENDBRANCH  12  14
ENDBRANCH   8  11
ENDBRANCH   3   8
BRANCH   2  20
ATOM     20  C   UNL     1      32.264 -10.927 -21.902  0.00  0.00    +0.094 C 
BRANCH  20  22
ATOM     21  N   UNL     1      32.001  -7.038 -23.736  0.00  0.00    -0.307 N 
ATOM     22  C   UNL     1      32.198  -9.817 -22.948  0.00  0.00    +0.023 C 
ATOM     23  C   UNL     1      33.377  -8.850 -22.793  0.00  0.00    +0.023 C 
ATOM     24  C   UNL     1      30.882  -9.039 -22.837  0.00  0.00    +0.023 C 
ATOM     25  C   UNL     1      33.304  -7.712 -23.810  0.00  0.00    +0.091 C 
ATOM     26  C   UNL     1      30.817  -7.896 -23.850  0.00  0.00    +0.091 C 
BRANCH  21  28
ATOM     27  N   UNL     1      31.806  -3.039 -25.072  0.00  0.00    -0.242 NA
ATOM     28  C   UNL     1      31.936  -5.711 -24.180  0.00  0.00    +0.051 C 
ATOM     29  C   UNL     1      30.748  -4.971 -24.077  0.00  0.00    +0.035 C 
ATOM     30  C   UNL     1      33.057  -5.081 -24.741  0.00  0.00    +0.035 C 
ATOM     31  C   UNL     1      30.735  -3.662 -24.530  0.00  0.00    +0.100 C 
ATOM     32  C   UNL     1      32.942  -3.767 -25.164  0.00  0.00    +0.100 C 
ENDBRANCH  21  28
ENDBRANCH  20  22
ENDBRANCH   2  20
TORSDOF 6
ENDMDL
MODEL 9
REMARK VINA RESULT:      -9.6      2.705      3.300
REMARK  Name = 446345
REMARK  6 active torsions:
REMARK  status: ('A' for Active; 'I' for Inactive)
REMARK    1  A    between atoms: N_2  and  C_20
REMARK    2  A    between atoms: N_3  and  S_8
REMARK    3  A    between atoms: S_8  and  C_11
REMARK    4  A    between atoms: C_12  and  C_14
REMARK    5  A    between atoms: C_20  and  C_22
REMARK    6  A    between atoms: N_21  and  C_28
REMARK                            x       y       z     vdW  Elec       q    Type
REMARK                         _______ _______ _______ _____ _____    ______ ____
ROOT
ATOM      1  O   UNL     1      38.001 -19.006 -20.314  0.00  0.00    -0.273 OA
ATOM      2  N   UNL     1      35.798 -18.771 -20.996  0.00  0.00    -0.277 N 
ATOM      3  N   UNL     1      35.089 -20.940 -19.375  0.00  0.00    -0.144 NA
ATOM      4  C   UNL     1      34.401 -19.171 -20.853  0.00  0.00    +0.113 C 
ATOM      5  C   UNL     1      34.248 -20.648 -20.556  0.00  0.00    +0.118 C 
ATOM      6  C   UNL     1      36.837 -19.416 -20.330  0.00  0.00    +0.244 C 
ATOM      7  C   UNL     1      36.521 -20.733 -19.667  0.00  0.00    +0.181 C 
ENDROOT
BRANCH   3   8
ATOM      8  S   UNL     1      34.707 -22.374 -18.523  0.00  0.00    +0.065 S 
ATOM      9  O   UNL     1      35.663 -22.512 -17.438  0.00  0.00    -0.153 OA
ATOM     10  O   UNL     1      34.558 -23.444 -19.495  0.00  0.00    -0.153 OA
BRANCH   8  11
ATOM     11  C   UNL     1      33.151 -22.057 -17.831  0.00  0.00    +0.141 C 
ATOM     12  C   UNL     1      32.706 -22.918 -16.909  0.00  0.00    +0.021 C 
BRANCH  12  14
ATOM     13 CL   UNL     1      27.479 -22.463 -14.069  0.00  0.00    -0.082 Cl
ATOM     14  C   UNL     1      31.416 -22.805 -16.208  0.00  0.00    +0.001 C 
ATOM     15  C   UNL     1      31.398 -22.742 -14.823  0.00  0.00    +0.001 C 
ATOM     16  C   UNL     1      30.243 -22.766 -16.945  0.00  0.00    +0.001 C 
ATOM     17  C   UNL     1      30.176 -22.635 -14.159  0.00  0.00    +0.011 C 
ATOM     18  C   UNL     1      29.021 -22.659 -16.281  0.00  0.00    +0.011 C 
ATOM     19  C   UNL     1      28.988 -22.594 -14.888  0.00  0.00    +0.058 C 
ENDBRANCH  12  14
ENDBRANCH   8  11
ENDBRANCH   3   8
BRANCH   2  20
ATOM     20  C   UNL     1      36.039 -17.513 -21.687  0.00  0.00    +0.094 C 
BRANCH  20  22
ATOM     21  N   UNL     1      33.534 -14.012 -21.536  0.00  0.00    -0.307 N 
ATOM     22  C   UNL     1      34.811 -16.608 -21.650  0.00  0.00    +0.023 C 
ATOM     23  C   UNL     1      34.789 -15.668 -22.860  0.00  0.00    +0.023 C 
ATOM     24  C   UNL     1      34.779 -15.781 -20.361  0.00  0.00    +0.023 C 
ATOM     25  C   UNL     1      33.584 -14.730 -22.817  0.00  0.00    +0.091 C 
ATOM     26  C   UNL     1      33.577 -14.838 -20.325  0.00  0.00    +0.091 C 
BRANCH  21  28
ATOM     27  N   UNL     1      31.499 -10.315 -21.458  0.00  0.00    -0.242 NA
ATOM     28  C   UNL     1      32.859 -12.785 -21.511  0.00  0.00    +0.051 C 
ATOM     29  C   UNL     1      32.846 -11.942 -22.633  0.00  0.00    +0.035 C 
ATOM     30  C   UNL     1      32.175 -12.360 -20.361  0.00  0.00    +0.035 C 
ATOM     31  C   UNL     1      32.163 -10.739 -22.557  0.00  0.00    +0.100 C 
ATOM     32  C   UNL     1      31.523 -11.139 -20.386  0.00  0.00    +0.100 C 
ENDBRANCH  21  28
ENDBRANCH  20  22
ENDBRANCH   2  20
TORSDOF 6
ENDMDL
