MODEL 1
REMARK VINA RESULT:     -12.6      0.000      0.000
REMARK  Name = 23635314
REMARK  9 active torsions:
REMARK  status: ('A' for Active; 'I' for Inactive)
REMARK    1  A    between atoms: C_2  and  C_8
REMARK    2  A    between atoms: C_3  and  C_23
REMARK    3  A    between atoms: C_7  and  O_13
REMARK    4  A    between atoms: O_13  and  C_14
REMARK    5  A    between atoms: C_14  and  C_15
REMARK    6  A    between atoms: C_15  and  N_17
REMARK    7  A    between atoms: C_23  and  C_26
REMARK    8  A    between atoms: N_25  and  C_28
REMARK    9  A    between atoms: C_28  and  C_29
REMARK                            x       y       z     vdW  Elec       q    Type
REMARK                         _______ _______ _______ _____ _____    ______ ____
ROOT
ATOM      1  N   UNL     1      35.414 -16.981 -22.107  0.00  0.00    -0.248 NA
ATOM      2  C   UNL     1      34.876 -19.240 -21.441  0.00  0.00    +0.019 C 
ATOM      3  C   UNL     1      35.063 -17.320 -23.367  0.00  0.00    +0.068 C 
ATOM      4  C   UNL     1      34.524 -19.552 -22.749  0.00  0.00    +0.003 C 
ATOM      5  C   UNL     1      35.311 -17.953 -21.173  0.00  0.00    +0.098 C 
ATOM      6  C   UNL     1      34.616 -18.578 -23.736  0.00  0.00    +0.015 C 
ENDROOT
BRANCH   2   8
ATOM      7  C   UNL     1      34.627 -22.135 -18.371  0.00  0.00    +0.138 C 
ATOM      8  C   UNL     1      34.790 -20.231 -20.391  0.00  0.00    +0.002 C 
ATOM      9  C   UNL     1      33.463 -21.657 -18.962  0.00  0.00    +0.037 C 
ATOM     10  C   UNL     1      35.873 -21.669 -18.780  0.00  0.00    +0.037 C 
ATOM     11  C   UNL     1      33.545 -20.702 -19.975  0.00  0.00    +0.003 C 
ATOM     12  C   UNL     1      35.954 -20.714 -19.793  0.00  0.00    +0.003 C 
BRANCH   7  13
ATOM     13  O   UNL     1      34.547 -23.073 -17.375  0.00  0.00    -0.478 OA
BRANCH  13  14
ATOM     14  C   UNL     1      33.285 -23.225 -16.738  0.00  0.00    +0.183 C 
BRANCH  14  15
ATOM     15  C   UNL     1      33.483 -23.137 -15.234  0.00  0.00    -0.029 C 
BRANCH  15  17
ATOM     16  O   UNL     1      29.709 -24.543 -14.053  0.00  0.00    -0.358 OA
ATOM     17  N   UNL     1      32.205 -23.263 -14.537  0.00  0.00    +0.393 N 
ATOM     18  C   UNL     1      31.082 -23.138 -15.476  0.00  0.00    -0.044 C 
ATOM     19  C   UNL     1      32.124 -24.546 -13.823  0.00  0.00    -0.044 C 
ATOM     20  C   UNL     1      29.761 -23.285 -14.727  0.00  0.00    +0.119 C 
ATOM     21  C   UNL     1      30.779 -24.660 -13.113  0.00  0.00    +0.119 C 
ATOM     22  H   UNL     1      32.145 -22.507 -13.855  0.00  0.00    -0.079 HD
ENDBRANCH  15  17
ENDBRANCH  14  15
ENDBRANCH  13  14
ENDBRANCH   7  13
ENDBRANCH   2   8
BRANCH   3  23
ATOM     23  C   UNL     1      35.175 -16.250 -24.403  0.00  0.00    +0.131 C 
BRANCH  23  26
ATOM     24  O   UNL     1      33.128 -15.651 -25.550  0.00  0.00    -0.275 OA
ATOM     25  N   UNL     1      33.707 -14.505 -23.615  0.00  0.00    -0.300 N 
ATOM     26  C   UNL     1      33.892 -15.458 -24.608  0.00  0.00    +0.229 C 
ATOM     27  H   UNL     1      34.380 -14.429 -22.901  0.00  0.00    +0.150 HD
BRANCH  25  28
ATOM     28  C   UNL     1      32.564 -13.622 -23.589  0.00  0.00    +0.116 C 
BRANCH  28  29
ATOM     29  C   UNL     1      32.355 -13.016 -22.231  0.00  0.00    -0.003 C 
ATOM     30  C   UNL     1      32.649 -13.760 -21.094  0.00  0.00    -0.003 C 
ATOM     31  C   UNL     1      31.870 -11.718 -22.124  0.00  0.00    -0.003 C 
ATOM     32  C   UNL     1      32.454 -13.197 -19.832  0.00  0.00    -0.000 C 
ATOM     33  C   UNL     1      31.675 -11.155 -20.863  0.00  0.00    -0.000 C 
ATOM     34  C   UNL     1      31.967 -11.896 -19.716  0.00  0.00    -0.000 C 
ENDBRANCH  28  29
ENDBRANCH  25  28
ENDBRANCH  23  26
ENDBRANCH   3  23
TORSDOF 9
ENDMDL
MODEL 2
REMARK VINA RESULT:     -12.5      2.132      3.289
REMARK  Name = 23635314
REMARK  9 active torsions:
REMARK  status: ('A' for Active; 'I' for Inactive)
REMARK    1  A    between atoms: C_2  and  C_8
REMARK    2  A    between atoms: C_3  and  C_23
REMARK    3  A    between atoms: C_7  and  O_13
REMARK    4  A    between atoms: O_13  and  C_14
REMARK    5  A    between atoms: C_14  and  C_15
REMARK    6  A    between atoms: C_15  and  N_17
REMARK    7  A    between atoms: C_23  and  C_26
REMARK    8  A    between atoms: N_25  and  C_28
REMARK    9  A    between atoms: C_28  and  C_29
REMARK                            x       y       z     vdW  Elec       q    Type
REMARK                         _______ _______ _______ _____ _____    ______ ____
ROOT
ATOM      1  N   UNL     1      35.412 -17.047 -22.072  0.00  0.00    -0.248 NA
ATOM      2  C   UNL     1      34.875 -19.295 -21.372  0.00  0.00    +0.019 C 
ATOM      3  C   UNL     1      35.066 -17.407 -23.328  0.00  0.00    +0.068 C 
ATOM      4  C   UNL     1      34.528 -19.629 -22.675  0.00  0.00    +0.003 C 
ATOM      5  C   UNL     1      35.307 -18.003 -21.123  0.00  0.00    +0.098 C 
ATOM      6  C   UNL     1      34.623 -18.672 -23.679  0.00  0.00    +0.015 C 
ENDROOT
BRANCH   2   8
ATOM      7  C   UNL     1      34.617 -22.140 -18.256  0.00  0.00    +0.138 C 
ATOM      8  C   UNL     1      34.787 -20.269 -20.305  0.00  0.00    +0.002 C 
ATOM      9  C   UNL     1      35.862 -21.669 -18.657  0.00  0.00    +0.037 C 
ATOM     10  C   UNL     1      33.455 -21.685 -18.871  0.00  0.00    +0.037 C 
ATOM     11  C   UNL     1      35.947 -20.730 -19.684  0.00  0.00    +0.003 C 
ATOM     12  C   UNL     1      33.541 -20.747 -19.898  0.00  0.00    +0.003 C 
BRANCH   7  13
ATOM     13  O   UNL     1      34.533 -23.063 -17.246  0.00  0.00    -0.478 OA
BRANCH  13  14
ATOM     14  C   UNL     1      35.434 -22.905 -16.157  0.00  0.00    +0.183 C 
BRANCH  14  15
ATOM     15  C   UNL     1      34.994 -23.817 -15.024  0.00  0.00    -0.029 C 
BRANCH  15  17
ATOM     16  O   UNL     1      38.513 -26.075 -14.650  0.00  0.00    -0.358 OA
ATOM     17  N   UNL     1      36.142 -24.512 -14.446  0.00  0.00    +0.393 N 
ATOM     18  C   UNL     1      36.092 -25.948 -14.753  0.00  0.00    -0.044 C 
ATOM     19  C   UNL     1      37.403 -23.936 -14.935  0.00  0.00    -0.044 C 
ATOM     20  C   UNL     1      37.305 -26.650 -14.149  0.00  0.00    +0.119 C 
ATOM     21  C   UNL     1      38.585 -24.685 -14.328  0.00  0.00    +0.119 C 
ATOM     22  H   UNL     1      36.101 -24.395 -13.433  0.00  0.00    -0.079 HD
ENDBRANCH  15  17
ENDBRANCH  14  15
ENDBRANCH  13  14
ENDBRANCH   7  13
ENDBRANCH   2   8
BRANCH   3  23
ATOM     23  C   UNL     1      35.181 -16.355 -24.381  0.00  0.00    +0.131 C 
BRANCH  23  26
ATOM     24  O   UNL     1      33.090 -15.783 -25.462  0.00  0.00    -0.275 OA
ATOM     25  N   UNL     1      33.800 -14.515 -23.651  0.00  0.00    -0.300 N 
ATOM     26  C   UNL     1      33.909 -15.543 -24.578  0.00  0.00    +0.229 C 
ATOM     27  H   UNL     1      34.512 -14.407 -22.980  0.00  0.00    +0.150 HD
BRANCH  25  28
ATOM     28  C   UNL     1      32.683 -13.600 -23.631  0.00  0.00    +0.116 C 
BRANCH  28  29
ATOM     29  C   UNL     1      32.446 -13.033 -22.261  0.00  0.00    -0.003 C 
ATOM     30  C   UNL     1      31.948 -11.743 -22.128  0.00  0.00    -0.003 C 
ATOM     31  C   UNL     1      32.727 -13.806 -21.139  0.00  0.00    -0.003 C 
ATOM     32  C   UNL     1      31.728 -11.216 -20.855  0.00  0.00    -0.000 C 
ATOM     33  C   UNL     1      32.507 -13.279 -19.867  0.00  0.00    -0.000 C 
ATOM     34  C   UNL     1      32.009 -11.983 -19.725  0.00  0.00    -0.000 C 
ENDBRANCH  28  29
ENDBRANCH  25  28
ENDBRANCH  23  26
ENDBRANCH   3  23
TORSDOF 9
ENDMDL
MODEL 3
REMARK VINA RESULT:     -11.8      1.157      1.733
REMARK  Name = 23635314
REMARK  9 active torsions:
REMARK  status: ('A' for Active; 'I' for Inactive)
REMARK    1  A    between atoms: C_2  and  C_8
REMARK    2  A    between atoms: C_3  and  C_23
REMARK    3  A    between atoms: C_7  and  O_13
REMARK    4  A    between atoms: O_13  and  C_14
REMARK    5  A    between atoms: C_14  and  C_15
REMARK    6  A    between atoms: C_15  and  N_17
REMARK    7  A    between atoms: C_23  and  C_26
REMARK    8  A    between atoms: N_25  and  C_28
REMARK    9  A    between atoms: C_28  and  C_29
REMARK                            x       y       z     vdW  Elec       q    Type
REMARK                         _______ _______ _______ _____ _____    ______ ____
ROOT
ATOM      1  N   UNL     1      34.596 -18.440 -23.662  0.00  0.00    -0.248 NA
ATOM      2  C   UNL     1      34.917 -19.131 -21.369  0.00  0.00    +0.019 C 
ATOM      3  C   UNL     1      35.047 -17.217 -23.306  0.00  0.00    +0.068 C 
ATOM      4  C   UNL     1      35.375 -17.861 -21.040  0.00  0.00    +0.003 C 
ATOM      5  C   UNL     1      34.543 -19.369 -22.681  0.00  0.00    +0.098 C 
ATOM      6  C   UNL     1      35.444 -16.879 -22.022  0.00  0.00    +0.015 C 
ENDROOT
BRANCH   2   8
ATOM      7  C   UNL     1      34.672 -22.179 -18.451  0.00  0.00    +0.138 C 
ATOM      8  C   UNL     1      34.833 -20.174 -20.371  0.00  0.00    +0.002 C 
ATOM      9  C   UNL     1      33.506 -21.647 -18.990  0.00  0.00    +0.037 C 
ATOM     10  C   UNL     1      35.918 -21.718 -18.862  0.00  0.00    +0.037 C 
ATOM     11  C   UNL     1      33.587 -20.641 -19.953  0.00  0.00    +0.003 C 
ATOM     12  C   UNL     1      35.998 -20.713 -19.825  0.00  0.00    +0.003 C 
BRANCH   7  13
ATOM     13  O   UNL     1      34.593 -23.167 -17.504  0.00  0.00    -0.478 OA
BRANCH  13  14
ATOM     14  C   UNL     1      33.331 -23.354 -16.877  0.00  0.00    +0.183 C 
BRANCH  14  15
ATOM     15  C   UNL     1      33.504 -23.202 -15.375  0.00  0.00    -0.029 C 
BRANCH  15  17
ATOM     16  O   UNL     1      29.639 -24.343 -14.200  0.00  0.00    -0.358 OA
ATOM     17  N   UNL     1      32.207 -23.222 -14.701  0.00  0.00    +0.393 N 
ATOM     18  C   UNL     1      31.111 -23.097 -15.672  0.00  0.00    -0.044 C 
ATOM     19  C   UNL     1      32.046 -24.454 -13.916  0.00  0.00    -0.044 C 
ATOM     20  C   UNL     1      29.770 -23.132 -14.946  0.00  0.00    +0.119 C 
ATOM     21  C   UNL     1      30.682 -24.458 -13.232  0.00  0.00    +0.119 C 
ATOM     22  H   UNL     1      32.173 -22.424 -14.067  0.00  0.00    -0.079 HD
ENDBRANCH  15  17
ENDBRANCH  14  15
ENDBRANCH  13  14
ENDBRANCH   7  13
ENDBRANCH   2   8
BRANCH   3  23
ATOM     23  C   UNL     1      35.108 -16.186 -24.384  0.00  0.00    +0.131 C 
BRANCH  23  26
ATOM     24  O   UNL     1      33.029 -15.564 -25.460  0.00  0.00    -0.275 OA
ATOM     25  N   UNL     1      33.673 -14.443 -23.532  0.00  0.00    -0.300 N 
ATOM     26  C   UNL     1      33.824 -15.385 -24.540  0.00  0.00    +0.229 C 
ATOM     27  H   UNL     1      34.369 -14.379 -22.838  0.00  0.00    +0.150 HD
BRANCH  25  28
ATOM     28  C   UNL     1      32.537 -13.555 -23.460  0.00  0.00    +0.116 C 
BRANCH  28  29
ATOM     29  C   UNL     1      32.955 -12.116 -23.361  0.00  0.00    -0.003 C 
ATOM     30  C   UNL     1      34.163 -11.712 -23.916  0.00  0.00    -0.003 C 
ATOM     31  C   UNL     1      32.128 -11.203 -22.717  0.00  0.00    -0.003 C 
ATOM     32  C   UNL     1      34.552 -10.375 -23.825  0.00  0.00    -0.000 C 
ATOM     33  C   UNL     1      32.516  -9.866 -22.626  0.00  0.00    -0.000 C 
ATOM     34  C   UNL     1      33.729  -9.453 -23.179  0.00  0.00    -0.000 C 
ENDBRANCH  28  29
ENDBRANCH  25  28
ENDBRANCH  23  26
ENDBRANCH   3  23
TORSDOF 9
ENDMDL
MODEL 4
REMARK VINA RESULT:     -11.7      2.055      2.859
REMARK  Name = 23635314
REMARK  9 active torsions:
REMARK  status: ('A' for Active; 'I' for Inactive)
REMARK    1  A    between atoms: C_2  and  C_8
REMARK    2  A    between atoms: C_3  and  C_23
REMARK    3  A    between atoms: C_7  and  O_13
REMARK    4  A    between atoms: O_13  and  C_14
REMARK    5  A    between atoms: C_14  and  C_15
REMARK    6  A    between atoms: C_15  and  N_17
REMARK    7  A    between atoms: C_23  and  C_26
REMARK    8  A    between atoms: N_25  and  C_28
REMARK    9  A    between atoms: C_28  and  C_29
REMARK                            x       y       z     vdW  Elec       q    Type
REMARK                         _______ _______ _______ _____ _____    ______ ____
ROOT
ATOM      1  N   UNL     1      35.327 -16.822 -21.964  0.00  0.00    -0.248 NA
ATOM      2  C   UNL     1      34.875 -19.130 -21.413  0.00  0.00    +0.019 C 
ATOM      3  C   UNL     1      35.006 -17.115 -23.244  0.00  0.00    +0.068 C 
ATOM      4  C   UNL     1      34.552 -19.394 -22.738  0.00  0.00    +0.003 C 
ATOM      5  C   UNL     1      35.253 -17.841 -21.078  0.00  0.00    +0.098 C 
ATOM      6  C   UNL     1      34.617 -18.372 -23.678  0.00  0.00    +0.015 C 
ENDROOT
BRANCH   2   8
ATOM      7  C   UNL     1      34.708 -22.175 -18.485  0.00  0.00    +0.138 C 
ATOM      8  C   UNL     1      34.817 -20.172 -20.411  0.00  0.00    +0.002 C 
ATOM      9  C   UNL     1      33.530 -21.693 -19.045  0.00  0.00    +0.037 C 
ATOM     10  C   UNL     1      35.941 -21.664 -18.878  0.00  0.00    +0.037 C 
ATOM     11  C   UNL     1      33.585 -20.689 -20.012  0.00  0.00    +0.003 C 
ATOM     12  C   UNL     1      35.995 -20.660 -19.844  0.00  0.00    +0.003 C 
BRANCH   7  13
ATOM     13  O   UNL     1      34.654 -23.161 -17.535  0.00  0.00    -0.478 OA
BRANCH  13  14
ATOM     14  C   UNL     1      34.858 -22.763 -16.186  0.00  0.00    +0.183 C 
BRANCH  14  15
ATOM     15  C   UNL     1      34.267 -23.821 -15.269  0.00  0.00    -0.029 C 
BRANCH  15  17
ATOM     16  O   UNL     1      36.401 -23.338 -11.687  0.00  0.00    -0.358 OA
ATOM     17  N   UNL     1      35.154 -24.078 -14.137  0.00  0.00    +0.393 N 
ATOM     18  C   UNL     1      36.247 -23.097 -14.096  0.00  0.00    -0.044 C 
ATOM     19  C   UNL     1      34.407 -24.052 -12.871  0.00  0.00    -0.044 C 
ATOM     20  C   UNL     1      37.152 -23.379 -12.901  0.00  0.00    +0.119 C 
ATOM     21  C   UNL     1      35.355 -24.311 -11.705  0.00  0.00    +0.119 C 
ATOM     22  H   UNL     1      35.555 -25.008 -14.259  0.00  0.00    -0.079 HD
ENDBRANCH  15  17
ENDBRANCH  14  15
ENDBRANCH  13  14
ENDBRANCH   7  13
ENDBRANCH   2   8
BRANCH   3  23
ATOM     23  C   UNL     1      35.087 -15.994 -24.226  0.00  0.00    +0.131 C 
BRANCH  23  26
ATOM     24  O   UNL     1      33.077 -15.123 -25.260  0.00  0.00    -0.275 OA
ATOM     25  N   UNL     1      33.649 -14.396 -23.130  0.00  0.00    -0.300 N 
ATOM     26  C   UNL     1      33.829 -15.141 -24.288  0.00  0.00    +0.229 C 
ATOM     27  H   UNL     1      34.311 -14.482 -22.406  0.00  0.00    +0.150 HD
BRANCH  25  28
ATOM     28  C   UNL     1      32.529 -13.504 -22.945  0.00  0.00    +0.116 C 
BRANCH  28  29
ATOM     29  C   UNL     1      32.933 -12.063 -23.069  0.00  0.00    -0.003 C 
ATOM     30  C   UNL     1      32.106 -11.071 -22.558  0.00  0.00    -0.003 C 
ATOM     31  C   UNL     1      34.132 -11.737 -23.694  0.00  0.00    -0.003 C 
ATOM     32  C   UNL     1      32.482  -9.732 -22.672  0.00  0.00    -0.000 C 
ATOM     33  C   UNL     1      34.507 -10.398 -23.808  0.00  0.00    -0.000 C 
ATOM     34  C   UNL     1      33.681  -9.395 -23.298  0.00  0.00    -0.000 C 
ENDBRANCH  28  29
ENDBRANCH  25  28
ENDBRANCH  23  26
ENDBRANCH   3  23
TORSDOF 9
ENDMDL
MODEL 5
REMARK VINA RESULT:     -11.6      2.210     11.002
REMARK  Name = 23635314
REMARK  9 active torsions:
REMARK  status: ('A' for Active; 'I' for Inactive)
REMARK    1  A    between atoms: C_2  and  C_8
REMARK    2  A    between atoms: C_3  and  C_23
REMARK    3  A    between atoms: C_7  and  O_13
REMARK    4  A    between atoms: O_13  and  C_14
REMARK    5  A    between atoms: C_14  and  C_15
REMARK    6  A    between atoms: C_15  and  N_17
REMARK    7  A    between atoms: C_23  and  C_26
REMARK    8  A    between atoms: N_25  and  C_28
REMARK    9  A    between atoms: C_28  and  C_29
REMARK                            x       y       z     vdW  Elec       q    Type
REMARK                         _______ _______ _______ _____ _____    ______ ____
ROOT
ATOM      1  N   UNL     1      34.269 -23.665 -16.088  0.00  0.00    -0.248 NA
ATOM      2  C   UNL     1      35.253 -22.108 -17.652  0.00  0.00    +0.019 C 
ATOM      3  C   UNL     1      35.431 -23.630 -15.397  0.00  0.00    +0.068 C 
ATOM      4  C   UNL     1      36.432 -22.099 -16.916  0.00  0.00    +0.003 C 
ATOM      5  C   UNL     1      34.210 -22.900 -17.201  0.00  0.00    +0.098 C 
ATOM      6  C   UNL     1      36.530 -22.873 -15.765  0.00  0.00    +0.015 C 
ENDROOT
BRANCH   2   8
ATOM      7  C   UNL     1      34.862 -19.788 -21.163  0.00  0.00    +0.138 C 
ATOM      8  C   UNL     1      35.120 -21.314 -18.853  0.00  0.00    +0.002 C 
ATOM      9  C   UNL     1      36.121 -19.999 -20.614  0.00  0.00    +0.037 C 
ATOM     10  C   UNL     1      33.728 -20.332 -20.567  0.00  0.00    +0.037 C 
ATOM     11  C   UNL     1      36.251 -20.765 -19.456  0.00  0.00    +0.003 C 
ATOM     12  C   UNL     1      33.859 -21.098 -19.409  0.00  0.00    +0.003 C 
BRANCH   7  13
ATOM     13  O   UNL     1      34.734 -19.035 -22.301  0.00  0.00    -0.478 OA
BRANCH  13  14
ATOM     14  C   UNL     1      35.348 -17.753 -22.293  0.00  0.00    +0.183 C 
BRANCH  14  15
ATOM     15  C   UNL     1      34.998 -17.035 -23.586  0.00  0.00    -0.029 C 
BRANCH  15  17
ATOM     16  O   UNL     1      33.380 -13.319 -22.492  0.00  0.00    -0.358 OA
ATOM     17  N   UNL     1      34.849 -15.599 -23.355  0.00  0.00    +0.393 N 
ATOM     18  C   UNL     1      33.738 -15.055 -24.149  0.00  0.00    -0.044 C 
ATOM     19  C   UNL     1      34.634 -15.318 -21.929  0.00  0.00    -0.044 C 
ATOM     20  C   UNL     1      33.597 -13.559 -23.883  0.00  0.00    +0.119 C 
ATOM     21  C   UNL     1      34.471 -13.817 -21.715  0.00  0.00    +0.119 C 
ATOM     22  H   UNL     1      35.713 -15.145 -23.650  0.00  0.00    -0.079 HD
ENDBRANCH  15  17
ENDBRANCH  14  15
ENDBRANCH  13  14
ENDBRANCH   7  13
ENDBRANCH   2   8
BRANCH   3  23
ATOM     23  C   UNL     1      35.502 -24.474 -14.167  0.00  0.00    +0.131 C 
BRANCH  23  26
ATOM     24  O   UNL     1      34.231 -23.717 -12.249  0.00  0.00    -0.275 OA
ATOM     25  N   UNL     1      33.208 -25.120 -13.790  0.00  0.00    -0.300 N 
ATOM     26  C   UNL     1      34.266 -24.377 -13.285  0.00  0.00    +0.229 C 
ATOM     27  H   UNL     1      33.338 -25.616 -14.631  0.00  0.00    +0.150 HD
BRANCH  25  28
ATOM     28  C   UNL     1      31.924 -25.194 -13.132  0.00  0.00    +0.116 C 
BRANCH  28  29
ATOM     29  C   UNL     1      30.840 -24.547 -13.944  0.00  0.00    -0.003 C 
ATOM     30  C   UNL     1      30.708 -23.163 -13.936  0.00  0.00    -0.003 C 
ATOM     31  C   UNL     1      29.978 -25.338 -14.696  0.00  0.00    -0.003 C 
ATOM     32  C   UNL     1      29.700 -22.562 -14.690  0.00  0.00    -0.000 C 
ATOM     33  C   UNL     1      28.971 -24.736 -15.450  0.00  0.00    -0.000 C 
ATOM     34  C   UNL     1      28.831 -23.347 -15.447  0.00  0.00    -0.000 C 
ENDBRANCH  28  29
ENDBRANCH  25  28
ENDBRANCH  23  26
ENDBRANCH   3  23
TORSDOF 9
ENDMDL
MODEL 6
REMARK VINA RESULT:     -11.2      1.777     10.605
REMARK  Name = 23635314
REMARK  9 active torsions:
REMARK  status: ('A' for Active; 'I' for Inactive)
REMARK    1  A    between atoms: C_2  and  C_8
REMARK    2  A    between atoms: C_3  and  C_23
REMARK    3  A    between atoms: C_7  and  O_13
REMARK    4  A    between atoms: O_13  and  C_14
REMARK    5  A    between atoms: C_14  and  C_15
REMARK    6  A    between atoms: C_15  and  N_17
REMARK    7  A    between atoms: C_23  and  C_26
REMARK    8  A    between atoms: N_25  and  C_28
REMARK    9  A    between atoms: C_28  and  C_29
REMARK                            x       y       z     vdW  Elec       q    Type
REMARK                         _______ _______ _______ _____ _____    ______ ____
ROOT
ATOM      1  N   UNL     1      33.926 -21.152 -19.502  0.00  0.00    -0.248 NA
ATOM      2  C   UNL     1      35.017 -19.587 -20.984  0.00  0.00    +0.019 C 
ATOM      3  C   UNL     1      35.140 -21.423 -18.973  0.00  0.00    +0.068 C 
ATOM      4  C   UNL     1      36.248 -19.892 -20.416  0.00  0.00    +0.003 C 
ATOM      5  C   UNL     1      33.895 -20.237 -20.497  0.00  0.00    +0.098 C 
ATOM      6  C   UNL     1      36.319 -20.828 -19.390  0.00  0.00    +0.015 C 
ENDROOT
BRANCH   2   8
ATOM      7  C   UNL     1      34.703 -16.757 -24.108  0.00  0.00    +0.138 C 
ATOM      8  C   UNL     1      34.910 -18.619 -22.053  0.00  0.00    +0.002 C 
ATOM      9  C   UNL     1      35.269 -16.383 -22.895  0.00  0.00    +0.037 C 
ATOM     10  C   UNL     1      34.239 -18.054 -24.304  0.00  0.00    +0.037 C 
ATOM     11  C   UNL     1      35.373 -17.316 -21.864  0.00  0.00    +0.003 C 
ATOM     12  C   UNL     1      34.343 -18.986 -23.273  0.00  0.00    +0.003 C 
BRANCH   7  13
ATOM     13  O   UNL     1      34.600 -15.839 -25.121  0.00  0.00    -0.478 OA
BRANCH  13  14
ATOM     14  C   UNL     1      33.506 -14.934 -25.056  0.00  0.00    +0.183 C 
BRANCH  14  15
ATOM     15  C   UNL     1      33.928 -13.714 -24.255  0.00  0.00    -0.029 C 
BRANCH  15  17
ATOM     16  O   UNL     1      32.025 -12.088 -20.885  0.00  0.00    -0.358 OA
ATOM     17  N   UNL     1      32.902 -13.358 -23.278  0.00  0.00    +0.393 N 
ATOM     18  C   UNL     1      33.229 -13.904 -21.953  0.00  0.00    -0.044 C 
ATOM     19  C   UNL     1      32.742 -11.899 -23.195  0.00  0.00    -0.044 C 
ATOM     20  C   UNL     1      32.150 -13.510 -20.949  0.00  0.00    +0.119 C 
ATOM     21  C   UNL     1      31.675 -11.552 -22.162  0.00  0.00    +0.119 C 
ATOM     22  H   UNL     1      32.020 -13.765 -23.589  0.00  0.00    -0.079 HD
ENDBRANCH  15  17
ENDBRANCH  14  15
ENDBRANCH  13  14
ENDBRANCH   7  13
ENDBRANCH   2   8
BRANCH   3  23
ATOM     23  C   UNL     1      35.179 -22.433 -17.874  0.00  0.00    +0.131 C 
BRANCH  23  26
ATOM     24  O   UNL     1      33.653 -24.298 -18.113  0.00  0.00    -0.275 OA
ATOM     25  N   UNL     1      32.952 -22.418 -16.945  0.00  0.00    -0.300 N 
ATOM     26  C   UNL     1      33.864 -23.171 -17.672  0.00  0.00    +0.229 C 
ATOM     27  H   UNL     1      33.220 -21.522 -16.635  0.00  0.00    +0.150 HD
BRANCH  25  28
ATOM     28  C   UNL     1      31.628 -22.897 -16.623  0.00  0.00    +0.116 C 
BRANCH  28  29
ATOM     29  C   UNL     1      31.614 -23.698 -15.353  0.00  0.00    -0.003 C 
ATOM     30  C   UNL     1      30.551 -24.554 -15.092  0.00  0.00    -0.003 C 
ATOM     31  C   UNL     1      32.666 -23.576 -14.452  0.00  0.00    -0.003 C 
ATOM     32  C   UNL     1      30.538 -25.299 -13.913  0.00  0.00    -0.000 C 
ATOM     33  C   UNL     1      32.653 -24.321 -13.272  0.00  0.00    -0.000 C 
ATOM     34  C   UNL     1      31.588 -25.182 -13.003  0.00  0.00    -0.000 C 
ENDBRANCH  28  29
ENDBRANCH  25  28
ENDBRANCH  23  26
ENDBRANCH   3  23
TORSDOF 9
ENDMDL
MODEL 7
REMARK VINA RESULT:     -11.1      4.027      7.118
REMARK  Name = 23635314
REMARK  9 active torsions:
REMARK  status: ('A' for Active; 'I' for Inactive)
REMARK    1  A    between atoms: C_2  and  C_8
REMARK    2  A    between atoms: C_3  and  C_23
REMARK    3  A    between atoms: C_7  and  O_13
REMARK    4  A    between atoms: O_13  and  C_14
REMARK    5  A    between atoms: C_14  and  C_15
REMARK    6  A    between atoms: C_15  and  N_17
REMARK    7  A    between atoms: C_23  and  C_26
REMARK    8  A    between atoms: N_25  and  C_28
REMARK    9  A    between atoms: C_28  and  C_29
REMARK                            x       y       z     vdW  Elec       q    Type
REMARK                         _______ _______ _______ _____ _____    ______ ____
ROOT
ATOM      1  N   UNL     1      32.441 -11.268 -22.106  0.00  0.00    -0.248 NA
ATOM      2  C   UNL     1      33.273 -13.403 -21.344  0.00  0.00    +0.019 C 
ATOM      3  C   UNL     1      31.929 -11.080 -20.869  0.00  0.00    +0.068 C 
ATOM      4  C   UNL     1      32.733 -13.176 -20.085  0.00  0.00    +0.003 C 
ATOM      5  C   UNL     1      33.102 -12.428 -22.313  0.00  0.00    +0.098 C 
ATOM      6  C   UNL     1      32.046 -11.994 -19.835  0.00  0.00    +0.015 C 
ENDROOT
BRANCH   2   8
ATOM      7  C   UNL     1      35.379 -16.968 -22.198  0.00  0.00    +0.138 C 
ATOM      8  C   UNL     1      33.994 -14.623 -21.636  0.00  0.00    +0.002 C 
ATOM      9  C   UNL     1      35.137 -16.611 -20.876  0.00  0.00    +0.037 C 
ATOM     10  C   UNL     1      34.935 -16.163 -23.242  0.00  0.00    +0.037 C 
ATOM     11  C   UNL     1      34.442 -15.435 -20.595  0.00  0.00    +0.003 C 
ATOM     12  C   UNL     1      34.241 -14.988 -22.960  0.00  0.00    +0.003 C 
BRANCH   7  13
ATOM     13  O   UNL     1      36.062 -18.123 -22.475  0.00  0.00    -0.478 OA
BRANCH  13  14
ATOM     14  C   UNL     1      35.478 -19.338 -22.022  0.00  0.00    +0.183 C 
BRANCH  14  15
ATOM     15  C   UNL     1      36.133 -19.735 -20.710  0.00  0.00    -0.029 C 
BRANCH  15  17
ATOM     16  O   UNL     1      33.123 -22.183 -19.108  0.00  0.00    -0.358 OA
ATOM     17  N   UNL     1      35.148 -20.303 -19.792  0.00  0.00    +0.393 N 
ATOM     18  C   UNL     1      33.795 -20.216 -20.359  0.00  0.00    -0.044 C 
ATOM     19  C   UNL     1      35.472 -21.701 -19.476  0.00  0.00    -0.044 C 
ATOM     20  C   UNL     1      32.787 -20.824 -19.388  0.00  0.00    +0.119 C 
ATOM     21  C   UNL     1      34.425 -22.274 -18.527  0.00  0.00    +0.119 C 
ATOM     22  H   UNL     1      35.175 -19.759 -18.929  0.00  0.00    -0.079 HD
ENDBRANCH  15  17
ENDBRANCH  14  15
ENDBRANCH  13  14
ENDBRANCH   7  13
ENDBRANCH   2   8
BRANCH   3  23
ATOM     23  C   UNL     1      31.197  -9.800 -20.636  0.00  0.00    +0.131 C 
BRANCH  23  26
ATOM     24  O   UNL     1      32.237  -8.162 -19.187  0.00  0.00    -0.275 OA
ATOM     25  N   UNL     1      32.751  -8.144 -21.451  0.00  0.00    -0.300 N 
ATOM     26  C   UNL     1      32.106  -8.622 -20.318  0.00  0.00    +0.229 C 
ATOM     27  H   UNL     1      32.578  -8.585 -22.315  0.00  0.00    +0.150 HD
BRANCH  25  28
ATOM     28  C   UNL     1      33.666  -7.027 -21.413  0.00  0.00    +0.116 C 
BRANCH  28  29
ATOM     29  C   UNL     1      33.961  -6.497 -22.786  0.00  0.00    -0.003 C 
ATOM     30  C   UNL     1      35.204  -6.733 -23.361  0.00  0.00    -0.003 C 
ATOM     31  C   UNL     1      32.989  -5.775 -23.468  0.00  0.00    -0.003 C 
ATOM     32  C   UNL     1      35.479  -6.241 -24.637  0.00  0.00    -0.000 C 
ATOM     33  C   UNL     1      33.264  -5.282 -24.744  0.00  0.00    -0.000 C 
ATOM     34  C   UNL     1      34.510  -5.515 -25.328  0.00  0.00    -0.000 C 
ENDBRANCH  28  29
ENDBRANCH  25  28
ENDBRANCH  23  26
ENDBRANCH   3  23
TORSDOF 9
ENDMDL
MODEL 8
REMARK VINA RESULT:     -11.0      3.773     12.232
REMARK  Name = 23635314
REMARK  9 active torsions:
REMARK  status: ('A' for Active; 'I' for Inactive)
REMARK    1  A    between atoms: C_2  and  C_8
REMARK    2  A    between atoms: C_3  and  C_23
REMARK    3  A    between atoms: C_7  and  O_13
REMARK    4  A    between atoms: O_13  and  C_14
REMARK    5  A    between atoms: C_14  and  C_15
REMARK    6  A    between atoms: C_15  and  N_17
REMARK    7  A    between atoms: C_23  and  C_26
REMARK    8  A    between atoms: N_25  and  C_28
REMARK    9  A    between atoms: C_28  and  C_29
REMARK                            x       y       z     vdW  Elec       q    Type
REMARK                         _______ _______ _______ _____ _____    ______ ____
ROOT
ATOM      1  N   UNL     1      34.965 -15.960 -23.157  0.00  0.00    -0.248 NA
ATOM      2  C   UNL     1      33.861 -14.083 -22.112  0.00  0.00    +0.019 C 
ATOM      3  C   UNL     1      35.251 -16.420 -21.918  0.00  0.00    +0.068 C 
ATOM      4  C   UNL     1      34.174 -14.586 -20.855  0.00  0.00    +0.003 C 
ATOM      5  C   UNL     1      34.275 -14.800 -23.222  0.00  0.00    +0.098 C 
ATOM      6  C   UNL     1      34.882 -15.777 -20.748  0.00  0.00    +0.015 C 
ENDROOT
BRANCH   2   8
ATOM      7  C   UNL     1      31.710 -10.469 -22.534  0.00  0.00    +0.138 C 
ATOM      8  C   UNL     1      33.125 -12.846 -22.256  0.00  0.00    +0.002 C 
ATOM      9  C   UNL     1      32.795 -10.725 -23.364  0.00  0.00    +0.037 C 
ATOM     10  C   UNL     1      31.326 -11.390 -21.565  0.00  0.00    +0.037 C 
ATOM     11  C   UNL     1      33.505 -11.917 -23.225  0.00  0.00    +0.003 C 
ATOM     12  C   UNL     1      32.036 -12.582 -21.426  0.00  0.00    +0.003 C 
BRANCH   7  13
ATOM     13  O   UNL     1      31.013  -9.297 -22.670  0.00  0.00    -0.478 OA
BRANCH  13  14
ATOM     14  C   UNL     1      31.471  -8.187 -21.909  0.00  0.00    +0.183 C 
BRANCH  14  15
ATOM     15  C   UNL     1      31.691  -7.010 -22.845  0.00  0.00    -0.029 C 
BRANCH  15  17
ATOM     16  O   UNL     1      35.639  -6.110 -23.951  0.00  0.00    -0.358 OA
ATOM     17  N   UNL     1      33.009  -7.088 -23.471  0.00  0.00    +0.393 N 
ATOM     18  C   UNL     1      33.250  -5.919 -24.328  0.00  0.00    -0.044 C 
ATOM     19  C   UNL     1      34.066  -7.194 -22.455  0.00  0.00    -0.044 C 
ATOM     20  C   UNL     1      34.635  -6.018 -24.962  0.00  0.00    +0.119 C 
ATOM     21  C   UNL     1      35.431  -7.263 -23.133  0.00  0.00    +0.119 C 
ATOM     22  H   UNL     1      33.029  -7.927 -24.052  0.00  0.00    -0.079 HD
ENDBRANCH  15  17
ENDBRANCH  14  15
ENDBRANCH  13  14
ENDBRANCH   7  13
ENDBRANCH   2   8
BRANCH   3  23
ATOM     23  C   UNL     1      36.014 -17.701 -21.841  0.00  0.00    +0.131 C 
BRANCH  23  26
ATOM     24  O   UNL     1      34.911 -19.557 -22.939  0.00  0.00    -0.275 OA
ATOM     25  N   UNL     1      34.627 -19.278 -20.652  0.00  0.00    -0.300 N 
ATOM     26  C   UNL     1      35.135 -18.942 -21.899  0.00  0.00    +0.229 C 
ATOM     27  H   UNL     1      34.867 -18.718 -19.878  0.00  0.00    +0.150 HD
BRANCH  25  28
ATOM     28  C   UNL     1      33.761 -20.415 -20.444  0.00  0.00    +0.116 C 
BRANCH  28  29
ATOM     29  C   UNL     1      34.195 -21.243 -19.270  0.00  0.00    -0.003 C 
ATOM     30  C   UNL     1      33.255 -21.994 -18.574  0.00  0.00    -0.003 C 
ATOM     31  C   UNL     1      35.532 -21.252 -18.890  0.00  0.00    -0.003 C 
ATOM     32  C   UNL     1      33.657 -22.764 -17.482  0.00  0.00    -0.000 C 
ATOM     33  C   UNL     1      35.935 -22.022 -17.799  0.00  0.00    -0.000 C 
ATOM     34  C   UNL     1      34.996 -22.777 -17.094  0.00  0.00    -0.000 C 
ENDBRANCH  28  29
ENDBRANCH  25  28
ENDBRANCH  23  26
ENDBRANCH   3  23
TORSDOF 9
ENDMDL
MODEL 9
REMARK VINA RESULT:     -11.0      2.765     11.021
REMARK  Name = 23635314
REMARK  9 active torsions:
REMARK  status: ('A' for Active; 'I' for Inactive)
REMARK    1  A    between atoms: C_2  and  C_8
REMARK    2  A    between atoms: C_3  and  C_23
REMARK    3  A    between atoms: C_7  and  O_13
REMARK    4  A    between atoms: O_13  and  C_14
REMARK    5  A    between atoms: C_14  and  C_15
REMARK    6  A    between atoms: C_15  and  N_17
REMARK    7  A    between atoms: C_23  and  C_26
REMARK    8  A    between atoms: N_25  and  C_28
REMARK    9  A    between atoms: C_28  and  C_29
REMARK                            x       y       z     vdW  Elec       q    Type
REMARK                         _______ _______ _______ _____ _____    ______ ____
ROOT
ATOM      1  N   UNL     1      32.946 -21.754 -19.036  0.00  0.00    -0.248 NA
ATOM      2  C   UNL     1      34.477 -20.391 -20.313  0.00  0.00    +0.019 C 
ATOM      3  C   UNL     1      34.018 -22.419 -18.550  0.00  0.00    +0.068 C 
ATOM      4  C   UNL     1      35.555 -21.097 -19.793  0.00  0.00    +0.003 C 
ATOM      5  C   UNL     1      33.204 -20.754 -19.907  0.00  0.00    +0.098 C 
ATOM      6  C   UNL     1      35.329 -22.133 -18.894  0.00  0.00    +0.015 C 
ENDROOT
BRANCH   2   8
ATOM      7  C   UNL     1      35.068 -17.227 -23.054  0.00  0.00    +0.138 C 
ATOM      8  C   UNL     1      34.679 -19.309 -21.251  0.00  0.00    +0.002 C 
ATOM      9  C   UNL     1      34.551 -18.438 -23.501  0.00  0.00    +0.037 C 
ATOM     10  C   UNL     1      35.393 -17.047 -21.713  0.00  0.00    +0.037 C 
ATOM     11  C   UNL     1      34.356 -19.482 -22.597  0.00  0.00    +0.003 C 
ATOM     12  C   UNL     1      35.198 -18.092 -20.810  0.00  0.00    +0.003 C 
BRANCH   7  13
ATOM     13  O   UNL     1      35.260 -16.202 -23.942  0.00  0.00    -0.478 OA
BRANCH  13  14
ATOM     14  C   UNL     1      34.147 -15.352 -24.191  0.00  0.00    +0.183 C 
BRANCH  14  15
ATOM     15  C   UNL     1      34.351 -14.047 -23.439  0.00  0.00    -0.029 C 
BRANCH  15  17
ATOM     16  O   UNL     1      31.814 -12.278 -20.602  0.00  0.00    -0.358 OA
ATOM     17  N   UNL     1      33.161 -13.708 -22.661  0.00  0.00    +0.393 N 
ATOM     18  C   UNL     1      33.351 -14.042 -21.243  0.00  0.00    -0.044 C 
ATOM     19  C   UNL     1      32.833 -12.283 -22.804  0.00  0.00    -0.044 C 
ATOM     20  C   UNL     1      32.102 -13.669 -20.451  0.00  0.00    +0.119 C 
ATOM     21  C   UNL     1      31.596 -11.951 -21.975  0.00  0.00    +0.119 C 
ATOM     22  H   UNL     1      32.384 -14.260 -23.024  0.00  0.00    -0.079 HD
ENDBRANCH  15  17
ENDBRANCH  14  15
ENDBRANCH  13  14
ENDBRANCH   7  13
ENDBRANCH   2   8
BRANCH   3  23
ATOM     23  C   UNL     1      33.739 -23.525 -17.587  0.00  0.00    +0.131 C 
BRANCH  23  26
ATOM     24  O   UNL     1      33.003 -22.866 -15.376  0.00  0.00    -0.275 OA
ATOM     25  N   UNL     1      35.277 -23.113 -15.774  0.00  0.00    -0.300 N 
ATOM     26  C   UNL     1      33.936 -23.134 -16.130  0.00  0.00    +0.229 C 
ATOM     27  H   UNL     1      35.950 -23.345 -16.455  0.00  0.00    +0.150 HD
BRANCH  25  28
ATOM     28  C   UNL     1      35.725 -22.768 -14.445  0.00  0.00    +0.116 C 
BRANCH  28  29
ATOM     29  C   UNL     1      36.548 -23.862 -13.828  0.00  0.00    -0.003 C 
ATOM     30  C   UNL     1      36.086 -24.510 -12.689  0.00  0.00    -0.003 C 
ATOM     31  C   UNL     1      37.763 -24.215 -14.403  0.00  0.00    -0.003 C 
ATOM     32  C   UNL     1      36.851 -25.526 -12.116  0.00  0.00    -0.000 C 
ATOM     33  C   UNL     1      38.528 -25.231 -13.830  0.00  0.00    -0.000 C 
ATOM     34  C   UNL     1      38.072 -25.886 -12.686  0.00  0.00    -0.000 C 
ENDBRANCH  28  29
ENDBRANCH  25  28
ENDBRANCH  23  26
ENDBRANCH   3  23
TORSDOF 9
ENDMDL
