MODEL 1
REMARK VINA RESULT:     -10.6      0.000      0.000
REMARK  Name = 46937117
REMARK  6 active torsions:
REMARK  status: ('A' for Active; 'I' for Inactive)
REMARK    1  A    between atoms: N_1  and  C_21
REMARK    2  A    between atoms: C_4  and  C_9
REMARK    3  A    between atoms: C_9  and  C_12
REMARK    4  A    between atoms: C_9  and  C_20
REMARK    5  A    between atoms: C_21  and  C_22
REMARK    6  A    between atoms: C_22  and  C_24
REMARK                            x       y       z     vdW  Elec       q    Type
REMARK                         _______ _______ _______ _____ _____    ______ ____
ROOT
ATOM      1  N   UNL     1      35.316 -16.932 -23.236  0.00  0.00    -0.268 N 
ATOM      2  N   UNL     1      33.917 -15.077 -22.909  0.00  0.00    -0.341 NA
ATOM      3  N   UNL     1      34.357 -15.920 -25.123  0.00  0.00    -0.170 NA
ATOM      4  C   UNL     1      33.135 -14.129 -23.466  0.00  0.00    +0.144 C 
ATOM      5  C   UNL     1      34.489 -15.927 -23.783  0.00  0.00    +0.144 C 
ATOM      6  C   UNL     1      32.918 -14.014 -24.824  0.00  0.00    +0.052 C 
ATOM      7  C   UNL     1      33.561 -14.946 -25.612  0.00  0.00    +0.114 C 
ATOM      8  H   UNL     1      35.749 -17.570 -23.848  0.00  0.00    +0.159 HD
ENDROOT
BRANCH   4   9
ATOM      9  C   UNL     1      32.459 -13.136 -22.504  0.00  0.00    +0.202 C 
BRANCH   9  12
ATOM     10  S   UNL     1      31.865 -10.459 -22.257  0.00  0.00    -0.056 S 
ATOM     11  N   UNL     1      34.066 -11.401 -23.219  0.00  0.00    -0.402 NA
ATOM     12  C   UNL     1      32.905 -11.740 -22.707  0.00  0.00    +0.159 C 
ATOM     13  C   UNL     1      33.051  -9.325 -22.785  0.00  0.00    +0.057 C 
ATOM     14  C   UNL     1      34.165 -10.017 -23.270  0.00  0.00    +0.120 C 
ATOM     15  C   UNL     1      33.000  -7.921 -22.770  0.00  0.00    +0.008 C 
ATOM     16  C   UNL     1      35.264  -9.278 -23.757  0.00  0.00    +0.085 C 
ATOM     17  C   UNL     1      34.102  -7.213 -23.257  0.00  0.00    -0.004 C 
ATOM     18  C   UNL     1      35.220  -7.882 -23.745  0.00  0.00    -0.019 C 
ENDBRANCH   9  12
BRANCH   9  20
ATOM     19  N   UNL     1      32.587 -13.968 -19.983  0.00  0.00    -0.195 NA
ATOM     20  C   UNL     1      32.543 -13.614 -21.088  0.00  0.00    +0.087 C 
ENDBRANCH   9  20
ENDBRANCH   4   9
BRANCH   1  21
ATOM     21  C   UNL     1      35.550 -17.064 -21.833  0.00  0.00    +0.103 C 
BRANCH  21  22
ATOM     22  C   UNL     1      36.419 -18.284 -21.535  0.00  0.00    +0.050 C 
BRANCH  22  24
ATOM     23  N   UNL     1      35.785 -21.177 -19.171  0.00  0.00    -0.243 NA
ATOM     24  C   UNL     1      35.692 -19.351 -20.753  0.00  0.00    -0.001 C 
ATOM     25  C   UNL     1      34.315 -19.512 -20.867  0.00  0.00    -0.001 C 
ATOM     26  C   UNL     1      36.375 -20.202 -19.898  0.00  0.00    +0.095 C 
ATOM     27  C   UNL     1      33.673 -20.504 -20.135  0.00  0.00    +0.020 C 
ATOM     28  C   UNL     1      34.447 -21.303 -19.308  0.00  0.00    +0.099 C 
ENDBRANCH  22  24
ENDBRANCH  21  22
ENDBRANCH   1  21
TORSDOF 6
ENDMDL
MODEL 2
REMARK VINA RESULT:     -10.0      8.701     13.483
REMARK  Name = 46937117
REMARK  6 active torsions:
REMARK  status: ('A' for Active; 'I' for Inactive)
REMARK    1  A    between atoms: N_1  and  C_21
REMARK    2  A    between atoms: C_4  and  C_9
REMARK    3  A    between atoms: C_9  and  C_12
REMARK    4  A    between atoms: C_9  and  C_20
REMARK    5  A    between atoms: C_21  and  C_22
REMARK    6  A    between atoms: C_22  and  C_24
REMARK                            x       y       z     vdW  Elec       q    Type
REMARK                         _______ _______ _______ _____ _____    ______ ____
ROOT
ATOM      1  N   UNL     1      37.910 -22.881 -15.907  0.00  0.00    -0.268 N 
ATOM      2  N   UNL     1      36.785 -23.949 -14.147  0.00  0.00    -0.341 NA
ATOM      3  N   UNL     1      39.158 -24.234 -14.452  0.00  0.00    -0.170 NA
ATOM      4  C   UNL     1      36.863 -24.766 -13.075  0.00  0.00    +0.144 C 
ATOM      5  C   UNL     1      37.953 -23.730 -14.780  0.00  0.00    +0.144 C 
ATOM      6  C   UNL     1      38.036 -25.346 -12.637  0.00  0.00    +0.052 C 
ATOM      7  C   UNL     1      39.163 -25.041 -13.371  0.00  0.00    +0.114 C 
ATOM      8  H   UNL     1      38.747 -22.700 -16.392  0.00  0.00    +0.159 HD
ENDROOT
BRANCH   4   9
ATOM      9  C   UNL     1      35.552 -25.044 -12.320  0.00  0.00    +0.202 C 
BRANCH   9  12
ATOM     10  S   UNL     1      34.304 -24.641 -14.741  0.00  0.00    -0.056 S 
ATOM     11  N   UNL     1      33.306 -24.019 -12.444  0.00  0.00    -0.402 NA
ATOM     12  C   UNL     1      34.356 -24.544 -13.034  0.00  0.00    +0.159 C 
ATOM     13  C   UNL     1      32.739 -23.919 -14.724  0.00  0.00    +0.057 C 
ATOM     14  C   UNL     1      32.370 -23.656 -13.401  0.00  0.00    +0.120 C 
ATOM     15  C   UNL     1      31.897 -23.607 -15.804  0.00  0.00    +0.008 C 
ATOM     16  C   UNL     1      31.114 -23.061 -13.153  0.00  0.00    +0.085 C 
ATOM     17  C   UNL     1      30.659 -23.019 -15.531  0.00  0.00    -0.004 C 
ATOM     18  C   UNL     1      30.272 -22.748 -14.224  0.00  0.00    -0.019 C 
ENDBRANCH   9  12
BRANCH   9  20
ATOM     19  N   UNL     1      35.723 -24.293  -9.776  0.00  0.00    -0.195 NA
ATOM     20  C   UNL     1      35.648 -24.605 -10.891  0.00  0.00    +0.087 C 
ENDBRANCH   9  20
ENDBRANCH   4   9
BRANCH   1  21
ATOM     21  C   UNL     1      36.703 -22.273 -16.373  0.00  0.00    +0.103 C 
BRANCH  21  22
ATOM     22  C   UNL     1      36.849 -21.808 -17.820  0.00  0.00    +0.050 C 
BRANCH  22  24
ATOM     23  N   UNL     1      33.183 -22.166 -18.707  0.00  0.00    -0.243 NA
ATOM     24  C   UNL     1      35.523 -21.594 -18.509  0.00  0.00    -0.001 C 
ATOM     25  C   UNL     1      35.393 -20.672 -19.543  0.00  0.00    -0.001 C 
ATOM     26  C   UNL     1      34.398 -22.309 -18.132  0.00  0.00    +0.095 C 
ATOM     27  C   UNL     1      34.159 -20.497 -20.159  0.00  0.00    +0.020 C 
ATOM     28  C   UNL     1      33.094 -21.262 -19.708  0.00  0.00    +0.099 C 
ENDBRANCH  22  24
ENDBRANCH  21  22
ENDBRANCH   1  21
TORSDOF 6
ENDMDL
MODEL 3
REMARK VINA RESULT:      -9.9      2.749      8.824
REMARK  Name = 46937117
REMARK  6 active torsions:
REMARK  status: ('A' for Active; 'I' for Inactive)
REMARK    1  A    between atoms: N_1  and  C_21
REMARK    2  A    between atoms: C_4  and  C_9
REMARK    3  A    between atoms: C_9  and  C_12
REMARK    4  A    between atoms: C_9  and  C_20
REMARK    5  A    between atoms: C_21  and  C_22
REMARK    6  A    between atoms: C_22  and  C_24
REMARK                            x       y       z     vdW  Elec       q    Type
REMARK                         _______ _______ _______ _____ _____    ______ ____
ROOT
ATOM      1  N   UNL     1      33.183 -14.045 -24.855  0.00  0.00    -0.268 N 
ATOM      2  N   UNL     1      34.262 -15.392 -23.266  0.00  0.00    -0.341 NA
ATOM      3  N   UNL     1      33.582 -16.293 -25.395  0.00  0.00    -0.170 NA
ATOM      4  C   UNL     1      34.746 -16.610 -22.946  0.00  0.00    +0.144 C 
ATOM      5  C   UNL     1      33.702 -15.305 -24.487  0.00  0.00    +0.144 C 
ATOM      6  C   UNL     1      34.686 -17.703 -23.787  0.00  0.00    +0.052 C 
ATOM      7  C   UNL     1      34.088 -17.484 -25.011  0.00  0.00    +0.114 C 
ATOM      8  H   UNL     1      32.767 -13.948 -25.742  0.00  0.00    +0.159 HD
ENDROOT
BRANCH   4   9
ATOM      9  C   UNL     1      35.397 -16.755 -21.560  0.00  0.00    +0.202 C 
BRANCH   9  12
ATOM     10  S   UNL     1      36.634 -19.056 -20.689  0.00  0.00    -0.056 S 
ATOM     11  N   UNL     1      34.085 -18.656 -20.682  0.00  0.00    -0.402 NA
ATOM     12  C   UNL     1      35.240 -18.110 -20.987  0.00  0.00    +0.159 C 
ATOM     13  C   UNL     1      35.632 -20.326 -20.094  0.00  0.00    +0.057 C 
ATOM     14  C   UNL     1      34.294 -19.928 -20.168  0.00  0.00    +0.120 C 
ATOM     15  C   UNL     1      36.004 -21.586 -19.597  0.00  0.00    +0.008 C 
ATOM     16  C   UNL     1      33.295 -20.823 -19.729  0.00  0.00    +0.085 C 
ATOM     17  C   UNL     1      34.995 -22.453 -19.168  0.00  0.00    -0.004 C 
ATOM     18  C   UNL     1      33.658 -22.078 -19.233  0.00  0.00    -0.019 C 
ENDBRANCH   9  12
BRANCH   9  20
ATOM     19  N   UNL     1      34.629 -14.784 -19.952  0.00  0.00    -0.195 NA
ATOM     20  C   UNL     1      34.979 -15.644 -20.648  0.00  0.00    +0.087 C 
ENDBRANCH   9  20
ENDBRANCH   4   9
BRANCH   1  21
ATOM     21  C   UNL     1      33.238 -12.904 -23.996  0.00  0.00    +0.103 C 
BRANCH  21  22
ATOM     22  C   UNL     1      32.363 -13.108 -22.760  0.00  0.00    +0.050 C 
BRANCH  22  24
ATOM     23  N   UNL     1      32.180  -9.425 -21.890  0.00  0.00    -0.243 NA
ATOM     24  C   UNL     1      32.156 -11.841 -21.966  0.00  0.00    -0.001 C 
ATOM     25  C   UNL     1      31.768 -11.887 -20.632  0.00  0.00    -0.001 C 
ATOM     26  C   UNL     1      32.347 -10.597 -22.544  0.00  0.00    +0.095 C 
ATOM     27  C   UNL     1      31.586 -10.703 -19.926  0.00  0.00    +0.020 C 
ATOM     28  C   UNL     1      31.802  -9.509 -20.595  0.00  0.00    +0.099 C 
ENDBRANCH  22  24
ENDBRANCH  21  22
ENDBRANCH   1  21
TORSDOF 6
ENDMDL
MODEL 4
REMARK VINA RESULT:      -9.9      9.766     13.209
REMARK  Name = 46937117
REMARK  6 active torsions:
REMARK  status: ('A' for Active; 'I' for Inactive)
REMARK    1  A    between atoms: N_1  and  C_21
REMARK    2  A    between atoms: C_4  and  C_9
REMARK    3  A    between atoms: C_9  and  C_12
REMARK    4  A    between atoms: C_9  and  C_20
REMARK    5  A    between atoms: C_21  and  C_22
REMARK    6  A    between atoms: C_22  and  C_24
REMARK                            x       y       z     vdW  Elec       q    Type
REMARK                         _______ _______ _______ _____ _____    ______ ____
ROOT
ATOM      1  N   UNL     1      33.168 -24.820 -12.690  0.00  0.00    -0.268 N 
ATOM      2  N   UNL     1      35.271 -24.063 -13.403  0.00  0.00    -0.341 NA
ATOM      3  N   UNL     1      34.917 -24.770 -11.126  0.00  0.00    -0.170 NA
ATOM      4  C   UNL     1      36.556 -23.802 -13.082  0.00  0.00    +0.144 C 
ATOM      5  C   UNL     1      34.519 -24.537 -12.392  0.00  0.00    +0.144 C 
ATOM      6  C   UNL     1      37.087 -23.998 -11.823  0.00  0.00    +0.052 C 
ATOM      7  C   UNL     1      36.213 -24.488 -10.876  0.00  0.00    +0.114 C 
ATOM      8  H   UNL     1      32.591 -25.168 -11.973  0.00  0.00    +0.159 HD
ENDROOT
BRANCH   4   9
ATOM      9  C   UNL     1      37.454 -23.260 -14.207  0.00  0.00    +0.202 C 
BRANCH   9  12
ATOM     10  S   UNL     1      37.430 -21.841 -16.567  0.00  0.00    -0.056 S 
ATOM     11  N   UNL     1      35.470 -23.265 -15.680  0.00  0.00    -0.402 NA
ATOM     12  C   UNL     1      36.695 -22.871 -15.416  0.00  0.00    +0.159 C 
ATOM     13  C   UNL     1      35.998 -21.906 -17.525  0.00  0.00    +0.057 C 
ATOM     14  C   UNL     1      35.057 -22.719 -16.887  0.00  0.00    +0.120 C 
ATOM     15  C   UNL     1      35.728 -21.283 -18.754  0.00  0.00    +0.008 C 
ATOM     16  C   UNL     1      33.801 -22.914 -17.502  0.00  0.00    +0.085 C 
ATOM     17  C   UNL     1      34.478 -21.492 -19.342  0.00  0.00    -0.004 C 
ATOM     18  C   UNL     1      33.526 -22.296 -18.725  0.00  0.00    -0.019 C 
ENDBRANCH   9  12
BRANCH   9  20
ATOM     19  N   UNL     1      39.515 -24.879 -14.651  0.00  0.00    -0.195 NA
ATOM     20  C   UNL     1      38.607 -24.179 -14.469  0.00  0.00    +0.087 C 
ENDBRANCH   9  20
ENDBRANCH   4   9
BRANCH   1  21
ATOM     21  C   UNL     1      32.604 -24.623 -13.988  0.00  0.00    +0.103 C 
BRANCH  21  22
ATOM     22  C   UNL     1      31.768 -23.345 -14.032  0.00  0.00    +0.050 C 
BRANCH  22  24
ATOM     23  N   UNL     1      29.161 -22.548 -16.664  0.00  0.00    -0.243 NA
ATOM     24  C   UNL     1      30.545 -23.468 -14.908  0.00  0.00    -0.001 C 
ATOM     25  C   UNL     1      29.689 -24.559 -14.795  0.00  0.00    -0.001 C 
ATOM     26  C   UNL     1      30.240 -22.499 -15.850  0.00  0.00    +0.095 C 
ATOM     27  C   UNL     1      28.570 -24.644 -15.615  0.00  0.00    +0.020 C 
ATOM     28  C   UNL     1      28.352 -23.622 -16.525  0.00  0.00    +0.099 C 
ENDBRANCH  22  24
ENDBRANCH  21  22
ENDBRANCH   1  21
TORSDOF 6
ENDMDL
MODEL 5
REMARK VINA RESULT:      -9.7      1.420      2.631
REMARK  Name = 46937117
REMARK  6 active torsions:
REMARK  status: ('A' for Active; 'I' for Inactive)
REMARK    1  A    between atoms: N_1  and  C_21
REMARK    2  A    between atoms: C_4  and  C_9
REMARK    3  A    between atoms: C_9  and  C_12
REMARK    4  A    between atoms: C_9  and  C_20
REMARK    5  A    between atoms: C_21  and  C_22
REMARK    6  A    between atoms: C_22  and  C_24
REMARK                            x       y       z     vdW  Elec       q    Type
REMARK                         _______ _______ _______ _____ _____    ______ ____
ROOT
ATOM      1  N   UNL     1      35.473 -17.522 -21.044  0.00  0.00    -0.268 N 
ATOM      2  N   UNL     1      34.852 -15.600 -22.238  0.00  0.00    -0.341 NA
ATOM      3  N   UNL     1      34.783 -15.636 -19.829  0.00  0.00    -0.170 NA
ATOM      4  C   UNL     1      34.412 -14.325 -22.195  0.00  0.00    +0.144 C 
ATOM      5  C   UNL     1      35.014 -16.187 -21.037  0.00  0.00    +0.144 C 
ATOM      6  C   UNL     1      34.139 -13.648 -21.023  0.00  0.00    +0.052 C 
ATOM      7  C   UNL     1      34.345 -14.360 -19.860  0.00  0.00    +0.114 C 
ATOM      8  H   UNL     1      35.601 -17.979 -20.182  0.00  0.00    +0.159 HD
ENDROOT
BRANCH   4   9
ATOM      9  C   UNL     1      34.215 -13.614 -23.544  0.00  0.00    +0.202 C 
BRANCH   9  12
ATOM     10  S   UNL     1      32.012 -12.128 -22.822  0.00  0.00    -0.056 S 
ATOM     11  N   UNL     1      34.229 -11.149 -23.707  0.00  0.00    -0.402 NA
ATOM     12  C   UNL     1      33.614 -12.269 -23.407  0.00  0.00    +0.159 C 
ATOM     13  C   UNL     1      32.120 -10.414 -22.972  0.00  0.00    +0.057 C 
ATOM     14  C   UNL     1      33.385 -10.075 -23.462  0.00  0.00    +0.120 C 
ATOM     15  C   UNL     1      31.154  -9.438 -22.676  0.00  0.00    +0.008 C 
ATOM     16  C   UNL     1      33.691  -8.712 -23.663  0.00  0.00    +0.085 C 
ATOM     17  C   UNL     1      31.483  -8.096 -22.883  0.00  0.00    -0.004 C 
ATOM     18  C   UNL     1      32.735  -7.736 -23.371  0.00  0.00    -0.019 C 
ENDBRANCH   9  12
BRANCH   9  20
ATOM     19  N   UNL     1      33.000 -15.186 -25.311  0.00  0.00    -0.195 NA
ATOM     20  C   UNL     1      33.521 -14.505 -24.528  0.00  0.00    +0.087 C 
ENDBRANCH   9  20
ENDBRANCH   4   9
BRANCH   1  21
ATOM     21  C   UNL     1      35.759 -18.236 -22.247  0.00  0.00    +0.103 C 
BRANCH  21  22
ATOM     22  C   UNL     1      34.839 -19.446 -22.397  0.00  0.00    +0.050 C 
BRANCH  22  24
ATOM     23  N   UNL     1      35.581 -21.459 -19.273  0.00  0.00    -0.243 NA
ATOM     24  C   UNL     1      34.632 -20.195 -21.102  0.00  0.00    -0.001 C 
ATOM     25  C   UNL     1      33.365 -20.324 -20.544  0.00  0.00    -0.001 C 
ATOM     26  C   UNL     1      35.697 -20.775 -20.433  0.00  0.00    +0.095 C 
ATOM     27  C   UNL     1      33.204 -21.020 -19.351  0.00  0.00    +0.020 C 
ATOM     28  C   UNL     1      34.334 -21.563 -18.760  0.00  0.00    +0.099 C 
ENDBRANCH  22  24
ENDBRANCH  21  22
ENDBRANCH   1  21
TORSDOF 6
ENDMDL
MODEL 6
REMARK VINA RESULT:      -9.6      3.470      6.416
REMARK  Name = 46937117
REMARK  6 active torsions:
REMARK  status: ('A' for Active; 'I' for Inactive)
REMARK    1  A    between atoms: N_1  and  C_21
REMARK    2  A    between atoms: C_4  and  C_9
REMARK    3  A    between atoms: C_9  and  C_12
REMARK    4  A    between atoms: C_9  and  C_20
REMARK    5  A    between atoms: C_21  and  C_22
REMARK    6  A    between atoms: C_22  and  C_24
REMARK                            x       y       z     vdW  Elec       q    Type
REMARK                         _______ _______ _______ _____ _____    ______ ____
ROOT
ATOM      1  N   UNL     1      34.626 -11.071 -23.931  0.00  0.00    -0.268 N 
ATOM      2  N   UNL     1      33.357  -9.384 -22.907  0.00  0.00    -0.341 NA
ATOM      3  N   UNL     1      35.615  -8.964 -23.637  0.00  0.00    -0.170 NA
ATOM      4  C   UNL     1      33.299  -8.106 -22.475  0.00  0.00    +0.144 C 
ATOM      5  C   UNL     1      34.528  -9.741 -23.469  0.00  0.00    +0.144 C 
ATOM      6  C   UNL     1      34.343  -7.211 -22.589  0.00  0.00    +0.052 C 
ATOM      7  C   UNL     1      35.488  -7.699 -23.184  0.00  0.00    +0.114 C 
ATOM      8  H   UNL     1      35.468 -11.364 -24.347  0.00  0.00    +0.159 HD
ENDROOT
BRANCH   4   9
ATOM      9  C   UNL     1      31.980  -7.654 -21.827  0.00  0.00    +0.202 C 
BRANCH   9  12
ATOM     10  S   UNL     1      31.282  -6.058 -23.960  0.00  0.00    -0.056 S 
ATOM     11  N   UNL     1      31.320  -5.296 -21.496  0.00  0.00    -0.402 NA
ATOM     12  C   UNL     1      31.537  -6.320 -22.289  0.00  0.00    +0.159 C 
ATOM     13  C   UNL     1      30.837  -4.427 -23.626  0.00  0.00    +0.057 C 
ATOM     14  C   UNL     1      30.917  -4.202 -22.249  0.00  0.00    +0.120 C 
ATOM     15  C   UNL     1      30.444  -3.417 -24.520  0.00  0.00    +0.008 C 
ATOM     16  C   UNL     1      30.593  -2.922 -21.750  0.00  0.00    +0.085 C 
ATOM     17  C   UNL     1      30.128  -2.159 -24.001  0.00  0.00    -0.004 C 
ATOM     18  C   UNL     1      30.201  -1.913 -22.634  0.00  0.00    -0.019 C 
ENDBRANCH   9  12
BRANCH   9  20
ATOM     19  N   UNL     1      32.067  -7.960 -19.189  0.00  0.00    -0.195 NA
ATOM     20  C   UNL     1      32.027  -7.811 -20.339  0.00  0.00    +0.087 C 
ENDBRANCH   9  20
ENDBRANCH   4   9
BRANCH   1  21
ATOM     21  C   UNL     1      33.554 -12.010 -23.821  0.00  0.00    +0.103 C 
BRANCH  21  22
ATOM     22  C   UNL     1      33.861 -13.068 -22.762  0.00  0.00    +0.050 C 
BRANCH  22  24
ATOM     23  N   UNL     1      33.791 -15.990 -25.173  0.00  0.00    -0.243 NA
ATOM     24  C   UNL     1      34.109 -14.437 -23.348  0.00  0.00    -0.001 C 
ATOM     25  C   UNL     1      34.849 -15.390 -22.656  0.00  0.00    -0.001 C 
ATOM     26  C   UNL     1      33.607 -14.783 -24.592  0.00  0.00    +0.095 C 
ATOM     27  C   UNL     1      35.060 -16.642 -23.221  0.00  0.00    +0.020 C 
ATOM     28  C   UNL     1      34.515 -16.891 -24.471  0.00  0.00    +0.099 C 
ENDBRANCH  22  24
ENDBRANCH  21  22
ENDBRANCH   1  21
TORSDOF 6
ENDMDL
MODEL 7
REMARK VINA RESULT:      -9.6      7.658     12.984
REMARK  Name = 46937117
REMARK  6 active torsions:
REMARK  status: ('A' for Active; 'I' for Inactive)
REMARK    1  A    between atoms: N_1  and  C_21
REMARK    2  A    between atoms: C_4  and  C_9
REMARK    3  A    between atoms: C_9  and  C_12
REMARK    4  A    between atoms: C_9  and  C_20
REMARK    5  A    between atoms: C_21  and  C_22
REMARK    6  A    between atoms: C_22  and  C_24
REMARK                            x       y       z     vdW  Elec       q    Type
REMARK                         _______ _______ _______ _____ _____    ______ ____
ROOT
ATOM      1  N   UNL     1      37.685 -22.366 -16.236  0.00  0.00    -0.268 N 
ATOM      2  N   UNL     1      36.545 -23.650 -14.637  0.00  0.00    -0.341 NA
ATOM      3  N   UNL     1      38.912 -23.934 -14.994  0.00  0.00    -0.170 NA
ATOM      4  C   UNL     1      36.611 -24.611 -13.690  0.00  0.00    +0.144 C 
ATOM      5  C   UNL     1      37.715 -23.366 -15.239  0.00  0.00    +0.144 C 
ATOM      6  C   UNL     1      37.774 -25.269 -13.345  0.00  0.00    +0.052 C 
ATOM      7  C   UNL     1      38.905 -24.885 -14.036  0.00  0.00    +0.114 C 
ATOM      8  H   UNL     1      38.524 -22.135 -16.696  0.00  0.00    +0.159 HD
ENDROOT
BRANCH   4   9
ATOM      9  C   UNL     1      35.297 -24.967 -12.974  0.00  0.00    +0.202 C 
BRANCH   9  12
ATOM     10  S   UNL     1      32.575 -24.556 -12.906  0.00  0.00    -0.056 S 
ATOM     11  N   UNL     1      34.114 -23.931 -14.880  0.00  0.00    -0.402 NA
ATOM     12  C   UNL     1      34.099 -24.461 -13.678  0.00  0.00    +0.159 C 
ATOM     13  C   UNL     1      31.842 -23.827 -14.285  0.00  0.00    +0.057 C 
ATOM     14  C   UNL     1      32.826 -23.562 -15.241  0.00  0.00    +0.120 C 
ATOM     15  C   UNL     1      30.491 -23.512 -14.505  0.00  0.00    +0.008 C 
ATOM     16  C   UNL     1      32.444 -22.961 -16.460  0.00  0.00    +0.085 C 
ATOM     17  C   UNL     1      30.139 -22.917 -15.719  0.00  0.00    -0.004 C 
ATOM     18  C   UNL     1      31.101 -22.645 -16.685  0.00  0.00    -0.019 C 
ENDBRANCH   9  12
BRANCH   9  20
ATOM     19  N   UNL     1      35.406 -24.358 -10.389  0.00  0.00    -0.195 NA
ATOM     20  C   UNL     1      35.360 -24.609 -11.521  0.00  0.00    +0.087 C 
ENDBRANCH   9  20
ENDBRANCH   4   9
BRANCH   1  21
ATOM     21  C   UNL     1      36.489 -21.677 -16.604  0.00  0.00    +0.103 C 
BRANCH  21  22
ATOM     22  C   UNL     1      35.843 -22.319 -17.831  0.00  0.00    +0.050 C 
BRANCH  22  24
ATOM     23  N   UNL     1      36.137 -19.564 -20.416  0.00  0.00    -0.243 NA
ATOM     24  C   UNL     1      35.462 -21.316 -18.893  0.00  0.00    -0.001 C 
ATOM     25  C   UNL     1      34.147 -21.199 -19.330  0.00  0.00    -0.001 C 
ATOM     26  C   UNL     1      36.411 -20.483 -19.463  0.00  0.00    +0.095 C 
ATOM     27  C   UNL     1      33.826 -20.266 -20.308  0.00  0.00    +0.020 C 
ATOM     28  C   UNL     1      34.849 -19.479 -20.815  0.00  0.00    +0.099 C 
ENDBRANCH  22  24
ENDBRANCH  21  22
ENDBRANCH   1  21
TORSDOF 6
ENDMDL
MODEL 8
REMARK VINA RESULT:      -9.3      3.332     10.079
REMARK  Name = 46937117
REMARK  6 active torsions:
REMARK  status: ('A' for Active; 'I' for Inactive)
REMARK    1  A    between atoms: N_1  and  C_21
REMARK    2  A    between atoms: C_4  and  C_9
REMARK    3  A    between atoms: C_9  and  C_12
REMARK    4  A    between atoms: C_9  and  C_20
REMARK    5  A    between atoms: C_21  and  C_22
REMARK    6  A    between atoms: C_22  and  C_24
REMARK                            x       y       z     vdW  Elec       q    Type
REMARK                         _______ _______ _______ _____ _____    ______ ____
ROOT
ATOM      1  N   UNL     1      32.841  -7.368 -19.460  0.00  0.00    -0.268 N 
ATOM      2  N   UNL     1      32.368  -9.308 -20.692  0.00  0.00    -0.341 NA
ATOM      3  N   UNL     1      32.060  -9.254 -18.303  0.00  0.00    -0.170 NA
ATOM      4  C   UNL     1      31.945 -10.589 -20.680  0.00  0.00    +0.144 C 
ATOM      5  C   UNL     1      32.402  -8.709 -19.487  0.00  0.00    +0.144 C 
ATOM      6  C   UNL     1      31.567 -11.261 -19.535  0.00  0.00    +0.052 C 
ATOM      7  C   UNL     1      31.645 -10.536 -18.364  0.00  0.00    +0.114 C 
ATOM      8  H   UNL     1      32.877  -6.901 -18.595  0.00  0.00    +0.159 HD
ENDROOT
BRANCH   4   9
ATOM      9  C   UNL     1      31.889 -11.313 -22.036  0.00  0.00    +0.202 C 
BRANCH   9  12
ATOM     10  S   UNL     1      33.120 -13.240 -23.571  0.00  0.00    -0.056 S 
ATOM     11  N   UNL     1      33.119 -13.185 -20.992  0.00  0.00    -0.402 NA
ATOM     12  C   UNL     1      32.695 -12.554 -22.063  0.00  0.00    +0.159 C 
ATOM     13  C   UNL     1      33.953 -14.506 -22.749  0.00  0.00    +0.057 C 
ATOM     14  C   UNL     1      33.843 -14.307 -21.369  0.00  0.00    +0.120 C 
ATOM     15  C   UNL     1      34.654 -15.597 -23.287  0.00  0.00    +0.008 C 
ATOM     16  C   UNL     1      34.456 -15.233 -20.500  0.00  0.00    +0.085 C 
ATOM     17  C   UNL     1      35.253 -16.500 -22.404  0.00  0.00    -0.004 C 
ATOM     18  C   UNL     1      35.155 -16.322 -21.028  0.00  0.00    -0.019 C 
ENDBRANCH   9  12
BRANCH   9  20
ATOM     19  N   UNL     1      32.359  -9.624 -24.034  0.00  0.00    -0.195 NA
ATOM     20  C   UNL     1      32.168 -10.369 -23.164  0.00  0.00    +0.087 C 
ENDBRANCH   9  20
ENDBRANCH   4   9
BRANCH   1  21
ATOM     21  C   UNL     1      33.235  -6.659 -20.637  0.00  0.00    +0.103 C 
BRANCH  21  22
ATOM     22  C   UNL     1      32.346  -5.438 -20.863  0.00  0.00    +0.050 C 
BRANCH  22  24
ATOM     23  N   UNL     1      30.433  -4.297 -23.928  0.00  0.00    -0.243 NA
ATOM     24  C   UNL     1      31.952  -5.253 -22.308  0.00  0.00    -0.001 C 
ATOM     25  C   UNL     1      32.691  -5.833 -23.334  0.00  0.00    -0.001 C 
ATOM     26  C   UNL     1      30.841  -4.501 -22.656  0.00  0.00    +0.095 C 
ATOM     27  C   UNL     1      32.303  -5.646 -24.655  0.00  0.00    +0.020 C 
ATOM     28  C   UNL     1      31.176  -4.876 -24.897  0.00  0.00    +0.099 C 
ENDBRANCH  22  24
ENDBRANCH  21  22
ENDBRANCH   1  21
TORSDOF 6
ENDMDL
MODEL 9
REMARK VINA RESULT:      -9.2      3.491      6.200
REMARK  Name = 46937117
REMARK  6 active torsions:
REMARK  status: ('A' for Active; 'I' for Inactive)
REMARK    1  A    between atoms: N_1  and  C_21
REMARK    2  A    between atoms: C_4  and  C_9
REMARK    3  A    between atoms: C_9  and  C_12
REMARK    4  A    between atoms: C_9  and  C_20
REMARK    5  A    between atoms: C_21  and  C_22
REMARK    6  A    between atoms: C_22  and  C_24
REMARK                            x       y       z     vdW  Elec       q    Type
REMARK                         _______ _______ _______ _____ _____    ______ ____
ROOT
ATOM      1  N   UNL     1      34.493 -11.198 -23.818  0.00  0.00    -0.268 N 
ATOM      2  N   UNL     1      33.279  -9.453 -22.825  0.00  0.00    -0.341 NA
ATOM      3  N   UNL     1      35.511  -9.090 -23.659  0.00  0.00    -0.170 NA
ATOM      4  C   UNL     1      33.248  -8.157 -22.451  0.00  0.00    +0.144 C 
ATOM      5  C   UNL     1      34.424  -9.847 -23.414  0.00  0.00    +0.144 C 
ATOM      6  C   UNL     1      34.294  -7.278 -22.645  0.00  0.00    +0.052 C 
ATOM      7  C   UNL     1      35.411  -7.804 -23.260  0.00  0.00    +0.114 C 
ATOM      8  H   UNL     1      35.317 -11.518 -24.252  0.00  0.00    +0.159 HD
ENDROOT
BRANCH   4   9
ATOM      9  C   UNL     1      31.958  -7.662 -21.774  0.00  0.00    +0.202 C 
BRANCH   9  12
ATOM     10  S   UNL     1      31.309  -6.079 -23.931  0.00  0.00    -0.056 S 
ATOM     11  N   UNL     1      31.298  -5.300 -21.472  0.00  0.00    -0.402 NA
ATOM     12  C   UNL     1      31.529  -6.330 -22.254  0.00  0.00    +0.159 C 
ATOM     13  C   UNL     1      30.861  -4.444 -23.618  0.00  0.00    +0.057 C 
ATOM     14  C   UNL     1      30.914  -4.211 -22.240  0.00  0.00    +0.120 C 
ATOM     15  C   UNL     1      30.490  -3.439 -24.526  0.00  0.00    +0.008 C 
ATOM     16  C   UNL     1      30.583  -2.927 -21.757  0.00  0.00    +0.085 C 
ATOM     17  C   UNL     1      30.167  -2.177 -24.022  0.00  0.00    -0.004 C 
ATOM     18  C   UNL     1      30.212  -1.922 -22.656  0.00  0.00    -0.019 C 
ENDBRANCH   9  12
BRANCH   9  20
ATOM     19  N   UNL     1      32.113  -7.909 -19.132  0.00  0.00    -0.195 NA
ATOM     20  C   UNL     1      32.048  -7.785 -20.285  0.00  0.00    +0.087 C 
ENDBRANCH   9  20
ENDBRANCH   4   9
BRANCH   1  21
ATOM     21  C   UNL     1      33.419 -12.120 -23.624  0.00  0.00    +0.103 C 
BRANCH  21  22
ATOM     22  C   UNL     1      33.839 -13.538 -24.009  0.00  0.00    +0.050 C 
BRANCH  22  24
ATOM     23  N   UNL     1      35.220 -16.412 -21.961  0.00  0.00    -0.243 NA
ATOM     24  C   UNL     1      34.214 -14.387 -22.819  0.00  0.00    -0.001 C 
ATOM     25  C   UNL     1      33.924 -13.974 -21.523  0.00  0.00    -0.001 C 
ATOM     26  C   UNL     1      34.858 -15.603 -22.982  0.00  0.00    +0.095 C 
ATOM     27  C   UNL     1      34.280 -14.778 -20.447  0.00  0.00    +0.020 C 
ATOM     28  C   UNL     1      34.921 -15.977 -20.717  0.00  0.00    +0.099 C 
ENDBRANCH  22  24
ENDBRANCH  21  22
ENDBRANCH   1  21
TORSDOF 6
ENDMDL
