MODEL 1
REMARK VINA RESULT:     -11.3      0.000      0.000
REMARK  Name = 444581
REMARK  5 active torsions:
REMARK  status: ('A' for Active; 'I' for Inactive)
REMARK    1  A    between atoms: N_2  and  C_7
REMARK    2  A    between atoms: N_3  and  C_20
REMARK    3  A    between atoms: C_8  and  O_13
REMARK    4  A    between atoms: O_13  and  C_14
REMARK    5  A    between atoms: C_21  and  C_28
REMARK                            x       y       z     vdW  Elec       q    Type
REMARK                         _______ _______ _______ _____ _____    ______ ____
ROOT
ATOM      1  O   UNL     1      35.684 -22.418 -18.491  0.00  0.00    -0.252 OA
ATOM      2  N   UNL     1      36.734 -20.331 -18.591  0.00  0.00    -0.268 N 
ATOM      3  N   UNL     1      37.032 -21.665 -16.729  0.00  0.00    -0.268 N 
ATOM      4  C   UNL     1      36.405 -21.559 -17.995  0.00  0.00    +0.308 C 
ATOM      5  H   UNL     1      37.326 -19.743 -18.069  0.00  0.00    +0.156 HD
ATOM      6  H   UNL     1      37.583 -20.897 -16.460  0.00  0.00    +0.156 HD
ENDROOT
BRANCH   2   7
ATOM      7  C   UNL     1      36.318 -19.835 -19.849  0.00  0.00    +0.052 C 
ATOM      8  C   UNL     1      35.505 -18.866 -22.313  0.00  0.00    +0.145 C 
ATOM      9  C   UNL     1      35.027 -20.086 -20.283  0.00  0.00    +0.018 C 
ATOM     10  C   UNL     1      37.211 -19.110 -20.621  0.00  0.00    +0.018 C 
ATOM     11  C   UNL     1      34.617 -19.598 -21.524  0.00  0.00    +0.039 C 
ATOM     12  C   UNL     1      36.801 -18.621 -21.861  0.00  0.00    +0.039 C 
BRANCH   8  13
ATOM     13  O   UNL     1      35.104 -18.388 -23.524  0.00  0.00    -0.453 OA
BRANCH  13  14
ATOM     14  C   UNL     1      34.742 -17.054 -23.601  0.00  0.00    +0.145 C 
ATOM     15  C   UNL     1      35.044 -16.212 -22.548  0.00  0.00    +0.037 C 
ATOM     16  C   UNL     1      34.085 -16.600 -24.731  0.00  0.00    +0.037 C 
ATOM     17  C   UNL     1      34.678 -14.868 -22.626  0.00  0.00    +0.003 C 
ATOM     18  C   UNL     1      33.720 -15.256 -24.809  0.00  0.00    +0.003 C 
ATOM     19  C   UNL     1      34.016 -14.390 -23.756  0.00  0.00    +0.000 C 
ENDBRANCH  13  14
ENDBRANCH   8  13
ENDBRANCH   2   7
BRANCH   3  20
ATOM     20  C   UNL     1      36.970 -22.716 -15.813  0.00  0.00    +0.052 C 
ATOM     21  C   UNL     1      36.846 -24.817 -13.982  0.00  0.00    +0.031 C 
ATOM     22  C   UNL     1      35.733 -23.187 -15.375  0.00  0.00    +0.015 C 
ATOM     23  C   UNL     1      38.146 -23.295 -15.335  0.00  0.00    +0.015 C 
ATOM     24  C   UNL     1      35.670 -24.238 -14.459  0.00  0.00    +0.004 C 
ATOM     25  C   UNL     1      38.084 -24.345 -14.420  0.00  0.00    +0.004 C 
BRANCH  21  28
ATOM     26  N   UNL     1      37.170 -27.204 -13.381  0.00  0.00    -0.343 N 
ATOM     27  N   UNL     1      36.345 -25.693 -11.801  0.00  0.00    -0.285 NA
ATOM     28  C   UNL     1      36.782 -25.913 -13.028  0.00  0.00    +0.117 C 
ATOM     29  H   UNL     1      37.120 -27.931 -12.719  0.00  0.00    +0.144 HD
ATOM     30  H   UNL     1      37.496 -27.389 -14.291  0.00  0.00    +0.144 HD
ATOM     31  H   UNL     1      36.301 -26.433 -11.153  0.00  0.00    +0.188 HD
ENDBRANCH  21  28
ENDBRANCH   3  20
TORSDOF 5
ENDMDL
MODEL 2
REMARK VINA RESULT:     -11.0      6.058     12.273
REMARK  Name = 444581
REMARK  5 active torsions:
REMARK  status: ('A' for Active; 'I' for Inactive)
REMARK    1  A    between atoms: N_2  and  C_7
REMARK    2  A    between atoms: N_3  and  C_20
REMARK    3  A    between atoms: C_8  and  O_13
REMARK    4  A    between atoms: O_13  and  C_14
REMARK    5  A    between atoms: C_21  and  C_28
REMARK                            x       y       z     vdW  Elec       q    Type
REMARK                         _______ _______ _______ _____ _____    ______ ____
ROOT
ATOM      1  O   UNL     1      33.763 -13.349 -21.325  0.00  0.00    -0.252 OA
ATOM      2  N   UNL     1      34.236 -14.520 -23.294  0.00  0.00    -0.268 N 
ATOM      3  N   UNL     1      33.437 -12.356 -23.421  0.00  0.00    -0.268 N 
ATOM      4  C   UNL     1      33.809 -13.408 -22.549  0.00  0.00    +0.308 C 
ATOM      5  H   UNL     1      34.217 -14.415 -24.272  0.00  0.00    +0.156 HD
ATOM      6  H   UNL     1      33.527 -12.545 -24.382  0.00  0.00    +0.156 HD
ENDROOT
BRANCH   2   7
ATOM      7  C   UNL     1      34.689 -15.769 -22.810  0.00  0.00    +0.052 C 
ATOM      8  C   UNL     1      35.575 -18.216 -21.862  0.00  0.00    +0.145 C 
ATOM      9  C   UNL     1      34.818 -16.831 -23.690  0.00  0.00    +0.018 C 
ATOM     10  C   UNL     1      34.995 -15.905 -21.466  0.00  0.00    +0.018 C 
ATOM     11  C   UNL     1      35.263 -18.063 -23.213  0.00  0.00    +0.039 C 
ATOM     12  C   UNL     1      35.441 -17.137 -20.988  0.00  0.00    +0.039 C 
BRANCH   8  13
ATOM     13  O   UNL     1      36.011 -19.419 -21.396  0.00  0.00    -0.453 OA
BRANCH  13  14
ATOM     14  C   UNL     1      35.153 -20.147 -20.590  0.00  0.00    +0.145 C 
ATOM     15  C   UNL     1      35.679 -21.077 -19.712  0.00  0.00    +0.037 C 
ATOM     16  C   UNL     1      33.791 -19.926 -20.686  0.00  0.00    +0.037 C 
ATOM     17  C   UNL     1      34.813 -21.811 -18.901  0.00  0.00    +0.003 C 
ATOM     18  C   UNL     1      32.926 -20.660 -19.874  0.00  0.00    +0.003 C 
ATOM     19  C   UNL     1      33.437 -21.603 -18.981  0.00  0.00    +0.000 C 
ENDBRANCH  13  14
ENDBRANCH   8  13
ENDBRANCH   2   7
BRANCH   3  20
ATOM     20  C   UNL     1      32.960 -11.085 -23.098  0.00  0.00    +0.052 C 
ATOM     21  C   UNL     1      32.005  -8.545 -22.450  0.00  0.00    +0.031 C 
ATOM     22  C   UNL     1      31.728 -10.945 -22.459  0.00  0.00    +0.015 C 
ATOM     23  C   UNL     1      33.715  -9.955 -23.413  0.00  0.00    +0.015 C 
ATOM     24  C   UNL     1      31.250  -9.675 -22.135  0.00  0.00    +0.004 C 
ATOM     25  C   UNL     1      33.238  -8.685 -23.089  0.00  0.00    +0.004 C 
BRANCH  21  28
ATOM     26  N   UNL     1      31.699  -6.677 -20.842  0.00  0.00    -0.343 N 
ATOM     27  N   UNL     1      30.859  -6.510 -23.016  0.00  0.00    -0.285 NA
ATOM     28  C   UNL     1      31.508  -7.220 -22.112  0.00  0.00    +0.117 C 
ATOM     29  H   UNL     1      31.355  -5.779 -20.635  0.00  0.00    +0.144 HD
ATOM     30  H   UNL     1      32.178  -7.192 -20.154  0.00  0.00    +0.144 HD
ATOM     31  H   UNL     1      30.521  -5.614 -22.790  0.00  0.00    +0.188 HD
ENDBRANCH  21  28
ENDBRANCH   3  20
TORSDOF 5
ENDMDL
MODEL 3
REMARK VINA RESULT:     -11.0      1.422      2.258
REMARK  Name = 444581
REMARK  5 active torsions:
REMARK  status: ('A' for Active; 'I' for Inactive)
REMARK    1  A    between atoms: N_2  and  C_7
REMARK    2  A    between atoms: N_3  and  C_20
REMARK    3  A    between atoms: C_8  and  O_13
REMARK    4  A    between atoms: O_13  and  C_14
REMARK    5  A    between atoms: C_21  and  C_28
REMARK                            x       y       z     vdW  Elec       q    Type
REMARK                         _______ _______ _______ _____ _____    ______ ____
ROOT
ATOM      1  O   UNL     1      36.541 -21.306 -16.719  0.00  0.00    -0.252 OA
ATOM      2  N   UNL     1      35.036 -21.933 -18.396  0.00  0.00    -0.268 N 
ATOM      3  N   UNL     1      35.150 -23.172 -16.450  0.00  0.00    -0.268 N 
ATOM      4  C   UNL     1      35.669 -22.055 -17.148  0.00  0.00    +0.308 C 
ATOM      5  H   UNL     1      34.353 -22.612 -18.601  0.00  0.00    +0.156 HD
ATOM      6  H   UNL     1      34.452 -23.683 -16.919  0.00  0.00    +0.156 HD
ENDROOT
BRANCH   2   7
ATOM      7  C   UNL     1      35.261 -20.956 -19.394  0.00  0.00    +0.052 C 
ATOM      8  C   UNL     1      35.699 -19.042 -21.348  0.00  0.00    +0.145 C 
ATOM      9  C   UNL     1      36.538 -20.452 -19.574  0.00  0.00    +0.018 C 
ATOM     10  C   UNL     1      34.198 -20.524 -20.170  0.00  0.00    +0.018 C 
ATOM     11  C   UNL     1      36.759 -19.488 -20.558  0.00  0.00    +0.039 C 
ATOM     12  C   UNL     1      34.419 -19.560 -21.155  0.00  0.00    +0.039 C 
BRANCH   8  13
ATOM     13  O   UNL     1      35.916 -18.102 -22.309  0.00  0.00    -0.453 OA
BRANCH  13  14
ATOM     14  C   UNL     1      35.358 -16.849 -22.120  0.00  0.00    +0.145 C 
ATOM     15  C   UNL     1      35.026 -16.086 -23.224  0.00  0.00    +0.037 C 
ATOM     16  C   UNL     1      35.150 -16.392 -20.831  0.00  0.00    +0.037 C 
ATOM     17  C   UNL     1      34.465 -14.823 -23.034  0.00  0.00    +0.003 C 
ATOM     18  C   UNL     1      34.589 -15.129 -20.641  0.00  0.00    +0.003 C 
ATOM     19  C   UNL     1      34.246 -14.344 -21.742  0.00  0.00    +0.000 C 
ENDBRANCH  13  14
ENDBRANCH   8  13
ENDBRANCH   2   7
BRANCH   3  20
ATOM     20  C   UNL     1      35.499 -23.647 -15.185  0.00  0.00    +0.052 C 
ATOM     21  C   UNL     1      36.194 -24.598 -12.656  0.00  0.00    +0.031 C 
ATOM     22  C   UNL     1      34.569 -23.613 -14.147  0.00  0.00    +0.015 C 
ATOM     23  C   UNL     1      36.777 -24.158 -14.959  0.00  0.00    +0.015 C 
ATOM     24  C   UNL     1      34.916 -24.088 -12.882  0.00  0.00    +0.004 C 
ATOM     25  C   UNL     1      37.126 -24.633 -13.695  0.00  0.00    +0.004 C 
BRANCH  21  28
ATOM     26  N   UNL     1      36.382 -24.315 -10.196  0.00  0.00    -0.343 N 
ATOM     27  N   UNL     1      37.069 -26.306 -11.209  0.00  0.00    -0.285 NA
ATOM     28  C   UNL     1      36.557 -25.095 -11.338  0.00  0.00    +0.117 C 
ATOM     29  H   UNL     1      36.633 -24.672  -9.314  0.00  0.00    +0.144 HD
ATOM     30  H   UNL     1      36.005 -23.410 -10.273  0.00  0.00    +0.144 HD
ATOM     31  H   UNL     1      37.316 -26.644 -10.318  0.00  0.00    +0.188 HD
ENDBRANCH  21  28
ENDBRANCH   3  20
TORSDOF 5
ENDMDL
MODEL 4
REMARK VINA RESULT:     -10.8      7.215     13.560
REMARK  Name = 444581
REMARK  5 active torsions:
REMARK  status: ('A' for Active; 'I' for Inactive)
REMARK    1  A    between atoms: N_2  and  C_7
REMARK    2  A    between atoms: N_3  and  C_20
REMARK    3  A    between atoms: C_8  and  O_13
REMARK    4  A    between atoms: O_13  and  C_14
REMARK    5  A    between atoms: C_21  and  C_28
REMARK                            x       y       z     vdW  Elec       q    Type
REMARK                         _______ _______ _______ _____ _____    ______ ____
ROOT
ATOM      1  O   UNL     1      33.677 -10.942 -23.067  0.00  0.00    -0.252 OA
ATOM      2  N   UNL     1      32.502 -12.676 -22.027  0.00  0.00    -0.268 N 
ATOM      3  N   UNL     1      31.687 -10.517 -21.909  0.00  0.00    -0.268 N 
ATOM      4  C   UNL     1      32.726 -11.341 -22.405  0.00  0.00    +0.308 C 
ATOM      5  H   UNL     1      31.691 -12.842 -21.494  0.00  0.00    +0.156 HD
ATOM      6  H   UNL     1      30.987 -10.977 -21.392  0.00  0.00    +0.156 HD
ENDROOT
BRANCH   2   7
ATOM      7  C   UNL     1      33.298 -13.808 -22.318  0.00  0.00    +0.052 C 
ATOM      8  C   UNL     1      34.855 -16.027 -22.886  0.00  0.00    +0.145 C 
ATOM      9  C   UNL     1      33.345 -14.288 -23.616  0.00  0.00    +0.018 C 
ATOM     10  C   UNL     1      34.013 -14.414 -21.298  0.00  0.00    +0.018 C 
ATOM     11  C   UNL     1      34.129 -15.405 -23.903  0.00  0.00    +0.039 C 
ATOM     12  C   UNL     1      34.797 -15.531 -21.584  0.00  0.00    +0.039 C 
BRANCH   8  13
ATOM     13  O   UNL     1      35.622 -17.117 -23.166  0.00  0.00    -0.453 OA
BRANCH  13  14
ATOM     14  C   UNL     1      35.666 -18.132 -22.226  0.00  0.00    +0.145 C 
ATOM     15  C   UNL     1      36.814 -18.306 -21.475  0.00  0.00    +0.037 C 
ATOM     16  C   UNL     1      34.559 -18.945 -22.062  0.00  0.00    +0.037 C 
ATOM     17  C   UNL     1      36.858 -19.329 -20.528  0.00  0.00    +0.003 C 
ATOM     18  C   UNL     1      34.603 -19.968 -21.114  0.00  0.00    +0.003 C 
ATOM     19  C   UNL     1      35.753 -20.160 -20.347  0.00  0.00    +0.000 C 
ENDBRANCH  13  14
ENDBRANCH   8  13
ENDBRANCH   2   7
BRANCH   3  20
ATOM     20  C   UNL     1      31.524  -9.139 -22.055  0.00  0.00    +0.052 C 
ATOM     21  C   UNL     1      31.201  -6.383 -22.346  0.00  0.00    +0.031 C 
ATOM     22  C   UNL     1      31.885  -8.281 -21.017  0.00  0.00    +0.015 C 
ATOM     23  C   UNL     1      31.002  -8.620 -23.239  0.00  0.00    +0.015 C 
ATOM     24  C   UNL     1      31.723  -6.903 -21.162  0.00  0.00    +0.004 C 
ATOM     25  C   UNL     1      30.839  -7.242 -23.385  0.00  0.00    +0.004 C 
BRANCH  21  28
ATOM     26  N   UNL     1      31.451  -4.059 -21.510  0.00  0.00    -0.343 N 
ATOM     27  N   UNL     1      30.468  -4.463 -23.591  0.00  0.00    -0.285 NA
ATOM     28  C   UNL     1      31.032  -4.947 -22.499  0.00  0.00    +0.117 C 
ATOM     29  H   UNL     1      31.328  -3.091 -21.635  0.00  0.00    +0.144 HD
ATOM     30  H   UNL     1      31.871  -4.400 -20.688  0.00  0.00    +0.144 HD
ATOM     31  H   UNL     1      30.353  -3.491 -23.697  0.00  0.00    +0.188 HD
ENDBRANCH  21  28
ENDBRANCH   3  20
TORSDOF 5
ENDMDL
MODEL 5
REMARK VINA RESULT:     -10.7      7.067     13.685
REMARK  Name = 444581
REMARK  5 active torsions:
REMARK  status: ('A' for Active; 'I' for Inactive)
REMARK    1  A    between atoms: N_2  and  C_7
REMARK    2  A    between atoms: N_3  and  C_20
REMARK    3  A    between atoms: C_8  and  O_13
REMARK    4  A    between atoms: O_13  and  C_14
REMARK    5  A    between atoms: C_21  and  C_28
REMARK                            x       y       z     vdW  Elec       q    Type
REMARK                         _______ _______ _______ _____ _____    ______ ____
ROOT
ATOM      1  O   UNL     1      34.051 -11.203 -23.637  0.00  0.00    -0.252 OA
ATOM      2  N   UNL     1      32.661 -12.856 -22.740  0.00  0.00    -0.268 N 
ATOM      3  N   UNL     1      31.930 -10.665 -22.800  0.00  0.00    -0.268 N 
ATOM      4  C   UNL     1      32.995 -11.544 -23.114  0.00  0.00    +0.308 C 
ATOM      5  H   UNL     1      31.773 -12.974 -22.329  0.00  0.00    +0.156 HD
ATOM      6  H   UNL     1      31.142 -11.081 -22.382  0.00  0.00    +0.156 HD
ENDROOT
BRANCH   2   7
ATOM      7  C   UNL     1      33.441 -14.027 -22.879  0.00  0.00    +0.052 C 
ATOM      8  C   UNL     1      34.969 -16.322 -23.151  0.00  0.00    +0.145 C 
ATOM      9  C   UNL     1      33.480 -14.675 -24.103  0.00  0.00    +0.018 C 
ATOM     10  C   UNL     1      34.150 -14.503 -21.789  0.00  0.00    +0.018 C 
ATOM     11  C   UNL     1      34.250 -15.830 -24.240  0.00  0.00    +0.039 C 
ATOM     12  C   UNL     1      34.920 -15.658 -21.925  0.00  0.00    +0.039 C 
BRANCH   8  13
ATOM     13  O   UNL     1      35.722 -17.448 -23.285  0.00  0.00    -0.453 OA
BRANCH  13  14
ATOM     14  C   UNL     1      35.708 -18.359 -22.243  0.00  0.00    +0.145 C 
ATOM     15  C   UNL     1      34.575 -19.122 -22.029  0.00  0.00    +0.037 C 
ATOM     16  C   UNL     1      36.829 -18.481 -21.441  0.00  0.00    +0.037 C 
ATOM     17  C   UNL     1      34.561 -20.040 -20.978  0.00  0.00    +0.003 C 
ATOM     18  C   UNL     1      36.815 -19.399 -20.391  0.00  0.00    +0.003 C 
ATOM     19  C   UNL     1      35.681 -20.178 -20.159  0.00  0.00    +0.000 C 
ENDBRANCH  13  14
ENDBRANCH   8  13
ENDBRANCH   2   7
BRANCH   3  20
ATOM     20  C   UNL     1      31.850  -9.287 -23.004  0.00  0.00    +0.052 C 
ATOM     21  C   UNL     1      31.687  -6.533 -23.413  0.00  0.00    +0.031 C 
ATOM     22  C   UNL     1      31.943  -8.767 -24.294  0.00  0.00    +0.015 C 
ATOM     23  C   UNL     1      31.674  -8.430 -21.918  0.00  0.00    +0.015 C 
ATOM     24  C   UNL     1      31.863  -7.390 -24.500  0.00  0.00    +0.004 C 
ATOM     25  C   UNL     1      31.593  -7.053 -22.122  0.00  0.00    +0.004 C 
BRANCH  21  28
ATOM     26  N   UNL     1      30.426  -4.394 -23.363  0.00  0.00    -0.343 N 
ATOM     27  N   UNL     1      32.649  -4.434 -24.082  0.00  0.00    -0.285 NA
ATOM     28  C   UNL     1      31.601  -5.096 -23.626  0.00  0.00    +0.117 C 
ATOM     29  H   UNL     1      30.391  -3.422 -23.513  0.00  0.00    +0.144 HD
ATOM     30  H   UNL     1      29.634  -4.869 -23.025  0.00  0.00    +0.144 HD
ATOM     31  H   UNL     1      32.594  -3.463 -24.226  0.00  0.00    +0.188 HD
ENDBRANCH  21  28
ENDBRANCH   3  20
TORSDOF 5
ENDMDL
MODEL 6
REMARK VINA RESULT:     -10.7      2.986      3.588
REMARK  Name = 444581
REMARK  5 active torsions:
REMARK  status: ('A' for Active; 'I' for Inactive)
REMARK    1  A    between atoms: N_2  and  C_7
REMARK    2  A    between atoms: N_3  and  C_20
REMARK    3  A    between atoms: C_8  and  O_13
REMARK    4  A    between atoms: O_13  and  C_14
REMARK    5  A    between atoms: C_21  and  C_28
REMARK                            x       y       z     vdW  Elec       q    Type
REMARK                         _______ _______ _______ _____ _____    ______ ____
ROOT
ATOM      1  O   UNL     1      32.713 -21.280 -18.625  0.00  0.00    -0.252 OA
ATOM      2  N   UNL     1      35.029 -21.329 -18.941  0.00  0.00    -0.268 N 
ATOM      3  N   UNL     1      34.089 -22.558 -17.226  0.00  0.00    -0.268 N 
ATOM      4  C   UNL     1      33.827 -21.677 -18.303  0.00  0.00    +0.308 C 
ATOM      5  H   UNL     1      35.847 -21.729 -18.566  0.00  0.00    +0.156 HD
ATOM      6  H   UNL     1      35.035 -22.791 -17.084  0.00  0.00    +0.156 HD
ENDROOT
BRANCH   2   7
ATOM      7  C   UNL     1      35.208 -20.476 -20.055  0.00  0.00    +0.052 C 
ATOM      8  C   UNL     1      35.557 -18.803 -22.235  0.00  0.00    +0.145 C 
ATOM      9  C   UNL     1      36.414 -19.813 -20.215  0.00  0.00    +0.018 C 
ATOM     10  C   UNL     1      34.174 -20.319 -20.962  0.00  0.00    +0.018 C 
ATOM     11  C   UNL     1      36.590 -18.971 -21.312  0.00  0.00    +0.039 C 
ATOM     12  C   UNL     1      34.349 -19.477 -22.060  0.00  0.00    +0.039 C 
BRANCH   8  13
ATOM     13  O   UNL     1      35.730 -17.982 -23.307  0.00  0.00    -0.453 OA
BRANCH  13  14
ATOM     14  C   UNL     1      35.062 -16.769 -23.303  0.00  0.00    +0.145 C 
ATOM     15  C   UNL     1      35.091 -15.987 -22.164  0.00  0.00    +0.037 C 
ATOM     16  C   UNL     1      34.381 -16.373 -24.440  0.00  0.00    +0.037 C 
ATOM     17  C   UNL     1      34.417 -14.766 -22.160  0.00  0.00    +0.003 C 
ATOM     18  C   UNL     1      33.707 -15.152 -24.436  0.00  0.00    +0.003 C 
ATOM     19  C   UNL     1      33.725 -14.347 -23.296  0.00  0.00    +0.000 C 
ENDBRANCH  13  14
ENDBRANCH   8  13
ENDBRANCH   2   7
BRANCH   3  20
ATOM     20  C   UNL     1      33.184 -23.141 -16.338  0.00  0.00    +0.052 C 
ATOM     21  C   UNL     1      31.374 -24.307 -14.564  0.00  0.00    +0.031 C 
ATOM     22  C   UNL     1      31.816 -23.090 -16.604  0.00  0.00    +0.015 C 
ATOM     23  C   UNL     1      33.647 -23.775 -15.185  0.00  0.00    +0.015 C 
ATOM     24  C   UNL     1      30.910 -23.673 -15.717  0.00  0.00    +0.004 C 
ATOM     25  C   UNL     1      32.743 -24.358 -14.298  0.00  0.00    +0.004 C 
BRANCH  21  28
ATOM     26  N   UNL     1      29.262 -25.526 -14.093  0.00  0.00    -0.343 N 
ATOM     27  N   UNL     1      30.673 -24.893 -12.342  0.00  0.00    -0.285 NA
ATOM     28  C   UNL     1      30.430 -24.916 -13.639  0.00  0.00    +0.117 C 
ATOM     29  H   UNL     1      28.638 -25.932 -13.450  0.00  0.00    +0.144 HD
ATOM     30  H   UNL     1      29.062 -25.550 -15.056  0.00  0.00    +0.144 HD
ATOM     31  H   UNL     1      30.037 -25.304 -11.713  0.00  0.00    +0.188 HD
ENDBRANCH  21  28
ENDBRANCH   3  20
TORSDOF 5
ENDMDL
MODEL 7
REMARK VINA RESULT:     -10.7      2.981      3.694
REMARK  Name = 444581
REMARK  5 active torsions:
REMARK  status: ('A' for Active; 'I' for Inactive)
REMARK    1  A    between atoms: N_2  and  C_7
REMARK    2  A    between atoms: N_3  and  C_20
REMARK    3  A    between atoms: C_8  and  O_13
REMARK    4  A    between atoms: O_13  and  C_14
REMARK    5  A    between atoms: C_21  and  C_28
REMARK                            x       y       z     vdW  Elec       q    Type
REMARK                         _______ _______ _______ _____ _____    ______ ____
ROOT
ATOM      1  O   UNL     1      32.718 -21.281 -18.624  0.00  0.00    -0.252 OA
ATOM      2  N   UNL     1      35.036 -21.325 -18.937  0.00  0.00    -0.268 N 
ATOM      3  N   UNL     1      34.096 -22.555 -17.223  0.00  0.00    -0.268 N 
ATOM      4  C   UNL     1      33.834 -21.675 -18.300  0.00  0.00    +0.308 C 
ATOM      5  H   UNL     1      35.854 -21.723 -18.561  0.00  0.00    +0.156 HD
ATOM      6  H   UNL     1      35.041 -22.786 -17.080  0.00  0.00    +0.156 HD
ENDROOT
BRANCH   2   7
ATOM      7  C   UNL     1      35.214 -20.472 -20.051  0.00  0.00    +0.052 C 
ATOM      8  C   UNL     1      35.565 -18.802 -22.233  0.00  0.00    +0.145 C 
ATOM      9  C   UNL     1      34.178 -20.313 -20.956  0.00  0.00    +0.018 C 
ATOM     10  C   UNL     1      36.421 -19.813 -20.214  0.00  0.00    +0.018 C 
ATOM     11  C   UNL     1      34.354 -19.472 -22.055  0.00  0.00    +0.039 C 
ATOM     12  C   UNL     1      36.598 -18.972 -21.312  0.00  0.00    +0.039 C 
BRANCH   8  13
ATOM     13  O   UNL     1      35.736 -17.980 -23.305  0.00  0.00    -0.453 OA
BRANCH  13  14
ATOM     14  C   UNL     1      35.066 -16.768 -23.300  0.00  0.00    +0.145 C 
ATOM     15  C   UNL     1      34.378 -16.374 -24.432  0.00  0.00    +0.037 C 
ATOM     16  C   UNL     1      35.105 -15.983 -22.162  0.00  0.00    +0.037 C 
ATOM     17  C   UNL     1      33.704 -15.153 -24.428  0.00  0.00    +0.003 C 
ATOM     18  C   UNL     1      34.430 -14.762 -22.157  0.00  0.00    +0.003 C 
ATOM     19  C   UNL     1      33.730 -14.347 -23.290  0.00  0.00    +0.000 C 
ENDBRANCH  13  14
ENDBRANCH   8  13
ENDBRANCH   2   7
BRANCH   3  20
ATOM     20  C   UNL     1      33.191 -23.140 -16.335  0.00  0.00    +0.052 C 
ATOM     21  C   UNL     1      31.382 -24.305 -14.559  0.00  0.00    +0.031 C 
ATOM     22  C   UNL     1      33.653 -23.755 -15.172  0.00  0.00    +0.015 C 
ATOM     23  C   UNL     1      31.824 -23.106 -16.610  0.00  0.00    +0.015 C 
ATOM     24  C   UNL     1      32.749 -24.338 -14.284  0.00  0.00    +0.004 C 
ATOM     25  C   UNL     1      30.919 -23.689 -15.723  0.00  0.00    +0.004 C 
BRANCH  21  28
ATOM     26  N   UNL     1      29.266 -25.515 -14.086  0.00  0.00    -0.343 N 
ATOM     27  N   UNL     1      30.685 -24.895 -12.337  0.00  0.00    -0.285 NA
ATOM     28  C   UNL     1      30.438 -24.912 -13.634  0.00  0.00    +0.117 C 
ATOM     29  H   UNL     1      28.642 -25.920 -13.443  0.00  0.00    +0.144 HD
ATOM     30  H   UNL     1      29.063 -25.535 -15.049  0.00  0.00    +0.144 HD
ATOM     31  H   UNL     1      30.048 -25.304 -11.708  0.00  0.00    +0.188 HD
ENDBRANCH  21  28
ENDBRANCH   3  20
TORSDOF 5
ENDMDL
MODEL 8
REMARK VINA RESULT:     -10.7      2.431      3.137
REMARK  Name = 444581
REMARK  5 active torsions:
REMARK  status: ('A' for Active; 'I' for Inactive)
REMARK    1  A    between atoms: N_2  and  C_7
REMARK    2  A    between atoms: N_3  and  C_20
REMARK    3  A    between atoms: C_8  and  O_13
REMARK    4  A    between atoms: O_13  and  C_14
REMARK    5  A    between atoms: C_21  and  C_28
REMARK                            x       y       z     vdW  Elec       q    Type
REMARK                         _______ _______ _______ _____ _____    ______ ____
ROOT
ATOM      1  O   UNL     1      33.190 -20.553 -19.137  0.00  0.00    -0.252 OA
ATOM      2  N   UNL     1      35.317 -20.723 -20.093  0.00  0.00    -0.268 N 
ATOM      3  N   UNL     1      34.777 -22.046 -18.278  0.00  0.00    -0.268 N 
ATOM      4  C   UNL     1      34.310 -21.050 -19.170  0.00  0.00    +0.308 C 
ATOM      5  H   UNL     1      36.168 -21.209 -19.993  0.00  0.00    +0.156 HD
ATOM      6  H   UNL     1      35.700 -22.352 -18.424  0.00  0.00    +0.156 HD
ENDROOT
BRANCH   2   7
ATOM      7  C   UNL     1      35.260 -19.781 -21.146  0.00  0.00    +0.052 C 
ATOM      8  C   UNL     1      35.149 -17.936 -23.210  0.00  0.00    +0.145 C 
ATOM      9  C   UNL     1      34.402 -20.005 -22.210  0.00  0.00    +0.018 C 
ATOM     10  C   UNL     1      36.063 -18.654 -21.092  0.00  0.00    +0.018 C 
ATOM     11  C   UNL     1      34.346 -19.077 -23.250  0.00  0.00    +0.039 C 
ATOM     12  C   UNL     1      36.007 -17.724 -22.131  0.00  0.00    +0.039 C 
BRANCH   8  13
ATOM     13  O   UNL     1      35.094 -17.029 -24.224  0.00  0.00    -0.453 OA
BRANCH  13  14
ATOM     14  C   UNL     1      34.502 -15.805 -23.960  0.00  0.00    +0.145 C 
ATOM     15  C   UNL     1      33.602 -15.282 -24.870  0.00  0.00    +0.037 C 
ATOM     16  C   UNL     1      34.827 -15.138 -22.793  0.00  0.00    +0.037 C 
ATOM     17  C   UNL     1      33.007 -14.049 -24.605  0.00  0.00    +0.003 C 
ATOM     18  C   UNL     1      34.231 -13.905 -22.528  0.00  0.00    +0.003 C 
ATOM     19  C   UNL     1      33.321 -13.360 -23.434  0.00  0.00    +0.000 C 
ENDBRANCH  13  14
ENDBRANCH   8  13
ENDBRANCH   2   7
BRANCH   3  20
ATOM     20  C   UNL     1      34.101 -22.650 -17.217  0.00  0.00    +0.052 C 
ATOM     21  C   UNL     1      32.749 -23.860 -15.097  0.00  0.00    +0.031 C 
ATOM     22  C   UNL     1      32.715 -22.792 -17.264  0.00  0.00    +0.015 C 
ATOM     23  C   UNL     1      34.812 -23.113 -16.110  0.00  0.00    +0.015 C 
ATOM     24  C   UNL     1      32.038 -23.396 -16.204  0.00  0.00    +0.004 C 
ATOM     25  C   UNL     1      34.137 -23.718 -15.050  0.00  0.00    +0.004 C 
BRANCH  21  28
ATOM     26  N   UNL     1      30.653 -24.543 -13.955  0.00  0.00    -0.343 N 
ATOM     27  N   UNL     1      32.728 -25.025 -12.996  0.00  0.00    -0.285 NA
ATOM     28  C   UNL     1      32.045 -24.491 -13.992  0.00  0.00    +0.117 C 
ATOM     29  H   UNL     1      30.197 -24.976 -13.198  0.00  0.00    +0.144 HD
ATOM     30  H   UNL     1      30.127 -24.148 -14.687  0.00  0.00    +0.144 HD
ATOM     31  H   UNL     1      32.255 -25.453 -12.247  0.00  0.00    +0.188 HD
ENDBRANCH  21  28
ENDBRANCH   3  20
TORSDOF 5
ENDMDL
MODEL 9
REMARK VINA RESULT:     -10.6      3.032     10.886
REMARK  Name = 444581
REMARK  5 active torsions:
REMARK  status: ('A' for Active; 'I' for Inactive)
REMARK    1  A    between atoms: N_2  and  C_7
REMARK    2  A    between atoms: N_3  and  C_20
REMARK    3  A    between atoms: C_8  and  O_13
REMARK    4  A    between atoms: O_13  and  C_14
REMARK    5  A    between atoms: C_21  and  C_28
REMARK                            x       y       z     vdW  Elec       q    Type
REMARK                         _______ _______ _______ _____ _____    ______ ____
ROOT
ATOM      1  O   UNL     1      34.020 -19.569 -19.794  0.00  0.00    -0.252 OA
ATOM      2  N   UNL     1      35.895 -20.963 -19.674  0.00  0.00    -0.268 N 
ATOM      3  N   UNL     1      35.716 -19.442 -21.403  0.00  0.00    -0.268 N 
ATOM      4  C   UNL     1      35.096 -19.954 -20.239  0.00  0.00    +0.308 C 
ATOM      5  H   UNL     1      36.735 -21.162 -20.146  0.00  0.00    +0.156 HD
ATOM      6  H   UNL     1      36.581 -19.847 -21.641  0.00  0.00    +0.156 HD
ENDROOT
BRANCH   2   7
ATOM      7  C   UNL     1      35.639 -21.726 -18.511  0.00  0.00    +0.052 C 
ATOM      8  C   UNL     1      35.139 -23.219 -16.232  0.00  0.00    +0.145 C 
ATOM      9  C   UNL     1      34.453 -22.434 -18.411  0.00  0.00    +0.018 C 
ATOM     10  C   UNL     1      36.580 -21.749 -17.495  0.00  0.00    +0.018 C 
ATOM     11  C   UNL     1      34.201 -23.186 -17.264  0.00  0.00    +0.039 C 
ATOM     12  C   UNL     1      36.329 -22.501 -16.347  0.00  0.00    +0.039 C 
BRANCH   8  13
ATOM     13  O   UNL     1      34.893 -23.954 -15.113  0.00  0.00    -0.453 OA
BRANCH  13  14
ATOM     14  C   UNL     1      35.951 -24.654 -14.558  0.00  0.00    +0.145 C 
ATOM     15  C   UNL     1      36.763 -24.027 -13.631  0.00  0.00    +0.037 C 
ATOM     16  C   UNL     1      36.169 -25.964 -14.946  0.00  0.00    +0.037 C 
ATOM     17  C   UNL     1      37.829 -24.732 -13.072  0.00  0.00    +0.003 C 
ATOM     18  C   UNL     1      37.235 -26.669 -14.387  0.00  0.00    +0.003 C 
ATOM     19  C   UNL     1      38.065 -26.053 -13.450  0.00  0.00    +0.000 C 
ENDBRANCH  13  14
ENDBRANCH   8  13
ENDBRANCH   2   7
BRANCH   3  20
ATOM     20  C   UNL     1      35.265 -18.437 -22.260  0.00  0.00    +0.052 C 
ATOM     21  C   UNL     1      34.359 -16.430 -23.973  0.00  0.00    +0.031 C 
ATOM     22  C   UNL     1      34.659 -18.773 -23.470  0.00  0.00    +0.015 C 
ATOM     23  C   UNL     1      35.417 -17.097 -21.906  0.00  0.00    +0.015 C 
ATOM     24  C   UNL     1      34.206 -17.770 -24.327  0.00  0.00    +0.004 C 
ATOM     25  C   UNL     1      34.965 -16.093 -22.761  0.00  0.00    +0.004 C 
BRANCH  21  28
ATOM     26  N   UNL     1      34.198 -14.043 -24.638  0.00  0.00    -0.343 N 
ATOM     27  N   UNL     1      33.144 -15.694 -25.911  0.00  0.00    -0.285 NA
ATOM     28  C   UNL     1      33.887 -15.382 -24.865  0.00  0.00    +0.117 C 
ATOM     29  H   UNL     1      33.869 -13.351 -25.255  0.00  0.00    +0.144 HD
ATOM     30  H   UNL     1      34.748 -13.790 -23.862  0.00  0.00    +0.144 HD
ATOM     31  H   UNL     1      32.823 -14.988 -26.516  0.00  0.00    +0.188 HD
ENDBRANCH  21  28
ENDBRANCH   3  20
TORSDOF 5
ENDMDL
