MODEL 1
REMARK VINA RESULT:     -11.2      0.000      0.000
REMARK  Name = 449162
REMARK  12 active torsions:
REMARK  status: ('A' for Active; 'I' for Inactive)
REMARK    1  A    between atoms: C_1  and  C_9
REMARK    2  A    between atoms: C_3  and  C_19
REMARK    3  A    between atoms: C_10  and  C_16
REMARK    4  A    between atoms: C_11  and  C_13
REMARK    5  A    between atoms: C_13  and  O_14
REMARK    6  A    between atoms: C_16  and  O_17
REMARK    7  A    between atoms: C_20  and  C_21
REMARK    8  A    between atoms: C_21  and  O_22
REMARK    9  A    between atoms: O_22  and  C_23
REMARK   10  A    between atoms: C_24  and  C_32
REMARK   11  A    between atoms: C_25  and  O_29
REMARK   12  A    between atoms: C_32  and  O_33
REMARK                            x       y       z     vdW  Elec       q    Type
REMARK                         _______ _______ _______ _____ _____    ______ ____
ROOT
ATOM      1  C   UNL     1      35.444 -18.446 -21.938  0.00  0.00    +0.037 C 
ATOM      2  C   UNL     1      34.599 -19.319 -21.253  0.00  0.00    +0.003 C 
ATOM      3  C   UNL     1      35.114 -20.158 -20.266  0.00  0.00    -0.000 C 
ATOM      4  C   UNL     1      36.805 -18.412 -21.635  0.00  0.00    +0.003 C 
ATOM      5  C   UNL     1      36.476 -20.125 -19.962  0.00  0.00    -0.000 C 
ATOM      6  C   UNL     1      37.321 -19.252 -20.647  0.00  0.00    +0.000 C 
ENDROOT
BRANCH   1   9
ATOM      7  O   UNL     1      34.569 -18.194 -24.117  0.00  0.00    -0.353 OA
ATOM      8  N   UNL     1      34.077 -17.245 -25.005  0.00  0.00    -0.071 NA
ATOM      9  C   UNL     1      34.913 -17.578 -22.960  0.00  0.00    +0.175 A 
ATOM     10  C   UNL     1      34.664 -16.240 -23.048  0.00  0.00    +0.071 A 
ATOM     11  C   UNL     1      34.143 -16.086 -24.344  0.00  0.00    +0.196 A 
BRANCH  11  13
ATOM     12  O   UNL     1      33.619 -13.770 -24.433  0.00  0.00    -0.243 OA
ATOM     13  C   UNL     1      33.703 -14.878 -24.983  0.00  0.00    +0.359 C 
BRANCH  13  14
ATOM     14  O   UNL     1      33.361 -15.013 -26.305  0.00  0.00    -0.476 OA
ATOM     15  H   UNL     1      33.992 -15.327 -26.922  0.00  0.00    +0.295 HD
ENDBRANCH  13  14
ENDBRANCH  11  13
BRANCH  10  16
ATOM     16  C   UNL     1      34.890 -15.203 -22.026  0.00  0.00    +0.169 C 
BRANCH  16  17
ATOM     17  O   UNL     1      33.669 -14.624 -21.551  0.00  0.00    -0.377 OA
ATOM     18  H   UNL     1      33.352 -15.125 -20.782  0.00  0.00    +0.211 HD
ENDBRANCH  16  17
ENDBRANCH  10  16
ENDBRANCH   1   9
BRANCH   3  19
ATOM     19  C   UNL     1      34.232 -21.068 -19.552  0.00  0.00    -0.001 C 
ATOM     20  C   UNL     1      34.622 -22.074 -18.737  0.00  0.00    +0.021 C 
BRANCH  20  21
ATOM     21  C   UNL     1      33.675 -22.975 -18.012  0.00  0.00    +0.232 C 
BRANCH  21  22
ATOM     22  O   UNL     1      34.354 -23.561 -16.909  0.00  0.00    -0.470 OA
BRANCH  22  23
ATOM     23  C   UNL     1      33.679 -23.603 -15.718  0.00  0.00    +0.148 C 
ATOM     24  C   UNL     1      34.272 -24.148 -14.585  0.00  0.00    +0.143 C 
ATOM     25  C   UNL     1      33.566 -24.180 -13.382  0.00  0.00    +0.143 C 
ATOM     26  C   UNL     1      32.387 -23.090 -15.662  0.00  0.00    +0.037 C 
ATOM     27  C   UNL     1      32.270 -23.668 -13.320  0.00  0.00    +0.037 C 
ATOM     28  C   UNL     1      31.681 -23.123 -14.460  0.00  0.00    +0.006 C 
BRANCH  25  29
ATOM     29  O   UNL     1      34.124 -24.708 -12.255  0.00  0.00    -0.505 OA
ATOM     30  H   UNL     1      34.771 -25.382 -12.324  0.00  0.00    +0.292 HD
ENDBRANCH  25  29
BRANCH  24  32
ATOM     31  O   UNL     1      35.918 -25.788 -15.121  0.00  0.00    -0.245 OA
ATOM     32  C   UNL     1      35.628 -24.684 -14.649  0.00  0.00    +0.347 C 
BRANCH  32  33
ATOM     33  O   UNL     1      36.535 -23.808 -14.122  0.00  0.00    -0.441 OA
ATOM     34  C   UNL     1      37.521 -23.286 -15.019  0.00  0.00    +0.256 C 
ENDBRANCH  32  33
ENDBRANCH  24  32
ENDBRANCH  22  23
ENDBRANCH  21  22
ENDBRANCH  20  21
ENDBRANCH   3  19
TORSDOF 12
ENDMDL
MODEL 2
REMARK VINA RESULT:     -10.9      0.906      1.555
REMARK  Name = 449162
REMARK  12 active torsions:
REMARK  status: ('A' for Active; 'I' for Inactive)
REMARK    1  A    between atoms: C_1  and  C_9
REMARK    2  A    between atoms: C_3  and  C_19
REMARK    3  A    between atoms: C_10  and  C_16
REMARK    4  A    between atoms: C_11  and  C_13
REMARK    5  A    between atoms: C_13  and  O_14
REMARK    6  A    between atoms: C_16  and  O_17
REMARK    7  A    between atoms: C_20  and  C_21
REMARK    8  A    between atoms: C_21  and  O_22
REMARK    9  A    between atoms: O_22  and  C_23
REMARK   10  A    between atoms: C_24  and  C_32
REMARK   11  A    between atoms: C_25  and  O_29
REMARK   12  A    between atoms: C_32  and  O_33
REMARK                            x       y       z     vdW  Elec       q    Type
REMARK                         _______ _______ _______ _____ _____    ______ ____
ROOT
ATOM      1  C   UNL     1      35.594 -18.205 -21.599  0.00  0.00    +0.037 C 
ATOM      2  C   UNL     1      34.716 -19.082 -20.963  0.00  0.00    +0.003 C 
ATOM      3  C   UNL     1      35.214 -20.125 -20.183  0.00  0.00    -0.000 C 
ATOM      4  C   UNL     1      36.972 -18.370 -21.454  0.00  0.00    +0.003 C 
ATOM      5  C   UNL     1      36.592 -20.291 -20.037  0.00  0.00    -0.000 C 
ATOM      6  C   UNL     1      37.470 -19.413 -20.673  0.00  0.00    +0.000 C 
ENDROOT
BRANCH   1   9
ATOM      7  O   UNL     1      35.167 -15.895 -21.846  0.00  0.00    -0.353 OA
ATOM      8  N   UNL     1      34.639 -14.960 -22.727  0.00  0.00    -0.071 NA
ATOM      9  C   UNL     1      35.080 -17.126 -22.407  0.00  0.00    +0.175 A 
ATOM     10  C   UNL     1      34.507 -17.041 -23.642  0.00  0.00    +0.071 A 
ATOM     11  C   UNL     1      34.251 -15.667 -23.792  0.00  0.00    +0.196 A 
BRANCH  11  13
ATOM     12  O   UNL     1      33.370 -15.529 -25.994  0.00  0.00    -0.243 OA
ATOM     13  C   UNL     1      33.652 -14.997 -24.911  0.00  0.00    +0.359 C 
BRANCH  13  14
ATOM     14  O   UNL     1      33.391 -13.663 -24.715  0.00  0.00    -0.476 OA
ATOM     15  H   UNL     1      33.236 -13.338 -23.850  0.00  0.00    +0.295 HD
ENDBRANCH  13  14
ENDBRANCH  11  13
BRANCH  10  16
ATOM     16  C   UNL     1      34.223 -18.131 -24.591  0.00  0.00    +0.169 C 
BRANCH  16  17
ATOM     17  O   UNL     1      32.880 -18.093 -25.086  0.00  0.00    -0.377 OA
ATOM     18  H   UNL     1      32.628 -18.973 -25.407  0.00  0.00    +0.211 HD
ENDBRANCH  16  17
ENDBRANCH  10  16
ENDBRANCH   1   9
BRANCH   3  19
ATOM     19  C   UNL     1      34.297 -21.039 -19.520  0.00  0.00    -0.001 C 
ATOM     20  C   UNL     1      34.647 -22.067 -18.715  0.00  0.00    +0.021 C 
BRANCH  20  21
ATOM     21  C   UNL     1      33.665 -22.972 -18.042  0.00  0.00    +0.232 C 
BRANCH  21  22
ATOM     22  O   UNL     1      34.304 -23.601 -16.939  0.00  0.00    -0.470 OA
BRANCH  22  23
ATOM     23  C   UNL     1      33.615 -23.621 -15.755  0.00  0.00    +0.148 C 
ATOM     24  C   UNL     1      34.191 -24.158 -14.609  0.00  0.00    +0.143 C 
ATOM     25  C   UNL     1      33.471 -24.168 -13.413  0.00  0.00    +0.143 C 
ATOM     26  C   UNL     1      32.328 -23.096 -15.720  0.00  0.00    +0.037 C 
ATOM     27  C   UNL     1      32.180 -23.643 -13.372  0.00  0.00    +0.037 C 
ATOM     28  C   UNL     1      31.609 -23.107 -14.525  0.00  0.00    +0.006 C 
BRANCH  25  29
ATOM     29  O   UNL     1      34.012 -24.686 -12.274  0.00  0.00    -0.505 OA
ATOM     30  H   UNL     1      33.498 -25.242 -11.722  0.00  0.00    +0.292 HD
ENDBRANCH  25  29
BRANCH  24  32
ATOM     31  O   UNL     1      35.835 -25.794 -15.159  0.00  0.00    -0.245 OA
ATOM     32  C   UNL     1      35.542 -24.707 -14.652  0.00  0.00    +0.347 C 
BRANCH  32  33
ATOM     33  O   UNL     1      36.442 -23.865 -14.060  0.00  0.00    -0.441 OA
ATOM     34  C   UNL     1      37.373 -23.208 -14.925  0.00  0.00    +0.256 C 
ENDBRANCH  32  33
ENDBRANCH  24  32
ENDBRANCH  22  23
ENDBRANCH  21  22
ENDBRANCH  20  21
ENDBRANCH   3  19
TORSDOF 12
ENDMDL
MODEL 3
REMARK VINA RESULT:     -10.7      2.473      3.623
REMARK  Name = 449162
REMARK  12 active torsions:
REMARK  status: ('A' for Active; 'I' for Inactive)
REMARK    1  A    between atoms: C_1  and  C_9
REMARK    2  A    between atoms: C_3  and  C_19
REMARK    3  A    between atoms: C_10  and  C_16
REMARK    4  A    between atoms: C_11  and  C_13
REMARK    5  A    between atoms: C_13  and  O_14
REMARK    6  A    between atoms: C_16  and  O_17
REMARK    7  A    between atoms: C_20  and  C_21
REMARK    8  A    between atoms: C_21  and  O_22
REMARK    9  A    between atoms: O_22  and  C_23
REMARK   10  A    between atoms: C_24  and  C_32
REMARK   11  A    between atoms: C_25  and  O_29
REMARK   12  A    between atoms: C_32  and  O_33
REMARK                            x       y       z     vdW  Elec       q    Type
REMARK                         _______ _______ _______ _____ _____    ______ ____
ROOT
ATOM      1  C   UNL     1      34.651 -19.882 -20.391  0.00  0.00    +0.037 C 
ATOM      2  C   UNL     1      35.696 -20.312 -19.573  0.00  0.00    +0.003 C 
ATOM      3  C   UNL     1      35.515 -21.404 -18.726  0.00  0.00    -0.000 C 
ATOM      4  C   UNL     1      33.425 -20.547 -20.362  0.00  0.00    +0.003 C 
ATOM      5  C   UNL     1      34.290 -22.069 -18.696  0.00  0.00    -0.000 C 
ATOM      6  C   UNL     1      33.244 -21.640 -19.513  0.00  0.00    +0.000 C 
ENDROOT
BRANCH   1   9
ATOM      7  O   UNL     1      35.182 -17.596 -20.651  0.00  0.00    -0.353 OA
ATOM      8  N   UNL     1      35.325 -16.600 -21.608  0.00  0.00    -0.071 NA
ATOM      9  C   UNL     1      34.836 -18.752 -21.268  0.00  0.00    +0.175 A 
ATOM     10  C   UNL     1      34.743 -18.558 -22.614  0.00  0.00    +0.071 A 
ATOM     11  C   UNL     1      35.058 -17.197 -22.773  0.00  0.00    +0.196 A 
BRANCH  11  13
ATOM     12  O   UNL     1      34.671 -16.812 -25.085  0.00  0.00    -0.243 OA
ATOM     13  C   UNL     1      35.117 -16.439 -23.990  0.00  0.00    +0.359 C 
BRANCH  13  14
ATOM     14  O   UNL     1      35.724 -15.213 -23.881  0.00  0.00    -0.476 OA
ATOM     15  H   UNL     1      35.749 -14.635 -24.618  0.00  0.00    +0.295 HD
ENDBRANCH  13  14
ENDBRANCH  11  13
BRANCH  10  16
ATOM     16  C   UNL     1      34.393 -19.540 -23.655  0.00  0.00    +0.169 C 
BRANCH  16  17
ATOM     17  O   UNL     1      33.271 -19.129 -24.444  0.00  0.00    -0.377 OA
ATOM     18  H   UNL     1      32.576 -19.804 -24.395  0.00  0.00    +0.211 HD
ENDBRANCH  16  17
ENDBRANCH  10  16
ENDBRANCH   1   9
BRANCH   3  19
ATOM     19  C   UNL     1      36.606 -21.851 -17.873  0.00  0.00    -0.001 C 
ATOM     20  C   UNL     1      36.533 -22.070 -16.541  0.00  0.00    +0.021 C 
BRANCH  20  21
ATOM     21  C   UNL     1      37.680 -22.545 -15.708  0.00  0.00    +0.232 C 
BRANCH  21  22
ATOM     22  O   UNL     1      37.456 -23.903 -15.353  0.00  0.00    -0.470 OA
BRANCH  22  23
ATOM     23  C   UNL     1      37.125 -24.154 -14.048  0.00  0.00    +0.148 C 
ATOM     24  C   UNL     1      37.264 -25.431 -13.514  0.00  0.00    +0.143 C 
ATOM     25  C   UNL     1      36.920 -25.664 -12.182  0.00  0.00    +0.143 C 
ATOM     26  C   UNL     1      36.645 -23.109 -13.265  0.00  0.00    +0.037 C 
ATOM     27  C   UNL     1      36.438 -24.620 -11.392  0.00  0.00    +0.037 C 
ATOM     28  C   UNL     1      36.301 -23.343 -11.934  0.00  0.00    +0.006 C 
BRANCH  25  29
ATOM     29  O   UNL     1      37.047 -26.905 -11.632  0.00  0.00    -0.505 OA
ATOM     30  H   UNL     1      36.750 -27.064 -10.758  0.00  0.00    +0.292 HD
ENDBRANCH  25  29
BRANCH  24  32
ATOM     31  O   UNL     1      37.159 -27.009 -15.298  0.00  0.00    -0.245 OA
ATOM     32  C   UNL     1      37.768 -26.523 -14.339  0.00  0.00    +0.347 C 
BRANCH  32  33
ATOM     33  O   UNL     1      39.000 -26.939 -13.917  0.00  0.00    -0.441 OA
ATOM     34  C   UNL     1      40.113 -26.111 -14.268  0.00  0.00    +0.256 C 
ENDBRANCH  32  33
ENDBRANCH  24  32
ENDBRANCH  22  23
ENDBRANCH  21  22
ENDBRANCH  20  21
ENDBRANCH   3  19
TORSDOF 12
ENDMDL
MODEL 4
REMARK VINA RESULT:     -10.4      1.477      2.657
REMARK  Name = 449162
REMARK  12 active torsions:
REMARK  status: ('A' for Active; 'I' for Inactive)
REMARK    1  A    between atoms: C_1  and  C_9
REMARK    2  A    between atoms: C_3  and  C_19
REMARK    3  A    between atoms: C_10  and  C_16
REMARK    4  A    between atoms: C_11  and  C_13
REMARK    5  A    between atoms: C_13  and  O_14
REMARK    6  A    between atoms: C_16  and  O_17
REMARK    7  A    between atoms: C_20  and  C_21
REMARK    8  A    between atoms: C_21  and  O_22
REMARK    9  A    between atoms: O_22  and  C_23
REMARK   10  A    between atoms: C_24  and  C_32
REMARK   11  A    between atoms: C_25  and  O_29
REMARK   12  A    between atoms: C_32  and  O_33
REMARK                            x       y       z     vdW  Elec       q    Type
REMARK                         _______ _______ _______ _____ _____    ______ ____
ROOT
ATOM      1  C   UNL     1      35.430 -18.720 -21.711  0.00  0.00    +0.037 C 
ATOM      2  C   UNL     1      34.577 -19.622 -21.075  0.00  0.00    +0.003 C 
ATOM      3  C   UNL     1      35.065 -20.446 -20.061  0.00  0.00    -0.000 C 
ATOM      4  C   UNL     1      36.770 -18.642 -21.333  0.00  0.00    +0.003 C 
ATOM      5  C   UNL     1      36.405 -20.369 -19.683  0.00  0.00    -0.000 C 
ATOM      6  C   UNL     1      37.257 -19.467 -20.319  0.00  0.00    +0.000 C 
ENDROOT
BRANCH   1   9
ATOM      7  O   UNL     1      34.570 -18.506 -23.900  0.00  0.00    -0.353 OA
ATOM      8  N   UNL     1      34.109 -17.570 -24.817  0.00  0.00    -0.071 NA
ATOM      9  C   UNL     1      34.927 -17.867 -22.760  0.00  0.00    +0.175 A 
ATOM     10  C   UNL     1      34.718 -16.525 -22.887  0.00  0.00    +0.071 A 
ATOM     11  C   UNL     1      34.206 -16.394 -24.190  0.00  0.00    +0.196 A 
BRANCH  11  13
ATOM     12  O   UNL     1      34.066 -14.041 -24.489  0.00  0.00    -0.243 OA
ATOM     13  C   UNL     1      33.804 -15.193 -24.865  0.00  0.00    +0.359 C 
BRANCH  13  14
ATOM     14  O   UNL     1      33.075 -15.389 -26.011  0.00  0.00    -0.476 OA
ATOM     15  H   UNL     1      32.174 -15.639 -25.956  0.00  0.00    +0.295 HD
ENDBRANCH  13  14
ENDBRANCH  11  13
BRANCH  10  16
ATOM     16  C   UNL     1      34.970 -15.466 -21.895  0.00  0.00    +0.169 C 
BRANCH  16  17
ATOM     17  O   UNL     1      33.798 -14.696 -21.603  0.00  0.00    -0.377 OA
ATOM     18  H   UNL     1      33.252 -14.623 -22.402  0.00  0.00    +0.211 HD
ENDBRANCH  16  17
ENDBRANCH  10  16
ENDBRANCH   1   9
BRANCH   3  19
ATOM     19  C   UNL     1      34.174 -21.387 -19.398  0.00  0.00    -0.001 C 
ATOM     20  C   UNL     1      34.548 -22.361 -18.539  0.00  0.00    +0.021 C 
BRANCH  20  21
ATOM     21  C   UNL     1      33.593 -23.296 -17.869  0.00  0.00    +0.232 C 
BRANCH  21  22
ATOM     22  O   UNL     1      33.074 -22.664 -16.707  0.00  0.00    -0.470 OA
BRANCH  22  23
ATOM     23  C   UNL     1      33.367 -23.248 -15.503  0.00  0.00    +0.148 C 
ATOM     24  C   UNL     1      32.350 -23.688 -14.661  0.00  0.00    +0.143 C 
ATOM     25  C   UNL     1      32.671 -24.280 -13.439  0.00  0.00    +0.143 C 
ATOM     26  C   UNL     1      34.701 -23.394 -15.135  0.00  0.00    +0.037 C 
ATOM     27  C   UNL     1      34.007 -24.429 -13.066  0.00  0.00    +0.037 C 
ATOM     28  C   UNL     1      35.021 -23.986 -13.914  0.00  0.00    +0.006 C 
BRANCH  25  29
ATOM     29  O   UNL     1      31.695 -24.721 -12.596  0.00  0.00    -0.505 OA
ATOM     30  H   UNL     1      31.152 -25.444 -12.845  0.00  0.00    +0.292 HD
ENDBRANCH  25  29
BRANCH  24  32
ATOM     31  O   UNL     1      30.364 -22.449 -15.115  0.00  0.00    -0.245 OA
ATOM     32  C   UNL     1      30.953 -23.533 -15.052  0.00  0.00    +0.347 C 
BRANCH  32  33
ATOM     33  O   UNL     1      30.380 -24.739 -15.341  0.00  0.00    -0.441 OA
ATOM     34  C   UNL     1      28.976 -24.733 -15.622  0.00  0.00    +0.256 C 
ENDBRANCH  32  33
ENDBRANCH  24  32
ENDBRANCH  22  23
ENDBRANCH  21  22
ENDBRANCH  20  21
ENDBRANCH   3  19
TORSDOF 12
ENDMDL
MODEL 5
REMARK VINA RESULT:     -10.3      4.363     11.566
REMARK  Name = 449162
REMARK  12 active torsions:
REMARK  status: ('A' for Active; 'I' for Inactive)
REMARK    1  A    between atoms: C_1  and  C_9
REMARK    2  A    between atoms: C_3  and  C_19
REMARK    3  A    between atoms: C_10  and  C_16
REMARK    4  A    between atoms: C_11  and  C_13
REMARK    5  A    between atoms: C_13  and  O_14
REMARK    6  A    between atoms: C_16  and  O_17
REMARK    7  A    between atoms: C_20  and  C_21
REMARK    8  A    between atoms: C_21  and  O_22
REMARK    9  A    between atoms: O_22  and  C_23
REMARK   10  A    between atoms: C_24  and  C_32
REMARK   11  A    between atoms: C_25  and  O_29
REMARK   12  A    between atoms: C_32  and  O_33
REMARK                            x       y       z     vdW  Elec       q    Type
REMARK                         _______ _______ _______ _____ _____    ______ ____
ROOT
ATOM      1  C   UNL     1      35.233 -17.563 -21.600  0.00  0.00    +0.037 C 
ATOM      2  C   UNL     1      34.796 -16.389 -20.988  0.00  0.00    +0.003 C 
ATOM      3  C   UNL     1      34.456 -15.282 -21.764  0.00  0.00    -0.000 C 
ATOM      4  C   UNL     1      35.329 -17.631 -22.990  0.00  0.00    +0.003 C 
ATOM      5  C   UNL     1      34.552 -15.349 -23.155  0.00  0.00    -0.000 C 
ATOM      6  C   UNL     1      34.989 -16.523 -23.767  0.00  0.00    +0.000 C 
ENDROOT
BRANCH   1   9
ATOM      7  O   UNL     1      36.860 -18.720 -20.338  0.00  0.00    -0.353 OA
ATOM      8  N   UNL     1      37.059 -19.872 -19.588  0.00  0.00    -0.071 NA
ATOM      9  C   UNL     1      35.585 -18.709 -20.798  0.00  0.00    +0.175 A 
ATOM     10  C   UNL     1      34.923 -19.824 -20.375  0.00  0.00    +0.071 A 
ATOM     11  C   UNL     1      35.888 -20.516 -19.623  0.00  0.00    +0.196 A 
BRANCH  11  13
ATOM     12  O   UNL     1      34.973 -22.679 -19.267  0.00  0.00    -0.243 OA
ATOM     13  C   UNL     1      35.744 -21.767 -18.935  0.00  0.00    +0.359 C 
BRANCH  13  14
ATOM     14  O   UNL     1      36.545 -21.916 -17.830  0.00  0.00    -0.476 OA
ATOM     15  H   UNL     1      36.513 -21.283 -17.140  0.00  0.00    +0.295 HD
ENDBRANCH  13  14
ENDBRANCH  11  13
BRANCH  10  16
ATOM     16  C   UNL     1      33.527 -20.212 -20.643  0.00  0.00    +0.169 C 
BRANCH  16  17
ATOM     17  O   UNL     1      32.802 -20.519 -19.447  0.00  0.00    -0.377 OA
ATOM     18  H   UNL     1      32.509 -19.696 -19.025  0.00  0.00    +0.211 HD
ENDBRANCH  16  17
ENDBRANCH  10  16
ENDBRANCH   1   9
BRANCH   3  19
ATOM     19  C   UNL     1      34.001 -14.057 -21.125  0.00  0.00    -0.001 C 
ATOM     20  C   UNL     1      32.732 -13.788 -20.740  0.00  0.00    +0.021 C 
BRANCH  20  21
ATOM     21  C   UNL     1      32.315 -12.519 -20.070  0.00  0.00    +0.232 C 
BRANCH  21  22
ATOM     22  O   UNL     1      31.874 -11.602 -21.062  0.00  0.00    -0.470 OA
BRANCH  22  23
ATOM     23  C   UNL     1      31.951 -10.270 -20.751  0.00  0.00    +0.148 C 
ATOM     24  C   UNL     1      32.340  -9.339 -21.708  0.00  0.00    +0.143 C 
ATOM     25  C   UNL     1      32.412  -7.987 -21.369  0.00  0.00    +0.143 C 
ATOM     26  C   UNL     1      31.633  -9.864 -19.459  0.00  0.00    +0.037 C 
ATOM     27  C   UNL     1      32.095  -7.575 -20.076  0.00  0.00    +0.037 C 
ATOM     28  C   UNL     1      31.705  -8.513 -19.121  0.00  0.00    +0.006 C 
BRANCH  25  29
ATOM     29  O   UNL     1      32.790  -7.053 -22.288  0.00  0.00    -0.505 OA
ATOM     30  H   UNL     1      32.898  -6.159 -22.030  0.00  0.00    +0.292 HD
ENDBRANCH  25  29
BRANCH  24  32
ATOM     31  O   UNL     1      31.995  -9.510 -24.061  0.00  0.00    -0.245 OA
ATOM     32  C   UNL     1      32.673  -9.770 -23.062  0.00  0.00    +0.347 C 
BRANCH  32  33
ATOM     33  O   UNL     1      33.829 -10.499 -23.083  0.00  0.00    -0.441 OA
ATOM     34  C   UNL     1      33.847 -11.652 -23.931  0.00  0.00    +0.256 C 
ENDBRANCH  32  33
ENDBRANCH  24  32
ENDBRANCH  22  23
ENDBRANCH  21  22
ENDBRANCH  20  21
ENDBRANCH   3  19
TORSDOF 12
ENDMDL
MODEL 6
REMARK VINA RESULT:     -10.2      4.265     11.439
REMARK  Name = 449162
REMARK  12 active torsions:
REMARK  status: ('A' for Active; 'I' for Inactive)
REMARK    1  A    between atoms: C_1  and  C_9
REMARK    2  A    between atoms: C_3  and  C_19
REMARK    3  A    between atoms: C_10  and  C_16
REMARK    4  A    between atoms: C_11  and  C_13
REMARK    5  A    between atoms: C_13  and  O_14
REMARK    6  A    between atoms: C_16  and  O_17
REMARK    7  A    between atoms: C_20  and  C_21
REMARK    8  A    between atoms: C_21  and  O_22
REMARK    9  A    between atoms: O_22  and  C_23
REMARK   10  A    between atoms: C_24  and  C_32
REMARK   11  A    between atoms: C_25  and  O_29
REMARK   12  A    between atoms: C_32  and  O_33
REMARK                            x       y       z     vdW  Elec       q    Type
REMARK                         _______ _______ _______ _____ _____    ______ ____
ROOT
ATOM      1  C   UNL     1      35.221 -17.904 -22.198  0.00  0.00    +0.037 C 
ATOM      2  C   UNL     1      35.113 -16.537 -21.943  0.00  0.00    +0.003 C 
ATOM      3  C   UNL     1      34.683 -15.672 -22.948  0.00  0.00    -0.000 C 
ATOM      4  C   UNL     1      34.898 -18.406 -23.458  0.00  0.00    +0.003 C 
ATOM      5  C   UNL     1      34.359 -16.173 -24.209  0.00  0.00    -0.000 C 
ATOM      6  C   UNL     1      34.467 -17.540 -24.464  0.00  0.00    +0.000 C 
ENDROOT
BRANCH   1   9
ATOM      7  O   UNL     1      36.924 -18.578 -20.707  0.00  0.00    -0.353 OA
ATOM      8  N   UNL     1      37.219 -19.508 -19.718  0.00  0.00    -0.071 NA
ATOM      9  C   UNL     1      35.666 -18.801 -21.159  0.00  0.00    +0.175 A 
ATOM     10  C   UNL     1      35.108 -19.855 -20.498  0.00  0.00    +0.071 A 
ATOM     11  C   UNL     1      36.120 -20.260 -19.610  0.00  0.00    +0.196 A 
BRANCH  11  13
ATOM     12  O   UNL     1      35.400 -22.361 -18.769  0.00  0.00    -0.243 OA
ATOM     13  C   UNL     1      36.085 -21.334 -18.660  0.00  0.00    +0.359 C 
BRANCH  13  14
ATOM     14  O   UNL     1      36.890 -21.163 -17.561  0.00  0.00    -0.476 OA
ATOM     15  H   UNL     1      37.682 -21.655 -17.479  0.00  0.00    +0.295 HD
ENDBRANCH  13  14
ENDBRANCH  11  13
BRANCH  10  16
ATOM     16  C   UNL     1      33.765 -20.434 -20.675  0.00  0.00    +0.169 C 
BRANCH  16  17
ATOM     17  O   UNL     1      33.017 -20.468 -19.455  0.00  0.00    -0.377 OA
ATOM     18  H   UNL     1      32.480 -21.276 -19.427  0.00  0.00    +0.211 HD
ENDBRANCH  16  17
ENDBRANCH  10  16
ENDBRANCH   1   9
BRANCH   3  19
ATOM     19  C   UNL     1      34.571 -14.246 -22.681  0.00  0.00    -0.001 C 
ATOM     20  C   UNL     1      33.839 -13.361 -23.395  0.00  0.00    +0.021 C 
BRANCH  20  21
ATOM     21  C   UNL     1      33.742 -11.905 -23.071  0.00  0.00    +0.232 C 
BRANCH  21  22
ATOM     22  O   UNL     1      32.399 -11.602 -22.720  0.00  0.00    -0.470 OA
BRANCH  22  23
ATOM     23  C   UNL     1      32.194 -11.043 -21.486  0.00  0.00    +0.148 C 
ATOM     24  C   UNL     1      32.088  -9.664 -21.340  0.00  0.00    +0.143 C 
ATOM     25  C   UNL     1      31.879  -9.116 -20.074  0.00  0.00    +0.143 C 
ATOM     26  C   UNL     1      32.094 -11.880 -20.379  0.00  0.00    +0.037 C 
ATOM     27  C   UNL     1      31.778  -9.950 -18.961  0.00  0.00    +0.037 C 
ATOM     28  C   UNL     1      31.886 -11.332 -19.114  0.00  0.00    +0.006 C 
BRANCH  25  29
ATOM     29  O   UNL     1      31.770  -7.768 -19.903  0.00  0.00    -0.505 OA
ATOM     30  H   UNL     1      30.986  -7.403 -19.541  0.00  0.00    +0.292 HD
ENDBRANCH  25  29
BRANCH  24  32
ATOM     31  O   UNL     1      31.387  -8.780 -23.441  0.00  0.00    -0.245 OA
ATOM     32  C   UNL     1      32.193  -8.791 -22.505  0.00  0.00    +0.347 C 
BRANCH  32  33
ATOM     33  O   UNL     1      33.295  -7.987 -22.427  0.00  0.00    -0.441 OA
ATOM     34  C   UNL     1      34.399  -8.326 -23.272  0.00  0.00    +0.256 C 
ENDBRANCH  32  33
ENDBRANCH  24  32
ENDBRANCH  22  23
ENDBRANCH  21  22
ENDBRANCH  20  21
ENDBRANCH   3  19
TORSDOF 12
ENDMDL
MODEL 7
REMARK VINA RESULT:     -10.2      3.013     10.943
REMARK  Name = 449162
REMARK  12 active torsions:
REMARK  status: ('A' for Active; 'I' for Inactive)
REMARK    1  A    between atoms: C_1  and  C_9
REMARK    2  A    between atoms: C_3  and  C_19
REMARK    3  A    between atoms: C_10  and  C_16
REMARK    4  A    between atoms: C_11  and  C_13
REMARK    5  A    between atoms: C_13  and  O_14
REMARK    6  A    between atoms: C_16  and  O_17
REMARK    7  A    between atoms: C_20  and  C_21
REMARK    8  A    between atoms: C_21  and  O_22
REMARK    9  A    between atoms: O_22  and  C_23
REMARK   10  A    between atoms: C_24  and  C_32
REMARK   11  A    between atoms: C_25  and  O_29
REMARK   12  A    between atoms: C_32  and  O_33
REMARK                            x       y       z     vdW  Elec       q    Type
REMARK                         _______ _______ _______ _____ _____    ______ ____
ROOT
ATOM      1  C   UNL     1      35.448 -22.966 -16.141  0.00  0.00    +0.037 C 
ATOM      2  C   UNL     1      35.976 -22.260 -17.222  0.00  0.00    +0.003 C 
ATOM      3  C   UNL     1      35.173 -21.968 -18.324  0.00  0.00    -0.000 C 
ATOM      4  C   UNL     1      34.115 -23.379 -16.162  0.00  0.00    +0.003 C 
ATOM      5  C   UNL     1      33.841 -22.380 -18.346  0.00  0.00    -0.000 C 
ATOM      6  C   UNL     1      33.313 -23.086 -17.265  0.00  0.00    +0.000 C 
ENDROOT
BRANCH   1   9
ATOM      7  O   UNL     1      37.610 -23.277 -15.244  0.00  0.00    -0.353 OA
ATOM      8  N   UNL     1      38.282 -23.582 -14.067  0.00  0.00    -0.071 NA
ATOM      9  C   UNL     1      36.277 -23.270 -15.001  0.00  0.00    +0.175 A 
ATOM     10  C   UNL     1      36.036 -23.563 -13.691  0.00  0.00    +0.071 A 
ATOM     11  C   UNL     1      37.321 -23.749 -13.153  0.00  0.00    +0.196 A 
BRANCH  11  13
ATOM     12  O   UNL     1      37.303 -25.093 -11.195  0.00  0.00    -0.243 OA
ATOM     13  C   UNL     1      37.676 -24.079 -11.802  0.00  0.00    +0.359 C 
BRANCH  13  14
ATOM     14  O   UNL     1      38.492 -23.169 -11.178  0.00  0.00    -0.476 OA
ATOM     15  H   UNL     1      38.668 -22.343 -11.583  0.00  0.00    +0.295 HD
ENDBRANCH  13  14
ENDBRANCH  11  13
BRANCH  10  16
ATOM     16  C   UNL     1      34.737 -23.663 -13.003  0.00  0.00    +0.169 C 
BRANCH  16  17
ATOM     17  O   UNL     1      34.456 -24.992 -12.550  0.00  0.00    -0.377 OA
ATOM     18  H   UNL     1      34.798 -25.106 -11.649  0.00  0.00    +0.211 HD
ENDBRANCH  16  17
ENDBRANCH  10  16
ENDBRANCH   1   9
BRANCH   3  19
ATOM     19  C   UNL     1      35.726 -21.231 -19.451  0.00  0.00    -0.001 C 
ATOM     20  C   UNL     1      36.397 -20.060 -19.379  0.00  0.00    +0.021 C 
BRANCH  20  21
ATOM     21  C   UNL     1      36.961 -19.347 -20.566  0.00  0.00    +0.232 C 
BRANCH  21  22
ATOM     22  O   UNL     1      36.069 -18.307 -20.942  0.00  0.00    -0.470 OA
BRANCH  22  23
ATOM     23  C   UNL     1      35.449 -18.433 -22.157  0.00  0.00    +0.148 C 
ATOM     24  C   UNL     1      34.987 -17.312 -22.838  0.00  0.00    +0.143 C 
ATOM     25  C   UNL     1      34.358 -17.464 -24.075  0.00  0.00    +0.143 C 
ATOM     26  C   UNL     1      35.289 -19.705 -22.699  0.00  0.00    +0.037 C 
ATOM     27  C   UNL     1      34.195 -18.736 -24.623  0.00  0.00    +0.037 C 
ATOM     28  C   UNL     1      34.660 -19.856 -23.935  0.00  0.00    +0.006 C 
BRANCH  25  29
ATOM     29  O   UNL     1      33.897 -16.382 -24.764  0.00  0.00    -0.505 OA
ATOM     30  H   UNL     1      33.510 -15.663 -24.303  0.00  0.00    +0.292 HD
ENDBRANCH  25  29
BRANCH  24  32
ATOM     31  O   UNL     1      35.414 -14.967 -22.923  0.00  0.00    -0.245 OA
ATOM     32  C   UNL     1      35.158 -15.981 -22.265  0.00  0.00    +0.347 C 
BRANCH  32  33
ATOM     33  O   UNL     1      34.997 -15.999 -20.907  0.00  0.00    -0.441 OA
ATOM     34  C   UNL     1      34.468 -14.812 -20.307  0.00  0.00    +0.256 C 
ENDBRANCH  32  33
ENDBRANCH  24  32
ENDBRANCH  22  23
ENDBRANCH  21  22
ENDBRANCH  20  21
ENDBRANCH   3  19
TORSDOF 12
ENDMDL
MODEL 8
REMARK VINA RESULT:     -10.1      2.578     10.626
REMARK  Name = 449162
REMARK  12 active torsions:
REMARK  status: ('A' for Active; 'I' for Inactive)
REMARK    1  A    between atoms: C_1  and  C_9
REMARK    2  A    between atoms: C_3  and  C_19
REMARK    3  A    between atoms: C_10  and  C_16
REMARK    4  A    between atoms: C_11  and  C_13
REMARK    5  A    between atoms: C_13  and  O_14
REMARK    6  A    between atoms: C_16  and  O_17
REMARK    7  A    between atoms: C_20  and  C_21
REMARK    8  A    between atoms: C_21  and  O_22
REMARK    9  A    between atoms: O_22  and  C_23
REMARK   10  A    between atoms: C_24  and  C_32
REMARK   11  A    between atoms: C_25  and  O_29
REMARK   12  A    between atoms: C_32  and  O_33
REMARK                            x       y       z     vdW  Elec       q    Type
REMARK                         _______ _______ _______ _____ _____    ______ ____
ROOT
ATOM      1  C   UNL     1      34.279 -21.995 -18.037  0.00  0.00    +0.037 C 
ATOM      2  C   UNL     1      33.996 -21.205 -19.151  0.00  0.00    +0.003 C 
ATOM      3  C   UNL     1      35.037 -20.661 -19.902  0.00  0.00    -0.000 C 
ATOM      4  C   UNL     1      35.603 -22.242 -17.674  0.00  0.00    +0.003 C 
ATOM      5  C   UNL     1      36.362 -20.907 -19.541  0.00  0.00    -0.000 C 
ATOM      6  C   UNL     1      36.644 -21.697 -18.426  0.00  0.00    +0.000 C 
ENDROOT
BRANCH   1   9
ATOM      7  O   UNL     1      31.958 -22.316 -17.736  0.00  0.00    -0.353 OA
ATOM      8  N   UNL     1      31.027 -22.911 -16.894  0.00  0.00    -0.071 NA
ATOM      9  C   UNL     1      33.203 -22.558 -17.258  0.00  0.00    +0.175 A 
ATOM     10  C   UNL     1      33.132 -23.302 -16.117  0.00  0.00    +0.071 A 
ATOM     11  C   UNL     1      31.752 -23.494 -15.934  0.00  0.00    +0.196 A 
BRANCH  11  13
ATOM     12  O   UNL     1      31.386 -24.150 -13.680  0.00  0.00    -0.243 OA
ATOM     13  C   UNL     1      31.090 -24.213 -14.883  0.00  0.00    +0.359 C 
BRANCH  13  14
ATOM     14  O   UNL     1      30.057 -25.019 -15.292  0.00  0.00    -0.476 OA
ATOM     15  H   UNL     1      30.231 -25.893 -15.580  0.00  0.00    +0.295 HD
ENDBRANCH  13  14
ENDBRANCH  11  13
BRANCH  10  16
ATOM     16  C   UNL     1      34.239 -23.787 -15.275  0.00  0.00    +0.169 C 
BRANCH  16  17
ATOM     17  O   UNL     1      34.333 -23.084 -14.031  0.00  0.00    -0.377 OA
ATOM     18  H   UNL     1      34.758 -22.224 -14.177  0.00  0.00    +0.211 HD
ENDBRANCH  16  17
ENDBRANCH  10  16
ENDBRANCH   1   9
BRANCH   3  19
ATOM     19  C   UNL     1      34.742 -19.838 -21.064  0.00  0.00    -0.001 C 
ATOM     20  C   UNL     1      35.502 -18.820 -21.529  0.00  0.00    +0.021 C 
BRANCH  20  21
ATOM     21  C   UNL     1      35.163 -18.011 -22.739  0.00  0.00    +0.232 C 
BRANCH  21  22
ATOM     22  O   UNL     1      35.221 -16.632 -22.399  0.00  0.00    -0.470 OA
BRANCH  22  23
ATOM     23  C   UNL     1      34.505 -15.770 -23.186  0.00  0.00    +0.148 C 
ATOM     24  C   UNL     1      33.926 -14.628 -22.644  0.00  0.00    +0.143 C 
ATOM     25  C   UNL     1      33.200 -13.764 -23.465  0.00  0.00    +0.143 C 
ATOM     26  C   UNL     1      34.366 -16.058 -24.541  0.00  0.00    +0.037 C 
ATOM     27  C   UNL     1      33.058 -14.047 -24.823  0.00  0.00    +0.037 C 
ATOM     28  C   UNL     1      33.640 -15.195 -25.360  0.00  0.00    +0.006 C 
BRANCH  25  29
ATOM     29  O   UNL     1      32.624 -12.637 -22.960  0.00  0.00    -0.505 OA
ATOM     30  H   UNL     1      32.954 -12.254 -22.170  0.00  0.00    +0.292 HD
ENDBRANCH  25  29
BRANCH  24  32
ATOM     31  O   UNL     1      35.101 -13.868 -20.713  0.00  0.00    -0.245 OA
ATOM     32  C   UNL     1      34.076 -14.331 -21.224  0.00  0.00    +0.347 C 
BRANCH  32  33
ATOM     33  O   UNL     1      32.937 -14.631 -20.529  0.00  0.00    -0.441 OA
ATOM     34  C   UNL     1      32.343 -13.567 -19.778  0.00  0.00    +0.256 C 
ENDBRANCH  32  33
ENDBRANCH  24  32
ENDBRANCH  22  23
ENDBRANCH  21  22
ENDBRANCH  20  21
ENDBRANCH   3  19
TORSDOF 12
ENDMDL
MODEL 9
REMARK VINA RESULT:     -10.0      2.801     10.963
REMARK  Name = 449162
REMARK  12 active torsions:
REMARK  status: ('A' for Active; 'I' for Inactive)
REMARK    1  A    between atoms: C_1  and  C_9
REMARK    2  A    between atoms: C_3  and  C_19
REMARK    3  A    between atoms: C_10  and  C_16
REMARK    4  A    between atoms: C_11  and  C_13
REMARK    5  A    between atoms: C_13  and  O_14
REMARK    6  A    between atoms: C_16  and  O_17
REMARK    7  A    between atoms: C_20  and  C_21
REMARK    8  A    between atoms: C_21  and  O_22
REMARK    9  A    between atoms: O_22  and  C_23
REMARK   10  A    between atoms: C_24  and  C_32
REMARK   11  A    between atoms: C_25  and  O_29
REMARK   12  A    between atoms: C_32  and  O_33
REMARK                            x       y       z     vdW  Elec       q    Type
REMARK                         _______ _______ _______ _____ _____    ______ ____
ROOT
ATOM      1  C   UNL     1      35.325 -22.441 -17.046  0.00  0.00    +0.037 C 
ATOM      2  C   UNL     1      35.856 -21.660 -18.072  0.00  0.00    +0.003 C 
ATOM      3  C   UNL     1      35.057 -21.296 -19.156  0.00  0.00    -0.000 C 
ATOM      4  C   UNL     1      33.994 -22.857 -17.102  0.00  0.00    +0.003 C 
ATOM      5  C   UNL     1      33.727 -21.711 -19.214  0.00  0.00    -0.000 C 
ATOM      6  C   UNL     1      33.196 -22.492 -18.187  0.00  0.00    +0.000 C 
ENDROOT
BRANCH   1   9
ATOM      7  O   UNL     1      37.480 -22.639 -16.102  0.00  0.00    -0.353 OA
ATOM      8  N   UNL     1      38.148 -23.042 -14.953  0.00  0.00    -0.071 NA
ATOM      9  C   UNL     1      36.149 -22.819 -15.924  0.00  0.00    +0.175 A 
ATOM     10  C   UNL     1      35.906 -23.332 -14.684  0.00  0.00    +0.071 A 
ATOM     11  C   UNL     1      37.187 -23.452 -14.120  0.00  0.00    +0.196 A 
BRANCH  11  13
ATOM     12  O   UNL     1      37.952 -23.242 -11.880  0.00  0.00    -0.243 OA
ATOM     13  C   UNL     1      37.537 -23.941 -12.817  0.00  0.00    +0.359 C 
BRANCH  13  14
ATOM     14  O   UNL     1      37.384 -25.295 -12.645  0.00  0.00    -0.476 OA
ATOM     15  H   UNL     1      36.873 -25.789 -13.255  0.00  0.00    +0.295 HD
ENDBRANCH  13  14
ENDBRANCH  11  13
BRANCH  10  16
ATOM     16  C   UNL     1      34.607 -23.680 -14.081  0.00  0.00    +0.169 C 
BRANCH  16  17
ATOM     17  O   UNL     1      34.486 -25.081 -13.808  0.00  0.00    -0.377 OA
ATOM     18  H   UNL     1      33.680 -25.241 -13.292  0.00  0.00    +0.211 HD
ENDBRANCH  16  17
ENDBRANCH  10  16
ENDBRANCH   1   9
BRANCH   3  19
ATOM     19  C   UNL     1      35.612 -20.481 -20.226  0.00  0.00    -0.001 C 
ATOM     20  C   UNL     1      35.122 -19.297 -20.656  0.00  0.00    +0.021 C 
BRANCH  20  21
ATOM     21  C   UNL     1      35.738 -18.487 -21.752  0.00  0.00    +0.232 C 
BRANCH  21  22
ATOM     22  O   UNL     1      35.521 -17.109 -21.480  0.00  0.00    -0.470 OA
BRANCH  22  23
ATOM     23  C   UNL     1      34.913 -16.374 -22.463  0.00  0.00    +0.148 C 
ATOM     24  C   UNL     1      34.372 -15.124 -22.182  0.00  0.00    +0.143 C 
ATOM     25  C   UNL     1      33.757 -14.392 -23.198  0.00  0.00    +0.143 C 
ATOM     26  C   UNL     1      34.846 -16.900 -23.749  0.00  0.00    +0.037 C 
ATOM     27  C   UNL     1      33.686 -14.914 -24.489  0.00  0.00    +0.037 C 
ATOM     28  C   UNL     1      34.230 -16.168 -24.764  0.00  0.00    +0.006 C 
BRANCH  25  29
ATOM     29  O   UNL     1      33.220 -13.163 -22.951  0.00  0.00    -0.505 OA
ATOM     30  H   UNL     1      32.346 -13.092 -22.619  0.00  0.00    +0.292 HD
ENDBRANCH  25  29
BRANCH  24  32
ATOM     31  O   UNL     1      35.294 -13.760 -20.456  0.00  0.00    -0.245 OA
ATOM     32  C   UNL     1      34.446 -14.577 -20.831  0.00  0.00    +0.347 C 
BRANCH  32  33
ATOM     33  O   UNL     1      33.458 -15.083 -20.034  0.00  0.00    -0.441 OA
ATOM     34  C   UNL     1      32.332 -14.233 -19.788  0.00  0.00    +0.256 C 
ENDBRANCH  32  33
ENDBRANCH  24  32
ENDBRANCH  22  23
ENDBRANCH  21  22
ENDBRANCH  20  21
ENDBRANCH   3  19
TORSDOF 12
ENDMDL
