MODEL 1
REMARK VINA RESULT:     -11.7      0.000      0.000
REMARK  Name = 154000
REMARK  7 active torsions:
REMARK  status: ('A' for Active; 'I' for Inactive)
REMARK    1  A    between atoms: O_1  and  C_5
REMARK    2  A    between atoms: O_1  and  C_17
REMARK    3  A    between atoms: C_2  and  C_8
REMARK    4  A    between atoms: C_8  and  C_13
REMARK    5  A    between atoms: C_17  and  C_18
REMARK    6  A    between atoms: C_18  and  C_21
REMARK    7  A    between atoms: C_23  and  C_25
REMARK                            x       y       z     vdW  Elec       q    Type
REMARK                         _______ _______ _______ _____ _____    ______ ____
ROOT
ATOM      1  O   UNL     1      35.917 -18.589 -21.351  0.00  0.00    -0.475 OA
ENDROOT
BRANCH   1   5
ATOM      2  C   UNL     1      34.354 -21.731 -19.167  0.00  0.00    -0.021 C 
ATOM      3  C   UNL     1      35.726 -21.528 -19.182  0.00  0.00    -0.001 C 
ATOM      4  C   UNL     1      33.497 -20.900 -19.872  0.00  0.00    -0.001 C 
ATOM      5  C   UNL     1      35.403 -19.624 -20.632  0.00  0.00    +0.139 C 
ATOM      6  C   UNL     1      36.254 -20.468 -19.919  0.00  0.00    +0.037 C 
ATOM      7  C   UNL     1      34.025 -19.840 -20.609  0.00  0.00    +0.037 C 
BRANCH   2   8
ATOM      8  C   UNL     1      33.784 -22.879 -18.372  0.00  0.00    +0.047 C 
BRANCH   8  13
ATOM      9  O   UNL     1      32.405 -23.766 -15.347  0.00  0.00    -0.346 OA
ATOM     10  O   UNL     1      35.774 -23.276 -16.126  0.00  0.00    -0.272 OA
ATOM     11  O   UNL     1      31.166 -22.557 -16.856  0.00  0.00    -0.247 OA
ATOM     12  N   UNL     1      33.785 -23.977 -15.138  0.00  0.00    -0.144 N 
ATOM     13  C   UNL     1      33.604 -22.521 -16.909  0.00  0.00    +0.184 C 
ATOM     14  C   UNL     1      34.557 -23.284 -16.039  0.00  0.00    +0.264 C 
ATOM     15  C   UNL     1      32.241 -22.920 -16.407  0.00  0.00    +0.348 C 
ATOM     16  H   UNL     1      34.151 -24.553 -14.429  0.00  0.00    +0.196 HD
ENDBRANCH   8  13
ENDBRANCH   2   8
ENDBRANCH   1   5
BRANCH   1  17
ATOM     17  C   UNL     1      35.269 -17.323 -21.222  0.00  0.00    +0.213 C 
BRANCH  17  18
ATOM     18  C   UNL     1      35.413 -16.535 -22.520  0.00  0.00    +0.105 C 
BRANCH  18  21
ATOM     19  O   UNL     1      32.961 -13.965 -23.359  0.00  0.00    -0.449 OA
ATOM     20  N   UNL     1      34.111 -14.673 -21.544  0.00  0.00    -0.373 NA
ATOM     21  C   UNL     1      34.420 -15.415 -22.635  0.00  0.00    +0.134 C 
ATOM     22  C   UNL     1      33.744 -15.013 -23.737  0.00  0.00    +0.216 C 
ATOM     23  C   UNL     1      33.237 -13.822 -22.034  0.00  0.00    +0.277 C 
ATOM     24  C   UNL     1      33.676 -15.426 -25.143  0.00  0.00    +0.055 C 
BRANCH  23  25
ATOM     25  C   UNL     1      32.527 -12.762 -21.372  0.00  0.00    +0.066 C 
ATOM     26  C   UNL     1      32.608 -12.621 -19.983  0.00  0.00    +0.006 C 
ATOM     27  C   UNL     1      31.750 -11.868 -22.113  0.00  0.00    +0.006 C 
ATOM     28  C   UNL     1      31.917 -11.593 -19.342  0.00  0.00    +0.000 C 
ATOM     29  C   UNL     1      31.059 -10.840 -21.471  0.00  0.00    +0.000 C 
ATOM     30  C   UNL     1      31.142 -10.702 -20.086  0.00  0.00    +0.000 C 
ENDBRANCH  23  25
ENDBRANCH  18  21
ENDBRANCH  17  18
ENDBRANCH   1  17
TORSDOF 7
ENDMDL
MODEL 2
REMARK VINA RESULT:     -11.5      3.850     10.287
REMARK  Name = 154000
REMARK  7 active torsions:
REMARK  status: ('A' for Active; 'I' for Inactive)
REMARK    1  A    between atoms: O_1  and  C_5
REMARK    2  A    between atoms: O_1  and  C_17
REMARK    3  A    between atoms: C_2  and  C_8
REMARK    4  A    between atoms: C_8  and  C_13
REMARK    5  A    between atoms: C_17  and  C_18
REMARK    6  A    between atoms: C_18  and  C_21
REMARK    7  A    between atoms: C_23  and  C_25
REMARK                            x       y       z     vdW  Elec       q    Type
REMARK                         _______ _______ _______ _____ _____    ______ ____
ROOT
ATOM      1  O   UNL     1      36.033 -22.873 -16.925  0.00  0.00    -0.475 OA
ENDROOT
BRANCH   1   5
ATOM      2  C   UNL     1      34.603 -20.560 -20.038  0.00  0.00    -0.021 C 
ATOM      3  C   UNL     1      35.959 -20.545 -19.746  0.00  0.00    -0.001 C 
ATOM      4  C   UNL     1      33.719 -21.337 -19.305  0.00  0.00    -0.001 C 
ATOM      5  C   UNL     1      35.563 -22.111 -17.950  0.00  0.00    +0.139 C 
ATOM      6  C   UNL     1      36.442 -21.325 -18.695  0.00  0.00    +0.037 C 
ATOM      7  C   UNL     1      34.202 -22.117 -18.255  0.00  0.00    +0.037 C 
BRANCH   2   8
ATOM      8  C   UNL     1      34.082 -19.716 -21.174  0.00  0.00    +0.047 C 
BRANCH   8  13
ATOM      9  O   UNL     1      34.944 -17.764 -23.873  0.00  0.00    -0.346 OA
ATOM     10  O   UNL     1      35.518 -17.142 -20.485  0.00  0.00    -0.272 OA
ATOM     11  O   UNL     1      34.727 -20.036 -24.129  0.00  0.00    -0.247 OA
ATOM     12  N   UNL     1      35.179 -16.907 -22.778  0.00  0.00    -0.144 N 
ATOM     13  C   UNL     1      35.204 -19.052 -21.949  0.00  0.00    +0.184 C 
ATOM     14  C   UNL     1      35.325 -17.600 -21.600  0.00  0.00    +0.264 C 
ATOM     15  C   UNL     1      34.928 -19.057 -23.430  0.00  0.00    +0.348 C 
ATOM     16  H   UNL     1      35.231 -15.927 -22.849  0.00  0.00    +0.196 HD
ENDBRANCH   8  13
ENDBRANCH   2   8
ENDBRANCH   1   5
BRANCH   1  17
ATOM     17  C   UNL     1      36.209 -22.227 -15.663  0.00  0.00    +0.213 C 
BRANCH  17  18
ATOM     18  C   UNL     1      36.244 -23.271 -14.551  0.00  0.00    +0.105 C 
BRANCH  18  21
ATOM     19  O   UNL     1      33.178 -24.393 -12.919  0.00  0.00    -0.449 OA
ATOM     20  N   UNL     1      33.810 -23.517 -14.907  0.00  0.00    -0.373 NA
ATOM     21  C   UNL     1      34.874 -23.671 -14.083  0.00  0.00    +0.134 C 
ATOM     22  C   UNL     1      34.525 -24.193 -12.885  0.00  0.00    +0.216 C 
ATOM     23  C   UNL     1      32.824 -23.965 -14.161  0.00  0.00    +0.277 C 
ATOM     24  C   UNL     1      35.225 -24.565 -11.650  0.00  0.00    +0.055 C 
BRANCH  23  25
ATOM     25  C   UNL     1      31.423 -24.066 -14.467  0.00  0.00    +0.066 C 
ATOM     26  C   UNL     1      30.652 -25.088 -13.905  0.00  0.00    +0.006 C 
ATOM     27  C   UNL     1      30.824 -23.145 -15.330  0.00  0.00    +0.006 C 
ATOM     28  C   UNL     1      29.294 -25.187 -14.205  0.00  0.00    +0.000 C 
ATOM     29  C   UNL     1      29.466 -23.243 -15.628  0.00  0.00    +0.000 C 
ATOM     30  C   UNL     1      28.700 -24.264 -15.066  0.00  0.00    +0.000 C 
ENDBRANCH  23  25
ENDBRANCH  18  21
ENDBRANCH  17  18
ENDBRANCH   1  17
TORSDOF 7
ENDMDL
MODEL 3
REMARK VINA RESULT:     -11.5      3.234     11.087
REMARK  Name = 154000
REMARK  7 active torsions:
REMARK  status: ('A' for Active; 'I' for Inactive)
REMARK    1  A    between atoms: O_1  and  C_5
REMARK    2  A    between atoms: O_1  and  C_17
REMARK    3  A    between atoms: C_2  and  C_8
REMARK    4  A    between atoms: C_8  and  C_13
REMARK    5  A    between atoms: C_17  and  C_18
REMARK    6  A    between atoms: C_18  and  C_21
REMARK    7  A    between atoms: C_23  and  C_25
REMARK                            x       y       z     vdW  Elec       q    Type
REMARK                         _______ _______ _______ _____ _____    ______ ____
ROOT
ATOM      1  O   UNL     1      32.766 -22.596 -18.411  0.00  0.00    -0.475 OA
ENDROOT
BRANCH   1   5
ATOM      2  C   UNL     1      34.884 -19.813 -20.613  0.00  0.00    -0.021 C 
ATOM      3  C   UNL     1      33.498 -19.775 -20.620  0.00  0.00    -0.001 C 
ATOM      4  C   UNL     1      35.572 -20.769 -19.881  0.00  0.00    -0.001 C 
ATOM      5  C   UNL     1      33.463 -21.680 -19.136  0.00  0.00    +0.139 C 
ATOM      6  C   UNL     1      32.782 -20.713 -19.877  0.00  0.00    +0.037 C 
ATOM      7  C   UNL     1      34.857 -21.708 -19.139  0.00  0.00    +0.037 C 
BRANCH   2   8
ATOM      8  C   UNL     1      35.657 -18.798 -21.418  0.00  0.00    +0.047 C 
BRANCH   8  13
ATOM      9  O   UNL     1      35.399 -15.556 -22.541  0.00  0.00    -0.346 OA
ATOM     10  O   UNL     1      34.772 -18.509 -24.298  0.00  0.00    -0.272 OA
ATOM     11  O   UNL     1      35.135 -16.015 -20.306  0.00  0.00    -0.247 OA
ATOM     12  N   UNL     1      35.291 -16.310 -23.729  0.00  0.00    -0.144 N 
ATOM     13  C   UNL     1      34.753 -17.728 -22.000  0.00  0.00    +0.184 C 
ATOM     14  C   UNL     1      34.928 -17.613 -23.484  0.00  0.00    +0.264 C 
ATOM     15  C   UNL     1      35.109 -16.362 -21.476  0.00  0.00    +0.348 C 
ATOM     16  H   UNL     1      35.456 -15.945 -24.628  0.00  0.00    +0.196 HD
ENDBRANCH   8  13
ENDBRANCH   2   8
ENDBRANCH   1   5
BRANCH   1  17
ATOM     17  C   UNL     1      33.416 -23.148 -17.265  0.00  0.00    +0.213 C 
BRANCH  17  18
ATOM     18  C   UNL     1      32.442 -23.190 -16.091  0.00  0.00    +0.105 C 
BRANCH  18  21
ATOM     19  O   UNL     1      33.519 -24.117 -12.729  0.00  0.00    -0.449 OA
ATOM     20  N   UNL     1      34.457 -23.636 -14.730  0.00  0.00    -0.373 NA
ATOM     21  C   UNL     1      33.107 -23.558 -14.795  0.00  0.00    +0.134 C 
ATOM     22  C   UNL     1      32.518 -23.842 -13.611  0.00  0.00    +0.216 C 
ATOM     23  C   UNL     1      34.649 -23.972 -13.474  0.00  0.00    +0.277 C 
ATOM     24  C   UNL     1      31.143 -23.912 -13.105  0.00  0.00    +0.055 C 
BRANCH  23  25
ATOM     25  C   UNL     1      35.879 -24.212 -12.771  0.00  0.00    +0.066 C 
ATOM     26  C   UNL     1      36.396 -23.243 -11.906  0.00  0.00    +0.006 C 
ATOM     27  C   UNL     1      36.568 -25.415 -12.951  0.00  0.00    +0.006 C 
ATOM     28  C   UNL     1      37.591 -23.476 -11.227  0.00  0.00    +0.000 C 
ATOM     29  C   UNL     1      37.763 -25.648 -12.271  0.00  0.00    +0.000 C 
ATOM     30  C   UNL     1      38.275 -24.679 -11.409  0.00  0.00    +0.000 C 
ENDBRANCH  23  25
ENDBRANCH  18  21
ENDBRANCH  17  18
ENDBRANCH   1  17
TORSDOF 7
ENDMDL
MODEL 4
REMARK VINA RESULT:     -11.5      3.218     10.603
REMARK  Name = 154000
REMARK  7 active torsions:
REMARK  status: ('A' for Active; 'I' for Inactive)
REMARK    1  A    between atoms: O_1  and  C_5
REMARK    2  A    between atoms: O_1  and  C_17
REMARK    3  A    between atoms: C_2  and  C_8
REMARK    4  A    between atoms: C_8  and  C_13
REMARK    5  A    between atoms: C_17  and  C_18
REMARK    6  A    between atoms: C_18  and  C_21
REMARK    7  A    between atoms: C_23  and  C_25
REMARK                            x       y       z     vdW  Elec       q    Type
REMARK                         _______ _______ _______ _____ _____    ______ ____
ROOT
ATOM      1  O   UNL     1      34.023 -15.037 -21.568  0.00  0.00    -0.475 OA
ENDROOT
BRANCH   1   5
ATOM      2  C   UNL     1      31.915 -11.496 -21.243  0.00  0.00    -0.021 C 
ATOM      3  C   UNL     1      32.590 -11.781 -22.421  0.00  0.00    -0.001 C 
ATOM      4  C   UNL     1      31.935 -12.377 -20.173  0.00  0.00    -0.001 C 
ATOM      5  C   UNL     1      33.329 -13.871 -21.462  0.00  0.00    +0.139 C 
ATOM      6  C   UNL     1      33.302 -12.975 -22.531  0.00  0.00    +0.037 C 
ATOM      7  C   UNL     1      32.646 -13.572 -20.283  0.00  0.00    +0.037 C 
BRANCH   2   8
ATOM      8  C   UNL     1      31.147 -10.204 -21.125  0.00  0.00    +0.047 C 
BRANCH   8  13
ATOM      9  O   UNL     1      31.277  -6.811 -21.687  0.00  0.00    -0.346 OA
ATOM     10  O   UNL     1      32.724  -8.628 -19.078  0.00  0.00    -0.272 OA
ATOM     11  O   UNL     1      30.991  -8.252 -23.453  0.00  0.00    -0.247 OA
ATOM     12  N   UNL     1      31.795  -6.934 -20.381  0.00  0.00    -0.144 N 
ATOM     13  C   UNL     1      32.028  -8.995 -21.375  0.00  0.00    +0.184 C 
ATOM     14  C   UNL     1      32.243  -8.207 -20.118  0.00  0.00    +0.264 C 
ATOM     15  C   UNL     1      31.373  -8.020 -22.318  0.00  0.00    +0.348 C 
ATOM     16  H   UNL     1      31.831  -6.194 -19.733  0.00  0.00    +0.196 HD
ENDBRANCH   8  13
ENDBRANCH   2   8
ENDBRANCH   1   5
BRANCH   1  17
ATOM     17  C   UNL     1      34.515 -15.384 -22.863  0.00  0.00    +0.213 C 
BRANCH  17  18
ATOM     18  C   UNL     1      35.656 -16.388 -22.728  0.00  0.00    +0.105 C 
BRANCH  18  21
ATOM     19  O   UNL     1      34.310 -19.754 -22.309  0.00  0.00    -0.449 OA
ATOM     20  N   UNL     1      35.415 -18.212 -21.077  0.00  0.00    -0.373 NA
ATOM     21  C   UNL     1      35.185 -17.757 -22.333  0.00  0.00    +0.134 C 
ATOM     22  C   UNL     1      34.526 -18.661 -23.093  0.00  0.00    +0.216 C 
ATOM     23  C   UNL     1      34.871 -19.408 -21.118  0.00  0.00    +0.277 C 
ATOM     24  C   UNL     1      34.027 -18.719 -24.472  0.00  0.00    +0.055 C 
BRANCH  23  25
ATOM     25  C   UNL     1      34.783 -20.405 -20.088  0.00  0.00    +0.066 C 
ATOM     26  C   UNL     1      35.941 -20.872 -19.459  0.00  0.00    +0.006 C 
ATOM     27  C   UNL     1      33.538 -20.917 -19.710  0.00  0.00    +0.006 C 
ATOM     28  C   UNL     1      35.854 -21.842 -18.461  0.00  0.00    +0.000 C 
ATOM     29  C   UNL     1      33.452 -21.886 -18.711  0.00  0.00    +0.000 C 
ATOM     30  C   UNL     1      34.610 -22.349 -18.086  0.00  0.00    +0.000 C 
ENDBRANCH  23  25
ENDBRANCH  18  21
ENDBRANCH  17  18
ENDBRANCH   1  17
TORSDOF 7
ENDMDL
MODEL 5
REMARK VINA RESULT:     -11.4      2.429      3.948
REMARK  Name = 154000
REMARK  7 active torsions:
REMARK  status: ('A' for Active; 'I' for Inactive)
REMARK    1  A    between atoms: O_1  and  C_5
REMARK    2  A    between atoms: O_1  and  C_17
REMARK    3  A    between atoms: C_2  and  C_8
REMARK    4  A    between atoms: C_8  and  C_13
REMARK    5  A    between atoms: C_17  and  C_18
REMARK    6  A    between atoms: C_18  and  C_21
REMARK    7  A    between atoms: C_23  and  C_25
REMARK                            x       y       z     vdW  Elec       q    Type
REMARK                         _______ _______ _______ _____ _____    ______ ____
ROOT
ATOM      1  O   UNL     1      34.831 -15.473 -23.714  0.00  0.00    -0.475 OA
ENDROOT
BRANCH   1   5
ATOM      2  C   UNL     1      35.110 -19.176 -21.900  0.00  0.00    -0.021 C 
ATOM      3  C   UNL     1      34.680 -19.094 -23.217  0.00  0.00    -0.001 C 
ATOM      4  C   UNL     1      35.447 -18.039 -21.182  0.00  0.00    -0.001 C 
ATOM      5  C   UNL     1      34.922 -16.692 -23.118  0.00  0.00    +0.139 C 
ATOM      6  C   UNL     1      34.586 -17.844 -23.829  0.00  0.00    +0.037 C 
ATOM      7  C   UNL     1      35.352 -16.790 -21.794  0.00  0.00    +0.037 C 
BRANCH   2   8
ATOM      8  C   UNL     1      35.210 -20.528 -21.238  0.00  0.00    +0.047 C 
BRANCH   8  13
ATOM      9  O   UNL     1      33.059 -22.033 -19.014  0.00  0.00    -0.346 OA
ATOM     10  O   UNL     1      36.504 -21.555 -18.703  0.00  0.00    -0.272 OA
ATOM     11  O   UNL     1      32.270 -20.434 -20.462  0.00  0.00    -0.247 OA
ATOM     12  N   UNL     1      34.328 -22.362 -18.495  0.00  0.00    -0.144 N 
ATOM     13  C   UNL     1      34.626 -20.519 -19.839  0.00  0.00    +0.184 C 
ATOM     14  C   UNL     1      35.310 -21.517 -18.955  0.00  0.00    +0.264 C 
ATOM     15  C   UNL     1      33.183 -20.951 -19.840  0.00  0.00    +0.348 C 
ATOM     16  H   UNL     1      34.492 -23.109 -17.876  0.00  0.00    +0.196 HD
ENDBRANCH   8  13
ENDBRANCH   2   8
ENDBRANCH   1   5
BRANCH   1  17
ATOM     17  C   UNL     1      34.487 -14.366 -22.880  0.00  0.00    +0.213 C 
BRANCH  17  18
ATOM     18  C   UNL     1      33.158 -13.771 -23.336  0.00  0.00    +0.105 C 
BRANCH  18  21
ATOM     19  O   UNL     1      31.965 -11.452 -20.782  0.00  0.00    -0.449 OA
ATOM     20  N   UNL     1      32.612 -11.391 -22.949  0.00  0.00    -0.373 NA
ATOM     21  C   UNL     1      32.688 -12.650 -22.454  0.00  0.00    +0.134 C 
ATOM     22  C   UNL     1      32.307 -12.716 -21.158  0.00  0.00    +0.216 C 
ATOM     23  C   UNL     1      32.174 -10.717 -21.909  0.00  0.00    +0.277 C 
ATOM     24  C   UNL     1      32.188 -13.770 -20.145  0.00  0.00    +0.055 C 
BRANCH  23  25
ATOM     25  C   UNL     1      31.885  -9.315 -21.786  0.00  0.00    +0.066 C 
ATOM     26  C   UNL     1      32.210  -8.629 -20.612  0.00  0.00    +0.006 C 
ATOM     27  C   UNL     1      31.274  -8.629 -22.840  0.00  0.00    +0.006 C 
ATOM     28  C   UNL     1      31.926  -7.269 -20.494  0.00  0.00    +0.000 C 
ATOM     29  C   UNL     1      30.991  -7.269 -22.721  0.00  0.00    +0.000 C 
ATOM     30  C   UNL     1      31.317  -6.588 -21.548  0.00  0.00    +0.000 C 
ENDBRANCH  23  25
ENDBRANCH  18  21
ENDBRANCH  17  18
ENDBRANCH   1  17
TORSDOF 7
ENDMDL
MODEL 6
REMARK VINA RESULT:     -11.4      1.071      1.488
REMARK  Name = 154000
REMARK  7 active torsions:
REMARK  status: ('A' for Active; 'I' for Inactive)
REMARK    1  A    between atoms: O_1  and  C_5
REMARK    2  A    between atoms: O_1  and  C_17
REMARK    3  A    between atoms: C_2  and  C_8
REMARK    4  A    between atoms: C_8  and  C_13
REMARK    5  A    between atoms: C_17  and  C_18
REMARK    6  A    between atoms: C_18  and  C_21
REMARK    7  A    between atoms: C_23  and  C_25
REMARK                            x       y       z     vdW  Elec       q    Type
REMARK                         _______ _______ _______ _____ _____    ______ ____
ROOT
ATOM      1  O   UNL     1      35.955 -19.154 -21.005  0.00  0.00    -0.475 OA
ENDROOT
BRANCH   1   5
ATOM      2  C   UNL     1      34.185 -22.138 -18.758  0.00  0.00    -0.021 C 
ATOM      3  C   UNL     1      35.566 -22.010 -18.753  0.00  0.00    -0.001 C 
ATOM      4  C   UNL     1      33.388 -21.284 -19.505  0.00  0.00    -0.001 C 
ATOM      5  C   UNL     1      35.373 -20.137 -20.266  0.00  0.00    +0.139 C 
ATOM      6  C   UNL     1      36.164 -21.003 -19.511  0.00  0.00    +0.037 C 
ATOM      7  C   UNL     1      33.985 -20.278 -20.263  0.00  0.00    +0.037 C 
BRANCH   2   8
ATOM      8  C   UNL     1      33.540 -23.228 -17.940  0.00  0.00    +0.047 C 
BRANCH   8  13
ATOM      9  O   UNL     1      31.912 -23.864 -14.976  0.00  0.00    -0.346 OA
ATOM     10  O   UNL     1      35.351 -23.733 -15.568  0.00  0.00    -0.272 OA
ATOM     11  O   UNL     1      30.885 -22.597 -16.594  0.00  0.00    -0.247 OA
ATOM     12  N   UNL     1      33.249 -24.200 -14.678  0.00  0.00    -0.144 N 
ATOM     13  C   UNL     1      33.314 -22.800 -16.502  0.00  0.00    +0.184 C 
ATOM     14  C   UNL     1      34.136 -23.619 -15.553  0.00  0.00    +0.264 C 
ATOM     15  C   UNL     1      31.892 -23.046 -16.071  0.00  0.00    +0.348 C 
ATOM     16  H   UNL     1      33.516 -24.782 -13.931  0.00  0.00    +0.196 HD
ENDBRANCH   8  13
ENDBRANCH   2   8
ENDBRANCH   1   5
BRANCH   1  17
ATOM     17  C   UNL     1      35.083 -18.230 -21.657  0.00  0.00    +0.213 C 
BRANCH  17  18
ATOM     18  C   UNL     1      35.672 -16.824 -21.580  0.00  0.00    +0.105 C 
BRANCH  18  21
ATOM     19  O   UNL     1      33.781 -14.765 -23.927  0.00  0.00    -0.449 OA
ATOM     20  N   UNL     1      34.527 -14.643 -21.795  0.00  0.00    -0.373 NA
ATOM     21  C   UNL     1      34.884 -15.818 -22.368  0.00  0.00    +0.134 C 
ATOM     22  C   UNL     1      34.450 -15.918 -23.646  0.00  0.00    +0.216 C 
ATOM     23  C   UNL     1      33.872 -14.054 -22.770  0.00  0.00    +0.277 C 
ATOM     24  C   UNL     1      34.535 -16.919 -24.715  0.00  0.00    +0.055 C 
BRANCH  23  25
ATOM     25  C   UNL     1      33.235 -12.766 -22.792  0.00  0.00    +0.066 C 
ATOM     26  C   UNL     1      33.733 -11.747 -23.609  0.00  0.00    +0.006 C 
ATOM     27  C   UNL     1      32.113 -12.524 -21.994  0.00  0.00    +0.006 C 
ATOM     28  C   UNL     1      33.115 -10.498 -23.628  0.00  0.00    +0.000 C 
ATOM     29  C   UNL     1      31.495 -11.274 -22.013  0.00  0.00    +0.000 C 
ATOM     30  C   UNL     1      31.995 -10.260 -22.830  0.00  0.00    +0.000 C 
ENDBRANCH  23  25
ENDBRANCH  18  21
ENDBRANCH  17  18
ENDBRANCH   1  17
TORSDOF 7
ENDMDL
MODEL 7
REMARK VINA RESULT:     -11.3      3.143      4.421
REMARK  Name = 154000
REMARK  7 active torsions:
REMARK  status: ('A' for Active; 'I' for Inactive)
REMARK    1  A    between atoms: O_1  and  C_5
REMARK    2  A    between atoms: O_1  and  C_17
REMARK    3  A    between atoms: C_2  and  C_8
REMARK    4  A    between atoms: C_8  and  C_13
REMARK    5  A    between atoms: C_17  and  C_18
REMARK    6  A    between atoms: C_18  and  C_21
REMARK    7  A    between atoms: C_23  and  C_25
REMARK                            x       y       z     vdW  Elec       q    Type
REMARK                         _______ _______ _______ _____ _____    ______ ____
ROOT
ATOM      1  O   UNL     1      34.882 -15.407 -23.616  0.00  0.00    -0.475 OA
ENDROOT
BRANCH   1   5
ATOM      2  C   UNL     1      35.117 -19.145 -21.867  0.00  0.00    -0.021 C 
ATOM      3  C   UNL     1      35.459 -18.024 -21.125  0.00  0.00    -0.001 C 
ATOM      4  C   UNL     1      34.699 -19.035 -23.184  0.00  0.00    -0.001 C 
ATOM      5  C   UNL     1      34.960 -16.638 -23.039  0.00  0.00    +0.139 C 
ATOM      6  C   UNL     1      35.380 -16.763 -21.715  0.00  0.00    +0.037 C 
ATOM      7  C   UNL     1      34.620 -17.774 -23.774  0.00  0.00    +0.037 C 
BRANCH   2   8
ATOM      8  C   UNL     1      35.205 -20.509 -21.229  0.00  0.00    +0.047 C 
BRANCH   8  13
ATOM      9  O   UNL     1      33.049 -22.062 -19.042  0.00  0.00    -0.346 OA
ATOM     10  O   UNL     1      36.487 -21.554 -18.695  0.00  0.00    -0.272 OA
ATOM     11  O   UNL     1      32.257 -20.454 -20.478  0.00  0.00    -0.247 OA
ATOM     12  N   UNL     1      34.318 -22.385 -18.516  0.00  0.00    -0.144 N 
ATOM     13  C   UNL     1      34.608 -20.523 -19.835  0.00  0.00    +0.184 C 
ATOM     14  C   UNL     1      35.295 -21.525 -18.957  0.00  0.00    +0.264 C 
ATOM     15  C   UNL     1      33.170 -20.969 -19.854  0.00  0.00    +0.348 C 
ATOM     16  H   UNL     1      34.483 -23.138 -17.904  0.00  0.00    +0.196 HD
ENDBRANCH   8  13
ENDBRANCH   2   8
ENDBRANCH   1   5
BRANCH   1  17
ATOM     17  C   UNL     1      34.335 -14.353 -22.824  0.00  0.00    +0.213 C 
BRANCH  17  18
ATOM     18  C   UNL     1      33.254 -13.622 -23.615  0.00  0.00    +0.105 C 
BRANCH  18  21
ATOM     19  O   UNL     1      32.556 -10.338 -22.184  0.00  0.00    -0.449 OA
ATOM     20  N   UNL     1      33.708 -11.211 -23.924  0.00  0.00    -0.373 NA
ATOM     21  C   UNL     1      33.101 -12.186 -23.204  0.00  0.00    +0.134 C 
ATOM     22  C   UNL     1      32.404 -11.691 -22.156  0.00  0.00    +0.216 C 
ATOM     23  C   UNL     1      33.348 -10.129 -23.271  0.00  0.00    +0.277 C 
ATOM     24  C   UNL     1      31.582 -12.249 -21.076  0.00  0.00    +0.055 C 
BRANCH  23  25
ATOM     25  C   UNL     1      33.672  -8.754 -23.537  0.00  0.00    +0.066 C 
ATOM     26  C   UNL     1      34.951  -8.265 -23.258  0.00  0.00    +0.006 C 
ATOM     27  C   UNL     1      32.707  -7.897 -24.074  0.00  0.00    +0.006 C 
ATOM     28  C   UNL     1      35.263  -6.930 -23.514  0.00  0.00    +0.000 C 
ATOM     29  C   UNL     1      33.019  -6.562 -24.331  0.00  0.00    +0.000 C 
ATOM     30  C   UNL     1      34.297  -6.078 -24.051  0.00  0.00    +0.000 C 
ENDBRANCH  23  25
ENDBRANCH  18  21
ENDBRANCH  17  18
ENDBRANCH   1  17
TORSDOF 7
ENDMDL
MODEL 8
REMARK VINA RESULT:     -11.3      2.959      5.213
REMARK  Name = 154000
REMARK  7 active torsions:
REMARK  status: ('A' for Active; 'I' for Inactive)
REMARK    1  A    between atoms: O_1  and  C_5
REMARK    2  A    between atoms: O_1  and  C_17
REMARK    3  A    between atoms: C_2  and  C_8
REMARK    4  A    between atoms: C_8  and  C_13
REMARK    5  A    between atoms: C_17  and  C_18
REMARK    6  A    between atoms: C_18  and  C_21
REMARK    7  A    between atoms: C_23  and  C_25
REMARK                            x       y       z     vdW  Elec       q    Type
REMARK                         _______ _______ _______ _____ _____    ______ ____
ROOT
ATOM      1  O   UNL     1      33.807 -14.641 -25.017  0.00  0.00    -0.475 OA
ENDROOT
BRANCH   1   5
ATOM      2  C   UNL     1      34.918 -18.123 -23.086  0.00  0.00    -0.021 C 
ATOM      3  C   UNL     1      35.278 -16.898 -22.543  0.00  0.00    -0.001 C 
ATOM      4  C   UNL     1      34.192 -18.200 -24.265  0.00  0.00    -0.001 C 
ATOM      5  C   UNL     1      34.173 -15.787 -24.381  0.00  0.00    +0.139 C 
ATOM      6  C   UNL     1      34.903 -15.723 -23.194  0.00  0.00    +0.037 C 
ATOM      7  C   UNL     1      33.818 -17.025 -24.916  0.00  0.00    +0.037 C 
BRANCH   2   8
ATOM      8  C   UNL     1      35.324 -19.393 -22.381  0.00  0.00    +0.047 C 
BRANCH   8  13
ATOM      9  O   UNL     1      35.136 -20.983 -19.336  0.00  0.00    -0.346 OA
ATOM     10  O   UNL     1      37.678 -18.913 -20.540  0.00  0.00    -0.272 OA
ATOM     11  O   UNL     1      33.209 -20.432 -20.457  0.00  0.00    -0.247 OA
ATOM     12  N   UNL     1      36.469 -20.524 -19.369  0.00  0.00    -0.144 N 
ATOM     13  C   UNL     1      35.295 -19.239 -20.873  0.00  0.00    +0.184 C 
ATOM     14  C   UNL     1      36.643 -19.502 -20.271  0.00  0.00    +0.264 C 
ATOM     15  C   UNL     1      34.396 -20.263 -20.232  0.00  0.00    +0.348 C 
ATOM     16  H   UNL     1      37.191 -20.893 -18.811  0.00  0.00    +0.196 HD
ENDBRANCH   8  13
ENDBRANCH   2   8
ENDBRANCH   1   5
BRANCH   1  17
ATOM     17  C   UNL     1      32.996 -13.722 -24.285  0.00  0.00    +0.213 C 
BRANCH  17  18
ATOM     18  C   UNL     1      33.813 -12.482 -23.932  0.00  0.00    +0.105 C 
BRANCH  18  21
ATOM     19  O   UNL     1      31.910 -10.697 -21.380  0.00  0.00    -0.449 OA
ATOM     20  N   UNL     1      33.094 -10.218 -23.247  0.00  0.00    -0.373 NA
ATOM     21  C   UNL     1      33.088 -11.551 -23.004  0.00  0.00    +0.134 C 
ATOM     22  C   UNL     1      32.386 -11.866 -21.892  0.00  0.00    +0.216 C 
ATOM     23  C   UNL     1      32.376  -9.757 -22.248  0.00  0.00    +0.277 C 
ATOM     24  C   UNL     1      32.048 -13.098 -21.169  0.00  0.00    +0.055 C 
BRANCH  23  25
ATOM     25  C   UNL     1      32.012  -8.402 -21.935  0.00  0.00    +0.066 C 
ATOM     26  C   UNL     1      31.095  -7.716 -22.738  0.00  0.00    +0.006 C 
ATOM     27  C   UNL     1      32.574  -7.762 -20.828  0.00  0.00    +0.006 C 
ATOM     28  C   UNL     1      30.745  -6.401 -22.435  0.00  0.00    +0.000 C 
ATOM     29  C   UNL     1      32.223  -6.446 -20.524  0.00  0.00    +0.000 C 
ATOM     30  C   UNL     1      31.308  -5.766 -21.328  0.00  0.00    +0.000 C 
ENDBRANCH  23  25
ENDBRANCH  18  21
ENDBRANCH  17  18
ENDBRANCH   1  17
TORSDOF 7
ENDMDL
MODEL 9
REMARK VINA RESULT:     -11.2      3.316      5.495
REMARK  Name = 154000
REMARK  7 active torsions:
REMARK  status: ('A' for Active; 'I' for Inactive)
REMARK    1  A    between atoms: O_1  and  C_5
REMARK    2  A    between atoms: O_1  and  C_17
REMARK    3  A    between atoms: C_2  and  C_8
REMARK    4  A    between atoms: C_8  and  C_13
REMARK    5  A    between atoms: C_17  and  C_18
REMARK    6  A    between atoms: C_18  and  C_21
REMARK    7  A    between atoms: C_23  and  C_25
REMARK                            x       y       z     vdW  Elec       q    Type
REMARK                         _______ _______ _______ _____ _____    ______ ____
ROOT
ATOM      1  O   UNL     1      34.406 -13.996 -23.976  0.00  0.00    -0.475 OA
ENDROOT
BRANCH   1   5
ATOM      2  C   UNL     1      34.991 -17.872 -22.664  0.00  0.00    -0.021 C 
ATOM      3  C   UNL     1      34.620 -17.648 -23.982  0.00  0.00    -0.001 C 
ATOM      4  C   UNL     1      35.168 -16.820 -21.779  0.00  0.00    -0.001 C 
ATOM      5  C   UNL     1      34.598 -15.273 -23.545  0.00  0.00    +0.139 C 
ATOM      6  C   UNL     1      34.423 -16.341 -24.425  0.00  0.00    +0.037 C 
ATOM      7  C   UNL     1      34.971 -15.512 -22.222  0.00  0.00    +0.037 C 
BRANCH   2   8
ATOM      8  C   UNL     1      35.202 -19.287 -22.185  0.00  0.00    +0.047 C 
BRANCH   8  13
ATOM      9  O   UNL     1      35.090 -21.337 -19.424  0.00  0.00    -0.346 OA
ATOM     10  O   UNL     1      37.636 -19.151 -20.391  0.00  0.00    -0.272 OA
ATOM     11  O   UNL     1      33.136 -20.577 -20.363  0.00  0.00    -0.247 OA
ATOM     12  N   UNL     1      36.432 -20.904 -19.440  0.00  0.00    -0.144 N 
ATOM     13  C   UNL     1      35.235 -19.374 -20.671  0.00  0.00    +0.184 C 
ATOM     14  C   UNL     1      36.598 -19.755 -20.176  0.00  0.00    +0.264 C 
ATOM     15  C   UNL     1      34.335 -20.470 -20.163  0.00  0.00    +0.348 C 
ATOM     16  H   UNL     1      37.165 -21.372 -18.978  0.00  0.00    +0.196 HD
ENDBRANCH   8  13
ENDBRANCH   2   8
ENDBRANCH   1   5
BRANCH   1  17
ATOM     17  C   UNL     1      33.056 -13.562 -24.139  0.00  0.00    +0.213 C 
BRANCH  17  18
ATOM     18  C   UNL     1      32.501 -13.090 -22.798  0.00  0.00    +0.105 C 
BRANCH  18  21
ATOM     19  O   UNL     1      32.076  -9.542 -22.057  0.00  0.00    -0.449 OA
ATOM     20  N   UNL     1      33.271 -10.840 -23.473  0.00  0.00    -0.373 NA
ATOM     21  C   UNL     1      32.486 -11.595 -22.667  0.00  0.00    +0.134 C 
ATOM     22  C   UNL     1      31.759 -10.843 -21.808  0.00  0.00    +0.216 C 
ATOM     23  C   UNL     1      32.986  -9.623 -23.067  0.00  0.00    +0.277 C 
ATOM     24  C   UNL     1      30.778 -11.101 -20.748  0.00  0.00    +0.055 C 
BRANCH  23  25
ATOM     25  C   UNL     1      33.497  -8.363 -23.532  0.00  0.00    +0.066 C 
ATOM     26  C   UNL     1      34.787  -7.954 -23.181  0.00  0.00    +0.006 C 
ATOM     27  C   UNL     1      32.706  -7.538 -24.336  0.00  0.00    +0.006 C 
ATOM     28  C   UNL     1      35.281  -6.730 -23.631  0.00  0.00    +0.000 C 
ATOM     29  C   UNL     1      33.200  -6.314 -24.787  0.00  0.00    +0.000 C 
ATOM     30  C   UNL     1      34.488  -5.910 -24.435  0.00  0.00    +0.000 C 
ENDBRANCH  23  25
ENDBRANCH  18  21
ENDBRANCH  17  18
ENDBRANCH   1  17
TORSDOF 7
ENDMDL
