MODEL 1
REMARK VINA RESULT:     -11.1      0.000      0.000
REMARK  Name = 6957673
REMARK  9 active torsions:
REMARK  status: ('A' for Active; 'I' for Inactive)
REMARK    1  A    between atoms: C_1  and  C_4
REMARK    2  A    between atoms: C_1  and  N_17
REMARK    3  A    between atoms: C_1  and  C_26
REMARK    4  A    between atoms: N_3  and  C_6
REMARK    5  A    between atoms: C_11  and  C_13
REMARK    6  A    between atoms: C_13  and  O_14
REMARK    7  A    between atoms: C_18  and  C_20
REMARK    8  A    between atoms: C_26  and  C_27
REMARK    9  A    between atoms: C_32  and  O_33
REMARK                            x       y       z     vdW  Elec       q    Type
REMARK                         _______ _______ _______ _____ _____    ______ ____
ROOT
ATOM      1  C   UNL     1      33.973 -23.851 -15.058  0.00  0.00    +0.153 C 
ENDROOT
BRANCH   1   4
ATOM      2  O   UNL     1      32.203 -23.614 -13.436  0.00  0.00    -0.273 OA
ATOM      3  N   UNL     1      31.719 -23.279 -15.708  0.00  0.00    -0.283 N 
ATOM      4  C   UNL     1      32.531 -23.589 -14.619  0.00  0.00    +0.244 C 
ATOM      5  H   UNL     1      32.159 -23.267 -16.587  0.00  0.00    +0.155 HD
BRANCH   3   6
ATOM      6  C   UNL     1      30.337 -22.978 -15.697  0.00  0.00    +0.050 C 
ATOM      7  C   UNL     1      29.554 -23.351 -16.777  0.00  0.00    +0.015 C 
ATOM      8  C   UNL     1      29.794 -22.318 -14.606  0.00  0.00    +0.015 C 
ATOM      9  C   UNL     1      28.191 -23.055 -16.767  0.00  0.00    +0.008 C 
ATOM     10  C   UNL     1      28.431 -22.024 -14.595  0.00  0.00    +0.008 C 
ATOM     11  C   UNL     1      27.629 -22.392 -15.676  0.00  0.00    +0.076 C 
BRANCH  11  13
ATOM     12  O   UNL     1      25.569 -21.616 -16.613  0.00  0.00    -0.245 OA
ATOM     13  C   UNL     1      26.208 -22.085 -15.665  0.00  0.00    +0.338 C 
BRANCH  13  14
ATOM     14  O   UNL     1      25.623 -22.373 -14.470  0.00  0.00    -0.477 OA
ATOM     15  H   UNL     1      25.382 -21.681 -13.887  0.00  0.00    +0.295 HD
ENDBRANCH  13  14
ENDBRANCH  11  13
ENDBRANCH   3   6
ENDBRANCH   1   4
BRANCH   1  17
ATOM     16  O   UNL     1      33.550 -24.272 -17.867  0.00  0.00    -0.270 OA
ATOM     17  N   UNL     1      34.259 -22.918 -16.122  0.00  0.00    -0.295 N 
ATOM     18  C   UNL     1      34.019 -23.213 -17.456  0.00  0.00    +0.246 C 
ATOM     19  H   UNL     1      34.638 -22.039 -15.891  0.00  0.00    +0.150 HD
BRANCH  18  20
ATOM     20  C   UNL     1      34.392 -22.158 -18.432  0.00  0.00    +0.053 C 
ATOM     21  C   UNL     1      35.726 -21.851 -18.605  0.00  0.00    +0.005 C 
ATOM     22  C   UNL     1      33.393 -21.518 -19.135  0.00  0.00    +0.005 C 
ATOM     23  C   UNL     1      36.076 -20.861 -19.522  0.00  0.00    +0.000 C 
ATOM     24  C   UNL     1      33.742 -20.527 -20.052  0.00  0.00    +0.000 C 
ATOM     25  C   UNL     1      35.084 -20.198 -20.246  0.00  0.00    +0.000 C 
ENDBRANCH  18  20
ENDBRANCH   1  17
BRANCH   1  26
ATOM     26  C   UNL     1      34.958 -23.662 -13.899  0.00  0.00    +0.055 C 
BRANCH  26  27
ATOM     27  C   UNL     1      36.182 -24.538 -14.003  0.00  0.00    -0.020 C 
ATOM     28  C   UNL     1      36.075 -25.788 -14.593  0.00  0.00    -0.001 C 
ATOM     29  C   UNL     1      37.392 -24.077 -13.507  0.00  0.00    -0.001 C 
ATOM     30  C   UNL     1      37.207 -26.598 -14.688  0.00  0.00    +0.036 C 
ATOM     31  C   UNL     1      38.523 -24.887 -13.603  0.00  0.00    +0.036 C 
ATOM     32  C   UNL     1      38.430 -26.147 -14.193  0.00  0.00    +0.134 C 
BRANCH  32  33
ATOM     33  O   UNL     1      39.535 -26.937 -14.287  0.00  0.00    -0.506 OA
ATOM     34  H   UNL     1      39.859 -27.191 -15.129  0.00  0.00    +0.292 HD
ENDBRANCH  32  33
ENDBRANCH  26  27
ENDBRANCH   1  26
TORSDOF 9
ENDMDL
MODEL 2
REMARK VINA RESULT:     -11.0      2.782      7.702
REMARK  Name = 6957673
REMARK  9 active torsions:
REMARK  status: ('A' for Active; 'I' for Inactive)
REMARK    1  A    between atoms: C_1  and  C_4
REMARK    2  A    between atoms: C_1  and  N_17
REMARK    3  A    between atoms: C_1  and  C_26
REMARK    4  A    between atoms: N_3  and  C_6
REMARK    5  A    between atoms: C_11  and  C_13
REMARK    6  A    between atoms: C_13  and  O_14
REMARK    7  A    between atoms: C_18  and  C_20
REMARK    8  A    between atoms: C_26  and  C_27
REMARK    9  A    between atoms: C_32  and  O_33
REMARK                            x       y       z     vdW  Elec       q    Type
REMARK                         _______ _______ _______ _____ _____    ______ ____
ROOT
ATOM      1  C   UNL     1      33.785 -23.392 -16.012  0.00  0.00    +0.153 C 
ENDROOT
BRANCH   1   4
ATOM      2  O   UNL     1      35.793 -22.715 -17.167  0.00  0.00    -0.273 OA
ATOM      3  N   UNL     1      33.710 -22.030 -18.005  0.00  0.00    -0.283 N 
ATOM      4  C   UNL     1      34.567 -22.665 -17.109  0.00  0.00    +0.244 C 
ATOM      5  H   UNL     1      32.748 -22.126 -17.826  0.00  0.00    +0.155 HD
BRANCH   3   6
ATOM      6  C   UNL     1      34.062 -21.264 -19.141  0.00  0.00    +0.050 C 
ATOM      7  C   UNL     1      35.399 -21.125 -19.476  0.00  0.00    +0.015 C 
ATOM      8  C   UNL     1      33.063 -20.672 -19.896  0.00  0.00    +0.015 C 
ATOM      9  C   UNL     1      35.747 -20.370 -20.597  0.00  0.00    +0.008 C 
ATOM     10  C   UNL     1      33.411 -19.919 -21.018  0.00  0.00    +0.008 C 
ATOM     11  C   UNL     1      34.753 -19.768 -21.368  0.00  0.00    +0.076 C 
BRANCH  11  13
ATOM     12  O   UNL     1      34.456 -18.907 -23.580  0.00  0.00    -0.245 OA
ATOM     13  C   UNL     1      35.115 -18.984 -22.537  0.00  0.00    +0.338 C 
BRANCH  13  14
ATOM     14  O   UNL     1      36.289 -18.315 -22.372  0.00  0.00    -0.477 OA
ATOM     15  H   UNL     1      36.309 -17.517 -21.882  0.00  0.00    +0.295 HD
ENDBRANCH  13  14
ENDBRANCH  11  13
ENDBRANCH   3   6
ENDBRANCH   1   4
BRANCH   1  17
ATOM     16  O   UNL     1      35.467 -25.612 -15.314  0.00  0.00    -0.270 OA
ATOM     17  N   UNL     1      34.662 -23.483 -14.870  0.00  0.00    -0.295 N 
ATOM     18  C   UNL     1      35.440 -24.602 -14.614  0.00  0.00    +0.246 C 
ATOM     19  H   UNL     1      34.710 -22.720 -14.248  0.00  0.00    +0.150 HD
BRANCH  18  20
ATOM     20  C   UNL     1      36.269 -24.551 -13.383  0.00  0.00    +0.053 C 
ATOM     21  C   UNL     1      36.223 -23.419 -12.595  0.00  0.00    +0.005 C 
ATOM     22  C   UNL     1      37.058 -25.636 -13.066  0.00  0.00    +0.005 C 
ATOM     23  C   UNL     1      37.000 -23.371 -11.439  0.00  0.00    +0.000 C 
ATOM     24  C   UNL     1      37.837 -25.589 -11.909  0.00  0.00    +0.000 C 
ATOM     25  C   UNL     1      37.808 -24.456 -11.096  0.00  0.00    +0.000 C 
ENDBRANCH  18  20
ENDBRANCH   1  17
BRANCH   1  26
ATOM     26  C   UNL     1      32.500 -22.642 -15.645  0.00  0.00    +0.055 C 
BRANCH  26  27
ATOM     27  C   UNL     1      31.398 -23.546 -15.150  0.00  0.00    -0.020 C 
ATOM     28  C   UNL     1      30.146 -23.478 -15.741  0.00  0.00    -0.001 C 
ATOM     29  C   UNL     1      31.658 -24.431 -14.115  0.00  0.00    -0.001 C 
ATOM     30  C   UNL     1      29.127 -24.313 -15.284  0.00  0.00    +0.036 C 
ATOM     31  C   UNL     1      30.638 -25.266 -13.658  0.00  0.00    +0.036 C 
ATOM     32  C   UNL     1      29.374 -25.207 -14.242  0.00  0.00    +0.134 C 
BRANCH  32  33
ATOM     33  O   UNL     1      28.380 -26.023 -13.796  0.00  0.00    -0.506 OA
ATOM     34  H   UNL     1      28.356 -26.921 -14.063  0.00  0.00    +0.292 HD
ENDBRANCH  32  33
ENDBRANCH  26  27
ENDBRANCH   1  26
TORSDOF 9
ENDMDL
MODEL 3
REMARK VINA RESULT:     -11.0      1.065      8.040
REMARK  Name = 6957673
REMARK  9 active torsions:
REMARK  status: ('A' for Active; 'I' for Inactive)
REMARK    1  A    between atoms: C_1  and  C_4
REMARK    2  A    between atoms: C_1  and  N_17
REMARK    3  A    between atoms: C_1  and  C_26
REMARK    4  A    between atoms: N_3  and  C_6
REMARK    5  A    between atoms: C_11  and  C_13
REMARK    6  A    between atoms: C_13  and  O_14
REMARK    7  A    between atoms: C_18  and  C_20
REMARK    8  A    between atoms: C_26  and  C_27
REMARK    9  A    between atoms: C_32  and  O_33
REMARK                            x       y       z     vdW  Elec       q    Type
REMARK                         _______ _______ _______ _____ _____    ______ ____
ROOT
ATOM      1  C   UNL     1      32.671 -23.175 -14.978  0.00  0.00    +0.153 C 
ENDROOT
BRANCH   1   4
ATOM      2  O   UNL     1      33.848 -24.322 -13.211  0.00  0.00    -0.273 OA
ATOM      3  N   UNL     1      34.996 -23.793 -15.189  0.00  0.00    -0.283 N 
ATOM      4  C   UNL     1      33.899 -23.819 -14.330  0.00  0.00    +0.244 C 
ATOM      5  H   UNL     1      34.848 -23.381 -16.069  0.00  0.00    +0.155 HD
BRANCH   3   6
ATOM      6  C   UNL     1      36.297 -24.291 -14.943  0.00  0.00    +0.050 C 
ATOM      7  C   UNL     1      37.373 -23.420 -14.978  0.00  0.00    +0.015 C 
ATOM      8  C   UNL     1      36.468 -25.639 -14.671  0.00  0.00    +0.015 C 
ATOM      9  C   UNL     1      38.657 -23.910 -14.736  0.00  0.00    +0.008 C 
ATOM     10  C   UNL     1      37.751 -26.128 -14.427  0.00  0.00    +0.008 C 
ATOM     11  C   UNL     1      38.845 -25.264 -14.460  0.00  0.00    +0.076 C 
BRANCH  11  13
ATOM     12  O   UNL     1      40.467 -26.955 -13.978  0.00  0.00    -0.245 OA
ATOM     13  C   UNL     1      40.183 -25.774 -14.205  0.00  0.00    +0.338 C 
BRANCH  13  14
ATOM     14  O   UNL     1      41.129 -24.797 -14.242  0.00  0.00    -0.477 OA
ATOM     15  H   UNL     1      41.531 -24.503 -13.449  0.00  0.00    +0.295 HD
ENDBRANCH  13  14
ENDBRANCH  11  13
ENDBRANCH   3   6
ENDBRANCH   1   4
BRANCH   1  17
ATOM     16  O   UNL     1      33.388 -24.197 -17.564  0.00  0.00    -0.270 OA
ATOM     17  N   UNL     1      33.149 -22.410 -16.104  0.00  0.00    -0.295 N 
ATOM     18  C   UNL     1      33.472 -22.995 -17.320  0.00  0.00    +0.246 C 
ATOM     19  H   UNL     1      33.249 -21.435 -16.007  0.00  0.00    +0.150 HD
BRANCH  18  20
ATOM     20  C   UNL     1      33.975 -22.075 -18.371  0.00  0.00    +0.053 C 
ATOM     21  C   UNL     1      35.333 -22.001 -18.599  0.00  0.00    +0.005 C 
ATOM     22  C   UNL     1      33.067 -21.324 -19.088  0.00  0.00    +0.005 C 
ATOM     23  C   UNL     1      35.805 -21.138 -19.587  0.00  0.00    +0.000 C 
ATOM     24  C   UNL     1      33.538 -20.459 -20.077  0.00  0.00    +0.000 C 
ATOM     25  C   UNL     1      34.907 -20.366 -20.326  0.00  0.00    +0.000 C 
ENDBRANCH  18  20
ENDBRANCH   1  17
BRANCH   1  26
ATOM     26  C   UNL     1      31.658 -24.229 -15.436  0.00  0.00    +0.055 C 
BRANCH  26  27
ATOM     27  C   UNL     1      30.236 -23.723 -15.464  0.00  0.00    -0.020 C 
ATOM     28  C   UNL     1      29.351 -24.237 -16.399  0.00  0.00    -0.001 C 
ATOM     29  C   UNL     1      29.841 -22.756 -14.554  0.00  0.00    -0.001 C 
ATOM     30  C   UNL     1      28.037 -23.769 -16.425  0.00  0.00    +0.036 C 
ATOM     31  C   UNL     1      28.527 -22.289 -14.581  0.00  0.00    +0.036 C 
ATOM     32  C   UNL     1      27.626 -22.796 -15.516  0.00  0.00    +0.134 C 
BRANCH  32  33
ATOM     33  O   UNL     1      26.343 -22.340 -15.541  0.00  0.00    -0.506 OA
ATOM     34  H   UNL     1      25.645 -22.889 -15.243  0.00  0.00    +0.292 HD
ENDBRANCH  32  33
ENDBRANCH  26  27
ENDBRANCH   1  26
TORSDOF 9
ENDMDL
MODEL 4
REMARK VINA RESULT:     -10.6      1.912      2.741
REMARK  Name = 6957673
REMARK  9 active torsions:
REMARK  status: ('A' for Active; 'I' for Inactive)
REMARK    1  A    between atoms: C_1  and  C_4
REMARK    2  A    between atoms: C_1  and  N_17
REMARK    3  A    between atoms: C_1  and  C_26
REMARK    4  A    between atoms: N_3  and  C_6
REMARK    5  A    between atoms: C_11  and  C_13
REMARK    6  A    between atoms: C_13  and  O_14
REMARK    7  A    between atoms: C_18  and  C_20
REMARK    8  A    between atoms: C_26  and  C_27
REMARK    9  A    between atoms: C_32  and  O_33
REMARK                            x       y       z     vdW  Elec       q    Type
REMARK                         _______ _______ _______ _____ _____    ______ ____
ROOT
ATOM      1  C   UNL     1      36.293 -22.875 -16.385  0.00  0.00    +0.153 C 
ENDROOT
BRANCH   1   4
ATOM      2  O   UNL     1      34.829 -22.022 -14.668  0.00  0.00    -0.273 OA
ATOM      3  N   UNL     1      33.955 -23.469 -16.296  0.00  0.00    -0.283 N 
ATOM      4  C   UNL     1      34.954 -22.740 -15.657  0.00  0.00    +0.244 C 
ATOM      5  H   UNL     1      34.225 -23.960 -17.104  0.00  0.00    +0.155 HD
BRANCH   3   6
ATOM      6  C   UNL     1      32.596 -23.586 -15.920  0.00  0.00    +0.050 C 
ATOM      7  C   UNL     1      32.245 -24.476 -14.918  0.00  0.00    +0.015 C 
ATOM      8  C   UNL     1      31.645 -22.808 -16.560  0.00  0.00    +0.015 C 
ATOM      9  C   UNL     1      30.905 -24.592 -14.546  0.00  0.00    +0.008 C 
ATOM     10  C   UNL     1      30.306 -22.923 -16.187  0.00  0.00    +0.008 C 
ATOM     11  C   UNL     1      29.936 -23.815 -15.180  0.00  0.00    +0.076 C 
BRANCH  11  13
ATOM     12  O   UNL     1      27.648 -23.127 -15.073  0.00  0.00    -0.245 OA
ATOM     13  C   UNL     1      28.540 -23.934 -14.791  0.00  0.00    +0.338 C 
BRANCH  13  14
ATOM     14  O   UNL     1      28.297 -25.058 -14.063  0.00  0.00    -0.477 OA
ATOM     15  H   UNL     1      28.820 -25.824 -14.194  0.00  0.00    +0.295 HD
ENDBRANCH  13  14
ENDBRANCH  11  13
ENDBRANCH   3   6
ENDBRANCH   1   4
BRANCH   1  17
ATOM     16  O   UNL     1      34.920 -22.870 -18.906  0.00  0.00    -0.270 OA
ATOM     17  N   UNL     1      36.330 -21.835 -17.384  0.00  0.00    -0.295 N 
ATOM     18  C   UNL     1      35.629 -21.922 -18.578  0.00  0.00    +0.246 C 
ATOM     19  H   UNL     1      36.873 -21.031 -17.210  0.00  0.00    +0.150 HD
BRANCH  18  20
ATOM     20  C   UNL     1      35.792 -20.779 -19.512  0.00  0.00    +0.053 C 
ATOM     21  C   UNL     1      37.034 -20.191 -19.637  0.00  0.00    +0.005 C 
ATOM     22  C   UNL     1      34.696 -20.342 -20.226  0.00  0.00    +0.005 C 
ATOM     23  C   UNL     1      37.187 -19.119 -20.515  0.00  0.00    +0.000 C 
ATOM     24  C   UNL     1      34.848 -19.269 -21.105  0.00  0.00    +0.000 C 
ATOM     25  C   UNL     1      36.093 -18.657 -21.249  0.00  0.00    +0.000 C 
ENDBRANCH  18  20
ENDBRANCH   1  17
BRANCH   1  26
ATOM     26  C   UNL     1      37.475 -22.736 -15.420  0.00  0.00    +0.055 C 
BRANCH  26  27
ATOM     27  C   UNL     1      37.455 -23.741 -14.295  0.00  0.00    -0.020 C 
ATOM     28  C   UNL     1      37.508 -23.294 -12.983  0.00  0.00    -0.001 C 
ATOM     29  C   UNL     1      37.380 -25.093 -14.592  0.00  0.00    -0.001 C 
ATOM     30  C   UNL     1      37.490 -24.223 -11.943  0.00  0.00    +0.036 C 
ATOM     31  C   UNL     1      37.362 -26.021 -13.551  0.00  0.00    +0.036 C 
ATOM     32  C   UNL     1      37.416 -25.587 -12.228  0.00  0.00    +0.134 C 
BRANCH  32  33
ATOM     33  O   UNL     1      37.397 -26.494 -11.213  0.00  0.00    -0.506 OA
ATOM     34  H   UNL     1      37.378 -26.200 -10.323  0.00  0.00    +0.292 HD
ENDBRANCH  32  33
ENDBRANCH  26  27
ENDBRANCH   1  26
TORSDOF 9
ENDMDL
MODEL 5
REMARK VINA RESULT:     -10.5      2.498      6.429
REMARK  Name = 6957673
REMARK  9 active torsions:
REMARK  status: ('A' for Active; 'I' for Inactive)
REMARK    1  A    between atoms: C_1  and  C_4
REMARK    2  A    between atoms: C_1  and  N_17
REMARK    3  A    between atoms: C_1  and  C_26
REMARK    4  A    between atoms: N_3  and  C_6
REMARK    5  A    between atoms: C_11  and  C_13
REMARK    6  A    between atoms: C_13  and  O_14
REMARK    7  A    between atoms: C_18  and  C_20
REMARK    8  A    between atoms: C_26  and  C_27
REMARK    9  A    between atoms: C_32  and  O_33
REMARK                            x       y       z     vdW  Elec       q    Type
REMARK                         _______ _______ _______ _____ _____    ______ ____
ROOT
ATOM      1  C   UNL     1      34.629 -23.450 -15.517  0.00  0.00    +0.153 C 
ENDROOT
BRANCH   1   4
ATOM      2  O   UNL     1      36.267 -21.870 -16.318  0.00  0.00    -0.273 OA
ATOM      3  N   UNL     1      34.400 -22.353 -17.656  0.00  0.00    -0.283 N 
ATOM      4  C   UNL     1      35.202 -22.448 -16.522  0.00  0.00    +0.244 C 
ATOM      5  H   UNL     1      33.597 -22.921 -17.668  0.00  0.00    +0.155 HD
BRANCH   3   6
ATOM      6  C   UNL     1      34.605 -21.537 -18.793  0.00  0.00    +0.050 C 
ATOM      7  C   UNL     1      35.898 -21.282 -19.219  0.00  0.00    +0.015 C 
ATOM      8  C   UNL     1      33.509 -21.011 -19.458  0.00  0.00    +0.015 C 
ATOM      9  C   UNL     1      36.101 -20.477 -20.340  0.00  0.00    +0.008 C 
ATOM     10  C   UNL     1      33.712 -20.208 -20.580  0.00  0.00    +0.008 C 
ATOM     11  C   UNL     1      35.009 -19.941 -21.021  0.00  0.00    +0.076 C 
BRANCH  11  13
ATOM     12  O   UNL     1      34.464 -19.032 -23.165  0.00  0.00    -0.245 OA
ATOM     13  C   UNL     1      35.220 -19.104 -22.191  0.00  0.00    +0.338 C 
BRANCH  13  14
ATOM     14  O   UNL     1      36.370 -18.379 -22.112  0.00  0.00    -0.477 OA
ATOM     15  H   UNL     1      36.626 -17.995 -21.297  0.00  0.00    +0.295 HD
ENDBRANCH  13  14
ENDBRANCH  11  13
ENDBRANCH   3   6
ENDBRANCH   1   4
BRANCH   1  17
ATOM     16  O   UNL     1      32.603 -23.773 -13.509  0.00  0.00    -0.270 OA
ATOM     17  N   UNL     1      33.202 -23.480 -15.730  0.00  0.00    -0.295 N 
ATOM     18  C   UNL     1      32.296 -23.642 -14.692  0.00  0.00    +0.246 C 
ATOM     19  H   UNL     1      32.858 -23.381 -16.648  0.00  0.00    +0.150 HD
BRANCH  18  20
ATOM     20  C   UNL     1      30.863 -23.678 -15.078  0.00  0.00    +0.053 C 
ATOM     21  C   UNL     1      30.059 -24.675 -14.566  0.00  0.00    +0.005 C 
ATOM     22  C   UNL     1      30.381 -22.712 -15.937  0.00  0.00    +0.005 C 
ATOM     23  C   UNL     1      28.714 -24.708 -14.928  0.00  0.00    +0.000 C 
ATOM     24  C   UNL     1      29.034 -22.745 -16.301  0.00  0.00    +0.000 C 
ATOM     25  C   UNL     1      28.200 -23.743 -15.796  0.00  0.00    +0.000 C 
ENDBRANCH  18  20
ENDBRANCH   1  17
BRANCH   1  26
ATOM     26  C   UNL     1      35.230 -24.846 -15.709  0.00  0.00    +0.055 C 
BRANCH  26  27
ATOM     27  C   UNL     1      36.003 -25.337 -14.509  0.00  0.00    -0.020 C 
ATOM     28  C   UNL     1      36.763 -26.492 -14.617  0.00  0.00    -0.001 C 
ATOM     29  C   UNL     1      35.943 -24.623 -13.323  0.00  0.00    -0.001 C 
ATOM     30  C   UNL     1      37.478 -26.946 -13.508  0.00  0.00    +0.036 C 
ATOM     31  C   UNL     1      36.658 -25.078 -12.215  0.00  0.00    +0.036 C 
ATOM     32  C   UNL     1      37.425 -26.238 -12.308  0.00  0.00    +0.134 C 
BRANCH  32  33
ATOM     33  O   UNL     1      38.124 -26.680 -11.226  0.00  0.00    -0.506 OA
ATOM     34  H   UNL     1      38.455 -27.557 -11.209  0.00  0.00    +0.292 HD
ENDBRANCH  32  33
ENDBRANCH  26  27
ENDBRANCH   1  26
TORSDOF 9
ENDMDL
MODEL 6
REMARK VINA RESULT:     -10.4      2.213      7.680
REMARK  Name = 6957673
REMARK  9 active torsions:
REMARK  status: ('A' for Active; 'I' for Inactive)
REMARK    1  A    between atoms: C_1  and  C_4
REMARK    2  A    between atoms: C_1  and  N_17
REMARK    3  A    between atoms: C_1  and  C_26
REMARK    4  A    between atoms: N_3  and  C_6
REMARK    5  A    between atoms: C_11  and  C_13
REMARK    6  A    between atoms: C_13  and  O_14
REMARK    7  A    between atoms: C_18  and  C_20
REMARK    8  A    between atoms: C_26  and  C_27
REMARK    9  A    between atoms: C_32  and  O_33
REMARK                            x       y       z     vdW  Elec       q    Type
REMARK                         _______ _______ _______ _____ _____    ______ ____
ROOT
ATOM      1  C   UNL     1      32.885 -24.436 -14.664  0.00  0.00    +0.153 C 
ENDROOT
BRANCH   1   4
ATOM      2  O   UNL     1      32.847 -22.048 -15.007  0.00  0.00    -0.273 OA
ATOM      3  N   UNL     1      33.608 -23.436 -16.740  0.00  0.00    -0.283 N 
ATOM      4  C   UNL     1      33.087 -23.156 -15.479  0.00  0.00    +0.244 C 
ATOM      5  H   UNL     1      33.775 -24.385 -16.939  0.00  0.00    +0.155 HD
BRANCH   3   6
ATOM      6  C   UNL     1      33.926 -22.517 -17.767  0.00  0.00    +0.050 C 
ATOM      7  C   UNL     1      35.256 -22.235 -18.034  0.00  0.00    +0.015 C 
ATOM      8  C   UNL     1      32.903 -21.919 -18.484  0.00  0.00    +0.015 C 
ATOM      9  C   UNL     1      35.571 -21.328 -19.047  0.00  0.00    +0.008 C 
ATOM     10  C   UNL     1      33.218 -21.014 -19.497  0.00  0.00    +0.008 C 
ATOM     11  C   UNL     1      34.553 -20.718 -19.778  0.00  0.00    +0.076 C 
BRANCH  11  13
ATOM     12  O   UNL     1      34.350 -19.736 -21.950  0.00  0.00    -0.245 OA
ATOM     13  C   UNL     1      34.881 -19.775 -20.835  0.00  0.00    +0.338 C 
BRANCH  13  14
ATOM     14  O   UNL     1      35.862 -18.906 -20.470  0.00  0.00    -0.477 OA
ATOM     15  H   UNL     1      36.573 -18.730 -21.054  0.00  0.00    +0.295 HD
ENDBRANCH  13  14
ENDBRANCH  11  13
ENDBRANCH   3   6
ENDBRANCH   1   4
BRANCH   1  17
ATOM     16  O   UNL     1      35.479 -25.362 -15.475  0.00  0.00    -0.270 OA
ATOM     17  N   UNL     1      34.050 -24.580 -13.824  0.00  0.00    -0.295 N 
ATOM     18  C   UNL     1      35.266 -25.038 -14.309  0.00  0.00    +0.246 C 
ATOM     19  H   UNL     1      33.978 -24.344 -12.871  0.00  0.00    +0.150 HD
BRANCH  18  20
ATOM     20  C   UNL     1      36.361 -25.155 -13.312  0.00  0.00    +0.053 C 
ATOM     21  C   UNL     1      37.551 -25.739 -13.694  0.00  0.00    +0.005 C 
ATOM     22  C   UNL     1      36.153 -24.676 -12.036  0.00  0.00    +0.005 C 
ATOM     23  C   UNL     1      38.578 -25.849 -12.759  0.00  0.00    +0.000 C 
ATOM     24  C   UNL     1      37.181 -24.786 -11.099  0.00  0.00    +0.000 C 
ATOM     25  C   UNL     1      38.394 -25.372 -11.460  0.00  0.00    +0.000 C 
ENDBRANCH  18  20
ENDBRANCH   1  17
BRANCH   1  26
ATOM     26  C   UNL     1      31.614 -24.366 -13.812  0.00  0.00    +0.055 C 
BRANCH  26  27
ATOM     27  C   UNL     1      30.379 -24.008 -14.602  0.00  0.00    -0.020 C 
ATOM     28  C   UNL     1      29.814 -22.752 -14.447  0.00  0.00    -0.001 C 
ATOM     29  C   UNL     1      29.833 -24.941 -15.469  0.00  0.00    -0.001 C 
ATOM     30  C   UNL     1      28.673 -22.421 -15.177  0.00  0.00    +0.036 C 
ATOM     31  C   UNL     1      28.692 -24.610 -16.199  0.00  0.00    +0.036 C 
ATOM     32  C   UNL     1      28.112 -23.350 -16.053  0.00  0.00    +0.134 C 
BRANCH  32  33
ATOM     33  O   UNL     1      26.998 -23.027 -16.767  0.00  0.00    -0.506 OA
ATOM     34  H   UNL     1      26.728 -23.568 -17.483  0.00  0.00    +0.292 HD
ENDBRANCH  32  33
ENDBRANCH  26  27
ENDBRANCH   1  26
TORSDOF 9
ENDMDL
MODEL 7
REMARK VINA RESULT:     -10.1      2.512      6.450
REMARK  Name = 6957673
REMARK  9 active torsions:
REMARK  status: ('A' for Active; 'I' for Inactive)
REMARK    1  A    between atoms: C_1  and  C_4
REMARK    2  A    between atoms: C_1  and  N_17
REMARK    3  A    between atoms: C_1  and  C_26
REMARK    4  A    between atoms: N_3  and  C_6
REMARK    5  A    between atoms: C_11  and  C_13
REMARK    6  A    between atoms: C_13  and  O_14
REMARK    7  A    between atoms: C_18  and  C_20
REMARK    8  A    between atoms: C_26  and  C_27
REMARK    9  A    between atoms: C_32  and  O_33
REMARK                            x       y       z     vdW  Elec       q    Type
REMARK                         _______ _______ _______ _____ _____    ______ ____
ROOT
ATOM      1  C   UNL     1      34.773 -23.803 -14.759  0.00  0.00    +0.153 C 
ENDROOT
BRANCH   1   4
ATOM      2  O   UNL     1      36.385 -22.158 -15.476  0.00  0.00    -0.273 OA
ATOM      3  N   UNL     1      34.636 -22.746 -16.925  0.00  0.00    -0.283 N 
ATOM      4  C   UNL     1      35.365 -22.788 -15.739  0.00  0.00    +0.244 C 
ATOM      5  H   UNL     1      33.862 -23.352 -16.981  0.00  0.00    +0.155 HD
BRANCH   3   6
ATOM      6  C   UNL     1      34.877 -21.936 -18.060  0.00  0.00    +0.050 C 
ATOM      7  C   UNL     1      33.805 -21.506 -18.825  0.00  0.00    +0.015 C 
ATOM      8  C   UNL     1      36.179 -21.589 -18.381  0.00  0.00    +0.015 C 
ATOM      9  C   UNL     1      34.043 -20.707 -19.944  0.00  0.00    +0.008 C 
ATOM     10  C   UNL     1      36.416 -20.788 -19.498  0.00  0.00    +0.008 C 
ATOM     11  C   UNL     1      35.348 -20.348 -20.280  0.00  0.00    +0.076 C 
BRANCH  11  13
ATOM     12  O   UNL     1      36.512 -18.693 -21.555  0.00  0.00    -0.245 OA
ATOM     13  C   UNL     1      35.595 -19.513 -21.444  0.00  0.00    +0.338 C 
BRANCH  13  14
ATOM     14  O   UNL     1      34.692 -19.728 -22.440  0.00  0.00    -0.477 OA
ATOM     15  H   UNL     1      33.932 -19.185 -22.508  0.00  0.00    +0.295 HD
ENDBRANCH  13  14
ENDBRANCH  11  13
ENDBRANCH   3   6
ENDBRANCH   1   4
BRANCH   1  17
ATOM     16  O   UNL     1      32.779 -24.180 -12.727  0.00  0.00    -0.270 OA
ATOM     17  N   UNL     1      33.341 -23.768 -14.939  0.00  0.00    -0.295 N 
ATOM     18  C   UNL     1      32.453 -23.962 -13.891  0.00  0.00    +0.246 C 
ATOM     19  H   UNL     1      32.981 -23.598 -15.840  0.00  0.00    +0.150 HD
BRANCH  18  20
ATOM     20  C   UNL     1      31.012 -23.921 -14.245  0.00  0.00    +0.053 C 
ATOM     21  C   UNL     1      30.454 -22.722 -14.637  0.00  0.00    +0.005 C 
ATOM     22  C   UNL     1      30.275 -25.085 -14.172  0.00  0.00    +0.005 C 
ATOM     23  C   UNL     1      29.101 -22.684 -14.970  0.00  0.00    +0.000 C 
ATOM     24  C   UNL     1      28.920 -25.048 -14.504  0.00  0.00    +0.000 C 
ATOM     25  C   UNL     1      28.333 -23.847 -14.903  0.00  0.00    +0.000 C 
ENDBRANCH  18  20
ENDBRANCH   1  17
BRANCH   1  26
ATOM     26  C   UNL     1      35.311 -25.214 -15.014  0.00  0.00    +0.055 C 
BRANCH  26  27
ATOM     27  C   UNL     1      36.717 -25.422 -14.506  0.00  0.00    -0.020 C 
ATOM     28  C   UNL     1      37.228 -24.558 -13.550  0.00  0.00    -0.001 C 
ATOM     29  C   UNL     1      37.471 -26.474 -15.002  0.00  0.00    -0.001 C 
ATOM     30  C   UNL     1      38.528 -24.750 -13.080  0.00  0.00    +0.036 C 
ATOM     31  C   UNL     1      38.770 -26.665 -14.532  0.00  0.00    +0.036 C 
ATOM     32  C   UNL     1      39.298 -25.803 -13.571  0.00  0.00    +0.134 C 
BRANCH  32  33
ATOM     33  O   UNL     1      40.566 -25.991 -13.113  0.00  0.00    -0.506 OA
ATOM     34  H   UNL     1      40.719 -26.112 -12.196  0.00  0.00    +0.292 HD
ENDBRANCH  32  33
ENDBRANCH  26  27
ENDBRANCH   1  26
TORSDOF 9
ENDMDL
MODEL 8
REMARK VINA RESULT:      -9.4     13.335     17.345
REMARK  Name = 6957673
REMARK  9 active torsions:
REMARK  status: ('A' for Active; 'I' for Inactive)
REMARK    1  A    between atoms: C_1  and  C_4
REMARK    2  A    between atoms: C_1  and  N_17
REMARK    3  A    between atoms: C_1  and  C_26
REMARK    4  A    between atoms: N_3  and  C_6
REMARK    5  A    between atoms: C_11  and  C_13
REMARK    6  A    between atoms: C_13  and  O_14
REMARK    7  A    between atoms: C_18  and  C_20
REMARK    8  A    between atoms: C_26  and  C_27
REMARK    9  A    between atoms: C_32  and  O_33
REMARK                            x       y       z     vdW  Elec       q    Type
REMARK                         _______ _______ _______ _____ _____    ______ ____
ROOT
ATOM      1  C   UNL     1      33.410  -9.079 -22.702  0.00  0.00    +0.153 C 
ENDROOT
BRANCH   1   4
ATOM      2  O   UNL     1      32.739 -10.474 -24.552  0.00  0.00    -0.273 OA
ATOM      3  N   UNL     1      33.925 -11.437 -22.770  0.00  0.00    -0.283 N 
ATOM      4  C   UNL     1      33.292 -10.404 -23.457  0.00  0.00    +0.244 C 
ATOM      5  H   UNL     1      34.352 -11.193 -21.918  0.00  0.00    +0.155 HD
BRANCH   3   6
ATOM      6  C   UNL     1      34.025 -12.795 -23.152  0.00  0.00    +0.050 C 
ATOM      7  C   UNL     1      34.618 -13.700 -22.286  0.00  0.00    +0.015 C 
ATOM      8  C   UNL     1      33.529 -13.192 -24.383  0.00  0.00    +0.015 C 
ATOM      9  C   UNL     1      34.718 -15.039 -22.663  0.00  0.00    +0.008 C 
ATOM     10  C   UNL     1      33.627 -14.532 -24.758  0.00  0.00    +0.008 C 
ATOM     11  C   UNL     1      34.222 -15.456 -23.898  0.00  0.00    +0.076 C 
BRANCH  11  13
ATOM     12  O   UNL     1      33.623 -17.410 -25.141  0.00  0.00    -0.245 OA
ATOM     13  C   UNL     1      34.324 -16.852 -24.290  0.00  0.00    +0.338 C 
BRANCH  13  14
ATOM     14  O   UNL     1      35.300 -17.514 -23.609  0.00  0.00    -0.477 OA
ATOM     15  H   UNL     1      36.196 -17.261 -23.711  0.00  0.00    +0.295 HD
ENDBRANCH  13  14
ENDBRANCH  11  13
ENDBRANCH   3   6
ENDBRANCH   1   4
BRANCH   1  17
ATOM     16  O   UNL     1      35.462  -7.073 -22.801  0.00  0.00    -0.270 OA
ATOM     17  N   UNL     1      33.558  -8.045 -23.698  0.00  0.00    -0.295 N 
ATOM     18  C   UNL     1      34.587  -7.116 -23.662  0.00  0.00    +0.246 C 
ATOM     19  H   UNL     1      32.903  -7.999 -24.433  0.00  0.00    +0.150 HD
BRANCH  18  20
ATOM     20  C   UNL     1      34.585  -6.101 -24.746  0.00  0.00    +0.053 C 
ATOM     21  C   UNL     1      35.781  -5.760 -25.343  0.00  0.00    +0.005 C 
ATOM     22  C   UNL     1      33.386  -5.531 -25.121  0.00  0.00    +0.005 C 
ATOM     23  C   UNL     1      35.779  -4.807 -26.360  0.00  0.00    +0.000 C 
ATOM     24  C   UNL     1      33.383  -4.577 -26.139  0.00  0.00    +0.000 C 
ATOM     25  C   UNL     1      34.580  -4.215 -26.759  0.00  0.00    +0.000 C 
ENDBRANCH  18  20
ENDBRANCH   1  17
BRANCH   1  26
ATOM     26  C   UNL     1      32.177  -8.813 -21.832  0.00  0.00    +0.055 C 
BRANCH  26  27
ATOM     27  C   UNL     1      31.841  -7.348 -21.697  0.00  0.00    -0.020 C 
ATOM     28  C   UNL     1      32.553  -6.567 -20.800  0.00  0.00    -0.001 C 
ATOM     29  C   UNL     1      30.827  -6.809 -22.474  0.00  0.00    -0.001 C 
ATOM     30  C   UNL     1      32.242  -5.213 -20.675  0.00  0.00    +0.036 C 
ATOM     31  C   UNL     1      30.517  -5.455 -22.349  0.00  0.00    +0.036 C 
ATOM     32  C   UNL     1      31.224  -4.658 -21.450  0.00  0.00    +0.134 C 
BRANCH  32  33
ATOM     33  O   UNL     1      30.921  -3.336 -21.329  0.00  0.00    -0.506 OA
ATOM     34  H   UNL     1      31.543  -2.687 -21.592  0.00  0.00    +0.292 HD
ENDBRANCH  32  33
ENDBRANCH  26  27
ENDBRANCH   1  26
TORSDOF 9
ENDMDL
MODEL 9
REMARK VINA RESULT:      -9.3      2.320      6.460
REMARK  Name = 6957673
REMARK  9 active torsions:
REMARK  status: ('A' for Active; 'I' for Inactive)
REMARK    1  A    between atoms: C_1  and  C_4
REMARK    2  A    between atoms: C_1  and  N_17
REMARK    3  A    between atoms: C_1  and  C_26
REMARK    4  A    between atoms: N_3  and  C_6
REMARK    5  A    between atoms: C_11  and  C_13
REMARK    6  A    between atoms: C_13  and  O_14
REMARK    7  A    between atoms: C_18  and  C_20
REMARK    8  A    between atoms: C_26  and  C_27
REMARK    9  A    between atoms: C_32  and  O_33
REMARK                            x       y       z     vdW  Elec       q    Type
REMARK                         _______ _______ _______ _____ _____    ______ ____
ROOT
ATOM      1  C   UNL     1      35.937 -22.065 -17.563  0.00  0.00    +0.153 C 
ENDROOT
BRANCH   1   4
ATOM      2  O   UNL     1      34.072 -23.247 -18.534  0.00  0.00    -0.273 OA
ATOM      3  N   UNL     1      33.956 -22.587 -16.285  0.00  0.00    -0.283 N 
ATOM      4  C   UNL     1      34.541 -22.692 -17.544  0.00  0.00    +0.244 C 
ATOM      5  H   UNL     1      34.494 -22.141 -15.592  0.00  0.00    +0.155 HD
BRANCH   3   6
ATOM      6  C   UNL     1      32.680 -23.048 -15.884  0.00  0.00    +0.050 C 
ATOM      7  C   UNL     1      31.560 -22.634 -16.587  0.00  0.00    +0.015 C 
ATOM      8  C   UNL     1      32.576 -23.904 -14.800  0.00  0.00    +0.015 C 
ATOM      9  C   UNL     1      30.301 -23.088 -16.193  0.00  0.00    +0.008 C 
ATOM     10  C   UNL     1      31.318 -24.359 -14.408  0.00  0.00    +0.008 C 
ATOM     11  C   UNL     1      30.180 -23.951 -15.104  0.00  0.00    +0.076 C 
BRANCH  11  13
ATOM     12  O   UNL     1      27.792 -23.886 -14.974  0.00  0.00    -0.245 OA
ATOM     13  C   UNL     1      28.868 -24.426 -14.695  0.00  0.00    +0.338 C 
BRANCH  13  14
ATOM     14  O   UNL     1      28.935 -25.563 -13.950  0.00  0.00    -0.477 OA
ATOM     15  H   UNL     1      29.603 -25.659 -13.301  0.00  0.00    +0.295 HD
ENDBRANCH  13  14
ENDBRANCH  11  13
ENDBRANCH   3   6
ENDBRANCH   1   4
BRANCH   1  17
ATOM     16  O   UNL     1      36.161 -21.901 -14.705  0.00  0.00    -0.270 OA
ATOM     17  N   UNL     1      36.770 -22.883 -16.715  0.00  0.00    -0.295 N 
ATOM     18  C   UNL     1      36.812 -22.729 -15.338  0.00  0.00    +0.246 C 
ATOM     19  H   UNL     1      37.330 -23.579 -17.131  0.00  0.00    +0.150 HD
BRANCH  18  20
ATOM     20  C   UNL     1      37.740 -23.631 -14.610  0.00  0.00    +0.053 C 
ATOM     21  C   UNL     1      37.441 -23.990 -13.312  0.00  0.00    +0.005 C 
ATOM     22  C   UNL     1      38.872 -24.083 -15.255  0.00  0.00    +0.005 C 
ATOM     23  C   UNL     1      38.312 -24.838 -12.629  0.00  0.00    +0.000 C 
ATOM     24  C   UNL     1      39.745 -24.931 -14.573  0.00  0.00    +0.000 C 
ATOM     25  C   UNL     1      39.464 -25.309 -13.259  0.00  0.00    +0.000 C 
ENDBRANCH  18  20
ENDBRANCH   1  17
BRANCH   1  26
ATOM     26  C   UNL     1      36.509 -22.005 -18.983  0.00  0.00    +0.055 C 
BRANCH  26  27
ATOM     27  C   UNL     1      36.131 -20.751 -19.731  0.00  0.00    -0.020 C 
ATOM     28  C   UNL     1      37.120 -19.842 -20.077  0.00  0.00    -0.001 C 
ATOM     29  C   UNL     1      34.803 -20.529 -20.059  0.00  0.00    -0.001 C 
ATOM     30  C   UNL     1      36.770 -18.682 -20.769  0.00  0.00    +0.036 C 
ATOM     31  C   UNL     1      34.454 -19.369 -20.751  0.00  0.00    +0.036 C 
ATOM     32  C   UNL     1      35.437 -18.446 -21.105  0.00  0.00    +0.134 C 
BRANCH  32  33
ATOM     33  O   UNL     1      35.096 -17.314 -21.781  0.00  0.00    -0.506 OA
ATOM     34  H   UNL     1      34.333 -17.306 -22.324  0.00  0.00    +0.292 HD
ENDBRANCH  32  33
ENDBRANCH  26  27
ENDBRANCH   1  26
TORSDOF 9
ENDMDL
