MODEL 1
REMARK VINA RESULT:     -12.3      0.000      0.000
REMARK  Name = 107971
REMARK  9 active torsions:
REMARK  status: ('A' for Active; 'I' for Inactive)
REMARK    1  A    between atoms: C_3  and  O_20
REMARK    2  A    between atoms: C_10  and  C_12
REMARK    3  A    between atoms: C_17  and  O_18
REMARK    4  A    between atoms: O_20  and  C_26
REMARK    5  A    between atoms: C_22  and  O_27
REMARK    6  A    between atoms: C_23  and  O_29
REMARK    7  A    between atoms: C_24  and  O_31
REMARK    8  A    between atoms: C_25  and  C_33
REMARK    9  A    between atoms: C_33  and  O_34
REMARK                            x       y       z     vdW  Elec       q    Type
REMARK                         _______ _______ _______ _____ _____    ______ ____
ROOT
ATOM      1  O   UNL     1      33.096 -21.420 -19.471  0.00  0.00    -0.450 OA
ATOM      2  O   UNL     1      36.760 -19.698 -19.974  0.00  0.00    -0.286 OA
ATOM      3  C   UNL     1      34.897 -23.083 -16.776  0.00  0.00    +0.144 C 
ATOM      4  C   UNL     1      33.878 -22.697 -17.645  0.00  0.00    +0.075 C 
ATOM      5  C   UNL     1      36.175 -22.536 -16.908  0.00  0.00    +0.037 C 
ATOM      6  C   UNL     1      34.137 -21.761 -18.647  0.00  0.00    +0.151 C 
ATOM      7  C   UNL     1      35.413 -21.214 -18.779  0.00  0.00    +0.074 C 
ATOM      8  C   UNL     1      36.437 -21.600 -17.909  0.00  0.00    +0.009 C 
ATOM      9  C   UNL     1      35.663 -20.224 -19.843  0.00  0.00    +0.202 C 
ATOM     10  C   UNL     1      34.511 -19.897 -20.727  0.00  0.00    +0.077 C 
ATOM     11  C   UNL     1      33.346 -20.511 -20.471  0.00  0.00    +0.183 C 
ENDROOT
BRANCH  10  12
ATOM     12  C   UNL     1      34.634 -18.954 -21.851  0.00  0.00    +0.006 C 
ATOM     13  C   UNL     1      35.154 -17.674 -21.639  0.00  0.00    +0.003 C 
ATOM     14  C   UNL     1      34.231 -19.335 -23.133  0.00  0.00    +0.003 C 
ATOM     15  C   UNL     1      35.271 -16.782 -22.704  0.00  0.00    +0.037 C 
ATOM     16  C   UNL     1      34.347 -18.442 -24.197  0.00  0.00    +0.037 C 
ATOM     17  C   UNL     1      34.867 -17.165 -23.984  0.00  0.00    +0.134 C 
BRANCH  17  18
ATOM     18  O   UNL     1      34.980 -16.294 -25.023  0.00  0.00    -0.506 OA
ATOM     19  H   UNL     1      34.412 -16.372 -25.763  0.00  0.00    +0.292 HD
ENDBRANCH  17  18
ENDBRANCH  10  12
BRANCH   3  20
ATOM     20  O   UNL     1      34.648 -23.998 -15.797  0.00  0.00    -0.450 OA
BRANCH  20  26
ATOM     21  O   UNL     1      36.581 -24.979 -14.935  0.00  0.00    -0.316 OA
ATOM     22  C   UNL     1      35.688 -24.571 -12.236  0.00  0.00    +0.173 C 
ATOM     23  C   UNL     1      36.864 -25.485 -12.581  0.00  0.00    +0.169 C 
ATOM     24  C   UNL     1      34.765 -24.380 -13.439  0.00  0.00    +0.210 C 
ATOM     25  C   UNL     1      37.541 -25.033 -13.878  0.00  0.00    +0.177 C 
ATOM     26  C   UNL     1      35.556 -24.018 -14.695  0.00  0.00    +0.318 C 
BRANCH  22  27
ATOM     27  O   UNL     1      34.958 -25.176 -11.167  0.00  0.00    -0.379 OA
ATOM     28  H   UNL     1      34.513 -25.976 -11.491  0.00  0.00    +0.211 HD
ENDBRANCH  22  27
BRANCH  23  29
ATOM     29  O   UNL     1      37.814 -25.452 -11.518  0.00  0.00    -0.379 OA
ATOM     30  H   UNL     1      37.481 -25.973 -10.771  0.00  0.00    +0.211 HD
ENDBRANCH  23  29
BRANCH  24  31
ATOM     31  O   UNL     1      33.847 -23.321 -13.168  0.00  0.00    -0.377 OA
ATOM     32  H   UNL     1      33.997 -22.595 -13.793  0.00  0.00    +0.211 HD
ENDBRANCH  24  31
BRANCH  25  33
ATOM     33  C   UNL     1      38.644 -25.996 -14.304  0.00  0.00    +0.169 C 
BRANCH  33  34
ATOM     34  O   UNL     1      38.238 -27.315 -13.986  0.00  0.00    -0.379 OA
ATOM     35  H   UNL     1      38.016 -27.790 -14.802  0.00  0.00    +0.211 HD
ENDBRANCH  33  34
ENDBRANCH  25  33
ENDBRANCH  20  26
ENDBRANCH   3  20
TORSDOF 9
ENDMDL
MODEL 2
REMARK VINA RESULT:     -12.0      0.840      1.859
REMARK  Name = 107971
REMARK  9 active torsions:
REMARK  status: ('A' for Active; 'I' for Inactive)
REMARK    1  A    between atoms: C_3  and  O_20
REMARK    2  A    between atoms: C_10  and  C_12
REMARK    3  A    between atoms: C_17  and  O_18
REMARK    4  A    between atoms: O_20  and  C_26
REMARK    5  A    between atoms: C_22  and  O_27
REMARK    6  A    between atoms: C_23  and  O_29
REMARK    7  A    between atoms: C_24  and  O_31
REMARK    8  A    between atoms: C_25  and  C_33
REMARK    9  A    between atoms: C_33  and  O_34
REMARK                            x       y       z     vdW  Elec       q    Type
REMARK                         _______ _______ _______ _____ _____    ______ ____
ROOT
ATOM      1  O   UNL     1      36.292 -21.329 -18.894  0.00  0.00    -0.450 OA
ATOM      2  O   UNL     1      32.610 -20.381 -20.376  0.00  0.00    -0.286 OA
ATOM      3  C   UNL     1      34.230 -23.351 -16.673  0.00  0.00    +0.144 C 
ATOM      4  C   UNL     1      35.341 -22.763 -17.277  0.00  0.00    +0.075 C 
ATOM      5  C   UNL     1      32.945 -23.055 -17.130  0.00  0.00    +0.037 C 
ATOM      6  C   UNL     1      35.164 -21.877 -18.340  0.00  0.00    +0.151 C 
ATOM      7  C   UNL     1      33.880 -21.581 -18.797  0.00  0.00    +0.074 C 
ATOM      8  C   UNL     1      32.766 -22.169 -18.193  0.00  0.00    +0.009 C 
ATOM      9  C   UNL     1      33.717 -20.645 -19.924  0.00  0.00    +0.202 C 
ATOM     10  C   UNL     1      34.967 -20.058 -20.484  0.00  0.00    +0.077 C 
ATOM     11  C   UNL     1      36.127 -20.443 -19.931  0.00  0.00    +0.183 C 
ENDROOT
BRANCH  10  12
ATOM     12  C   UNL     1      34.944 -19.082 -21.585  0.00  0.00    +0.006 C 
ATOM     13  C   UNL     1      34.527 -19.472 -22.860  0.00  0.00    +0.003 C 
ATOM     14  C   UNL     1      35.339 -17.761 -21.358  0.00  0.00    +0.003 C 
ATOM     15  C   UNL     1      34.506 -18.546 -23.903  0.00  0.00    +0.037 C 
ATOM     16  C   UNL     1      35.318 -16.836 -22.402  0.00  0.00    +0.037 C 
ATOM     17  C   UNL     1      34.902 -17.228 -23.674  0.00  0.00    +0.134 C 
BRANCH  17  18
ATOM     18  O   UNL     1      34.881 -16.324 -24.692  0.00  0.00    -0.506 OA
ATOM     19  H   UNL     1      34.644 -16.599 -25.556  0.00  0.00    +0.292 HD
ENDBRANCH  17  18
ENDBRANCH  10  12
BRANCH   3  20
ATOM     20  O   UNL     1      34.399 -24.216 -15.632  0.00  0.00    -0.450 OA
BRANCH  20  26
ATOM     21  O   UNL     1      36.552 -24.645 -14.842  0.00  0.00    -0.316 OA
ATOM     22  C   UNL     1      35.814 -23.893 -12.170  0.00  0.00    +0.173 C 
ATOM     23  C   UNL     1      37.117 -24.627 -12.485  0.00  0.00    +0.169 C 
ATOM     24  C   UNL     1      34.778 -24.108 -13.273  0.00  0.00    +0.210 C 
ATOM     25  C   UNL     1      37.584 -24.318 -13.910  0.00  0.00    +0.177 C 
ATOM     26  C   UNL     1      35.378 -23.858 -14.656  0.00  0.00    +0.318 C 
BRANCH  22  27
ATOM     27  O   UNL     1      35.307 -24.403 -10.936  0.00  0.00    -0.379 OA
ATOM     28  H   UNL     1      35.694 -25.275 -10.762  0.00  0.00    +0.211 HD
ENDBRANCH  22  27
BRANCH  23  29
ATOM     29  O   UNL     1      38.123 -24.217 -11.561  0.00  0.00    -0.379 OA
ATOM     30  H   UNL     1      37.900 -24.543 -10.675  0.00  0.00    +0.211 HD
ENDBRANCH  23  29
BRANCH  24  31
ATOM     31  O   UNL     1      33.691 -23.202 -13.086  0.00  0.00    -0.377 OA
ATOM     32  H   UNL     1      33.125 -23.520 -12.366  0.00  0.00    +0.211 HD
ENDBRANCH  24  31
BRANCH  25  33
ATOM     33  C   UNL     1      38.820 -25.129 -14.287  0.00  0.00    +0.169 C 
BRANCH  33  34
ATOM     34  O   UNL     1      38.405 -26.265 -15.024  0.00  0.00    -0.379 OA
ATOM     35  H   UNL     1      37.801 -25.988 -15.730  0.00  0.00    +0.211 HD
ENDBRANCH  33  34
ENDBRANCH  25  33
ENDBRANCH  20  26
ENDBRANCH   3  20
TORSDOF 9
ENDMDL
MODEL 3
REMARK VINA RESULT:     -11.5      1.359      3.250
REMARK  Name = 107971
REMARK  9 active torsions:
REMARK  status: ('A' for Active; 'I' for Inactive)
REMARK    1  A    between atoms: C_3  and  O_20
REMARK    2  A    between atoms: C_10  and  C_12
REMARK    3  A    between atoms: C_17  and  O_18
REMARK    4  A    between atoms: O_20  and  C_26
REMARK    5  A    between atoms: C_22  and  O_27
REMARK    6  A    between atoms: C_23  and  O_29
REMARK    7  A    between atoms: C_24  and  O_31
REMARK    8  A    between atoms: C_25  and  C_33
REMARK    9  A    between atoms: C_33  and  O_34
REMARK                            x       y       z     vdW  Elec       q    Type
REMARK                         _______ _______ _______ _____ _____    ______ ____
ROOT
ATOM      1  O   UNL     1      37.133 -19.598 -19.634  0.00  0.00    -0.450 OA
ATOM      2  O   UNL     1      33.393 -20.135 -21.173  0.00  0.00    -0.286 OA
ATOM      3  C   UNL     1      35.945 -22.205 -17.384  0.00  0.00    +0.144 C 
ATOM      4  C   UNL     1      36.763 -21.253 -17.991  0.00  0.00    +0.075 C 
ATOM      5  C   UNL     1      34.651 -22.424 -17.860  0.00  0.00    +0.037 C 
ATOM      6  C   UNL     1      36.285 -20.519 -19.077  0.00  0.00    +0.151 C 
ATOM      7  C   UNL     1      34.992 -20.738 -19.554  0.00  0.00    +0.074 C 
ATOM      8  C   UNL     1      34.171 -21.691 -18.947  0.00  0.00    +0.009 C 
ATOM      9  C   UNL     1      34.510 -19.953 -20.705  0.00  0.00    +0.202 C 
ATOM     10  C   UNL     1      35.456 -18.950 -21.266  0.00  0.00    +0.077 C 
ATOM     11  C   UNL     1      36.665 -18.858 -20.693  0.00  0.00    +0.183 C 
ENDROOT
BRANCH  10  12
ATOM     12  C   UNL     1      35.087 -18.075 -22.391  0.00  0.00    +0.006 C 
ATOM     13  C   UNL     1      34.569 -18.624 -23.567  0.00  0.00    +0.003 C 
ATOM     14  C   UNL     1      35.254 -16.692 -22.286  0.00  0.00    +0.003 C 
ATOM     15  C   UNL     1      34.220 -17.794 -24.631  0.00  0.00    +0.037 C 
ATOM     16  C   UNL     1      34.905 -15.862 -23.352  0.00  0.00    +0.037 C 
ATOM     17  C   UNL     1      34.388 -16.413 -24.525  0.00  0.00    +0.134 C 
BRANCH  17  18
ATOM     18  O   UNL     1      34.047 -15.603 -25.565  0.00  0.00    -0.506 OA
ATOM     19  H   UNL     1      33.403 -14.934 -25.444  0.00  0.00    +0.292 HD
ENDBRANCH  17  18
ENDBRANCH  10  12
BRANCH   3  20
ATOM     20  O   UNL     1      36.408 -22.923 -16.322  0.00  0.00    -0.450 OA
BRANCH  20  26
ATOM     21  O   UNL     1      34.415 -22.912 -15.109  0.00  0.00    -0.316 OA
ATOM     22  C   UNL     1      35.206 -25.240 -13.624  0.00  0.00    +0.173 C 
ATOM     23  C   UNL     1      34.021 -24.368 -13.210  0.00  0.00    +0.169 C 
ATOM     24  C   UNL     1      36.183 -24.464 -14.506  0.00  0.00    +0.210 C 
ATOM     25  C   UNL     1      33.411 -23.667 -14.428  0.00  0.00    +0.177 C 
ATOM     26  C   UNL     1      35.454 -23.734 -15.634  0.00  0.00    +0.318 C 
BRANCH  22  27
ATOM     27  O   UNL     1      35.874 -25.668 -12.436  0.00  0.00    -0.379 OA
ATOM     28  H   UNL     1      35.757 -25.002 -11.741  0.00  0.00    +0.211 HD
ENDBRANCH  22  27
BRANCH  23  29
ATOM     29  O   UNL     1      33.029 -25.183 -12.590  0.00  0.00    -0.379 OA
ATOM     30  H   UNL     1      33.389 -25.567 -11.777  0.00  0.00    +0.211 HD
ENDBRANCH  23  29
BRANCH  24  31
ATOM     31  O   UNL     1      37.117 -25.371 -15.090  0.00  0.00    -0.377 OA
ATOM     32  H   UNL     1      37.945 -25.352 -14.585  0.00  0.00    +0.211 HD
ENDBRANCH  24  31
BRANCH  25  33
ATOM     33  C   UNL     1      32.301 -22.701 -14.026  0.00  0.00    +0.169 C 
BRANCH  33  34
ATOM     34  O   UNL     1      32.214 -22.678 -12.613  0.00  0.00    -0.379 OA
ATOM     35  H   UNL     1      31.442 -23.191 -12.329  0.00  0.00    +0.211 HD
ENDBRANCH  33  34
ENDBRANCH  25  33
ENDBRANCH  20  26
ENDBRANCH   3  20
TORSDOF 9
ENDMDL
MODEL 4
REMARK VINA RESULT:     -11.1      1.694      2.583
REMARK  Name = 107971
REMARK  9 active torsions:
REMARK  status: ('A' for Active; 'I' for Inactive)
REMARK    1  A    between atoms: C_3  and  O_20
REMARK    2  A    between atoms: C_10  and  C_12
REMARK    3  A    between atoms: C_17  and  O_18
REMARK    4  A    between atoms: O_20  and  C_26
REMARK    5  A    between atoms: C_22  and  O_27
REMARK    6  A    between atoms: C_23  and  O_29
REMARK    7  A    between atoms: C_24  and  O_31
REMARK    8  A    between atoms: C_25  and  C_33
REMARK    9  A    between atoms: C_33  and  O_34
REMARK                            x       y       z     vdW  Elec       q    Type
REMARK                         _______ _______ _______ _____ _____    ______ ____
ROOT
ATOM      1  O   UNL     1      36.822 -20.377 -19.508  0.00  0.00    -0.450 OA
ATOM      2  O   UNL     1      32.998 -20.010 -20.883  0.00  0.00    -0.286 OA
ATOM      3  C   UNL     1      35.190 -22.819 -17.353  0.00  0.00    +0.144 C 
ATOM      4  C   UNL     1      36.169 -22.023 -17.946  0.00  0.00    +0.075 C 
ATOM      5  C   UNL     1      33.863 -22.728 -17.775  0.00  0.00    +0.037 C 
ATOM      6  C   UNL     1      35.818 -21.134 -18.963  0.00  0.00    +0.151 C 
ATOM      7  C   UNL     1      34.492 -21.043 -19.384  0.00  0.00    +0.074 C 
ATOM      8  C   UNL     1      33.509 -21.840 -18.791  0.00  0.00    +0.009 C 
ATOM      9  C   UNL     1      34.145 -20.100 -20.463  0.00  0.00    +0.202 C 
ATOM     10  C   UNL     1      35.262 -19.283 -21.014  0.00  0.00    +0.077 C 
ATOM     11  C   UNL     1      36.483 -19.487 -20.499  0.00  0.00    +0.183 C 
ENDROOT
BRANCH  10  12
ATOM     12  C   UNL     1      35.046 -18.277 -22.067  0.00  0.00    +0.006 C 
ATOM     13  C   UNL     1      34.597 -18.669 -23.330  0.00  0.00    +0.003 C 
ATOM     14  C   UNL     1      35.289 -16.926 -21.805  0.00  0.00    +0.003 C 
ATOM     15  C   UNL     1      34.393 -17.715 -24.327  0.00  0.00    +0.037 C 
ATOM     16  C   UNL     1      35.085 -15.973 -22.803  0.00  0.00    +0.037 C 
ATOM     17  C   UNL     1      34.637 -16.367 -24.064  0.00  0.00    +0.134 C 
BRANCH  17  18
ATOM     18  O   UNL     1      34.438 -15.437 -25.037  0.00  0.00    -0.506 OA
ATOM     19  H   UNL     1      35.157 -14.919 -25.342  0.00  0.00    +0.292 HD
ENDBRANCH  17  18
ENDBRANCH  10  12
BRANCH   3  20
ATOM     20  O   UNL     1      35.530 -23.687 -16.358  0.00  0.00    -0.450 OA
BRANCH  20  26
ATOM     21  O   UNL     1      36.347 -23.429 -14.189  0.00  0.00    -0.316 OA
ATOM     22  C   UNL     1      33.755 -23.932 -13.059  0.00  0.00    +0.173 C 
ATOM     23  C   UNL     1      35.030 -23.931 -12.216  0.00  0.00    +0.169 C 
ATOM     24  C   UNL     1      34.067 -24.189 -14.533  0.00  0.00    +0.210 C 
ATOM     25  C   UNL     1      36.094 -23.025 -12.842  0.00  0.00    +0.177 C 
ATOM     26  C   UNL     1      35.202 -23.291 -15.026  0.00  0.00    +0.318 C 
BRANCH  22  27
ATOM     27  O   UNL     1      32.901 -24.966 -12.567  0.00  0.00    -0.379 OA
ATOM     28  H   UNL     1      32.912 -24.961 -11.597  0.00  0.00    +0.211 HD
ENDBRANCH  22  27
BRANCH  23  29
ATOM     29  O   UNL     1      34.727 -23.464 -10.904  0.00  0.00    -0.379 OA
ATOM     30  H   UNL     1      34.023 -22.799 -10.952  0.00  0.00    +0.211 HD
ENDBRANCH  23  29
BRANCH  24  31
ATOM     31  O   UNL     1      32.907 -23.913 -15.318  0.00  0.00    -0.377 OA
ATOM     32  H   UNL     1      32.111 -24.110 -14.799  0.00  0.00    +0.211 HD
ENDBRANCH  24  31
BRANCH  25  33
ATOM     33  C   UNL     1      37.415 -23.097 -12.082  0.00  0.00    +0.169 C 
BRANCH  33  34
ATOM     34  O   UNL     1      37.316 -22.281 -10.929  0.00  0.00    -0.379 OA
ATOM     35  H   UNL     1      38.167 -22.276 -10.464  0.00  0.00    +0.211 HD
ENDBRANCH  33  34
ENDBRANCH  25  33
ENDBRANCH  20  26
ENDBRANCH   3  20
TORSDOF 9
ENDMDL
MODEL 5
REMARK VINA RESULT:     -10.5      1.235      2.385
REMARK  Name = 107971
REMARK  9 active torsions:
REMARK  status: ('A' for Active; 'I' for Inactive)
REMARK    1  A    between atoms: C_3  and  O_20
REMARK    2  A    between atoms: C_10  and  C_12
REMARK    3  A    between atoms: C_17  and  O_18
REMARK    4  A    between atoms: O_20  and  C_26
REMARK    5  A    between atoms: C_22  and  O_27
REMARK    6  A    between atoms: C_23  and  O_29
REMARK    7  A    between atoms: C_24  and  O_31
REMARK    8  A    between atoms: C_25  and  C_33
REMARK    9  A    between atoms: C_33  and  O_34
REMARK                            x       y       z     vdW  Elec       q    Type
REMARK                         _______ _______ _______ _____ _____    ______ ____
ROOT
ATOM      1  O   UNL     1      33.024 -21.922 -18.880  0.00  0.00    -0.450 OA
ATOM      2  O   UNL     1      36.715 -20.204 -19.148  0.00  0.00    -0.286 OA
ATOM      3  C   UNL     1      34.647 -23.585 -16.075  0.00  0.00    +0.144 C 
ATOM      4  C   UNL     1      33.685 -23.198 -17.007  0.00  0.00    +0.075 C 
ATOM      5  C   UNL     1      35.930 -23.039 -16.124  0.00  0.00    +0.037 C 
ATOM      6  C   UNL     1      34.009 -22.264 -17.991  0.00  0.00    +0.151 C 
ATOM      7  C   UNL     1      35.292 -21.718 -18.041  0.00  0.00    +0.074 C 
ATOM      8  C   UNL     1      36.257 -22.104 -17.107  0.00  0.00    +0.009 C 
ATOM      9  C   UNL     1      35.611 -20.729 -19.087  0.00  0.00    +0.202 C 
ATOM     10  C   UNL     1      34.518 -20.401 -20.043  0.00  0.00    +0.077 C 
ATOM     11  C   UNL     1      33.339 -21.014 -19.863  0.00  0.00    +0.183 C 
ENDROOT
BRANCH  10  12
ATOM     12  C   UNL     1      34.714 -19.459 -21.158  0.00  0.00    +0.006 C 
ATOM     13  C   UNL     1      34.373 -19.831 -22.460  0.00  0.00    +0.003 C 
ATOM     14  C   UNL     1      35.243 -18.188 -20.915  0.00  0.00    +0.003 C 
ATOM     15  C   UNL     1      34.560 -18.938 -23.514  0.00  0.00    +0.037 C 
ATOM     16  C   UNL     1      35.430 -17.296 -21.971  0.00  0.00    +0.037 C 
ATOM     17  C   UNL     1      35.088 -17.670 -23.271  0.00  0.00    +0.134 C 
BRANCH  17  18
ATOM     18  O   UNL     1      35.271 -16.799 -24.300  0.00  0.00    -0.506 OA
ATOM     19  H   UNL     1      35.971 -16.178 -24.268  0.00  0.00    +0.292 HD
ENDBRANCH  17  18
ENDBRANCH  10  12
BRANCH   3  20
ATOM     20  O   UNL     1      34.334 -24.499 -15.113  0.00  0.00    -0.450 OA
BRANCH  20  26
ATOM     21  O   UNL     1      35.846 -23.677 -13.538  0.00  0.00    -0.316 OA
ATOM     22  C   UNL     1      37.723 -25.772 -14.120  0.00  0.00    +0.173 C 
ATOM     23  C   UNL     1      38.102 -24.535 -13.305  0.00  0.00    +0.169 C 
ATOM     24  C   UNL     1      36.502 -25.502 -15.000  0.00  0.00    +0.210 C 
ATOM     25  C   UNL     1      36.877 -23.961 -12.590  0.00  0.00    +0.177 C 
ATOM     26  C   UNL     1      35.375 -24.848 -14.200  0.00  0.00    +0.318 C 
BRANCH  22  27
ATOM     27  O   UNL     1      38.837 -26.114 -14.947  0.00  0.00    -0.379 OA
ATOM     28  H   UNL     1      39.361 -25.319 -15.130  0.00  0.00    +0.211 HD
ENDBRANCH  22  27
BRANCH  23  29
ATOM     29  O   UNL     1      39.088 -24.891 -12.339  0.00  0.00    -0.379 OA
ATOM     30  H   UNL     1      39.501 -24.087 -11.988  0.00  0.00    +0.211 HD
ENDBRANCH  23  29
BRANCH  24  31
ATOM     31  O   UNL     1      36.018 -26.736 -15.528  0.00  0.00    -0.377 OA
ATOM     32  H   UNL     1      36.380 -26.872 -16.418  0.00  0.00    +0.211 HD
ENDBRANCH  24  31
BRANCH  25  33
ATOM     33  C   UNL     1      37.205 -22.660 -11.864  0.00  0.00    +0.169 C 
BRANCH  33  34
ATOM     34  O   UNL     1      37.581 -22.969 -10.534  0.00  0.00    -0.379 OA
ATOM     35  H   UNL     1      37.104 -23.761 -10.240  0.00  0.00    +0.211 HD
ENDBRANCH  33  34
ENDBRANCH  25  33
ENDBRANCH  20  26
ENDBRANCH   3  20
TORSDOF 9
ENDMDL
MODEL 6
REMARK VINA RESULT:     -10.1      1.924      3.524
REMARK  Name = 107971
REMARK  9 active torsions:
REMARK  status: ('A' for Active; 'I' for Inactive)
REMARK    1  A    between atoms: C_3  and  O_20
REMARK    2  A    between atoms: C_10  and  C_12
REMARK    3  A    between atoms: C_17  and  O_18
REMARK    4  A    between atoms: O_20  and  C_26
REMARK    5  A    between atoms: C_22  and  O_27
REMARK    6  A    between atoms: C_23  and  O_29
REMARK    7  A    between atoms: C_24  and  O_31
REMARK    8  A    between atoms: C_25  and  C_33
REMARK    9  A    between atoms: C_33  and  O_34
REMARK                            x       y       z     vdW  Elec       q    Type
REMARK                         _______ _______ _______ _____ _____    ______ ____
ROOT
ATOM      1  O   UNL     1      33.522 -21.408 -19.568  0.00  0.00    -0.450 OA
ATOM      2  O   UNL     1      36.978 -19.296 -20.055  0.00  0.00    -0.286 OA
ATOM      3  C   UNL     1      35.479 -22.857 -16.858  0.00  0.00    +0.144 C 
ATOM      4  C   UNL     1      34.428 -22.587 -17.733  0.00  0.00    +0.075 C 
ATOM      5  C   UNL     1      36.689 -22.173 -16.984  0.00  0.00    +0.037 C 
ATOM      6  C   UNL     1      34.589 -21.631 -18.737  0.00  0.00    +0.151 C 
ATOM      7  C   UNL     1      35.799 -20.948 -18.863  0.00  0.00    +0.074 C 
ATOM      8  C   UNL     1      36.853 -21.216 -17.987  0.00  0.00    +0.009 C 
ATOM      9  C   UNL     1      35.945 -19.939 -19.929  0.00  0.00    +0.202 C 
ATOM     10  C   UNL     1      34.769 -19.742 -20.820  0.00  0.00    +0.077 C 
ATOM     11  C   UNL     1      33.677 -20.480 -20.569  0.00  0.00    +0.183 C 
ENDROOT
BRANCH  10  12
ATOM     12  C   UNL     1      34.795 -18.794 -21.947  0.00  0.00    +0.006 C 
ATOM     13  C   UNL     1      35.204 -17.474 -21.743  0.00  0.00    +0.003 C 
ATOM     14  C   UNL     1      34.410 -19.212 -23.223  0.00  0.00    +0.003 C 
ATOM     15  C   UNL     1      35.228 -16.577 -22.810  0.00  0.00    +0.037 C 
ATOM     16  C   UNL     1      34.433 -18.314 -24.290  0.00  0.00    +0.037 C 
ATOM     17  C   UNL     1      34.843 -16.997 -24.084  0.00  0.00    +0.134 C 
BRANCH  17  18
ATOM     18  O   UNL     1      34.866 -16.121 -25.125  0.00  0.00    -0.506 OA
ATOM     19  H   UNL     1      35.542 -15.474 -25.177  0.00  0.00    +0.292 HD
ENDBRANCH  17  18
ENDBRANCH  10  12
BRANCH   3  20
ATOM     20  O   UNL     1      35.326 -23.791 -15.877  0.00  0.00    -0.450 OA
BRANCH  20  26
ATOM     21  O   UNL     1      33.095 -23.145 -16.090  0.00  0.00    -0.316 OA
ATOM     22  C   UNL     1      32.596 -23.639 -13.305  0.00  0.00    +0.173 C 
ATOM     23  C   UNL     1      31.617 -22.866 -14.188  0.00  0.00    +0.169 C 
ATOM     24  C   UNL     1      34.008 -23.612 -13.889  0.00  0.00    +0.210 C 
ATOM     25  C   UNL     1      31.744 -23.302 -15.650  0.00  0.00    +0.177 C 
ATOM     26  C   UNL     1      34.003 -23.977 -15.373  0.00  0.00    +0.318 C 
BRANCH  22  27
ATOM     27  O   UNL     1      32.604 -23.027 -12.014  0.00  0.00    -0.379 OA
ATOM     28  H   UNL     1      31.786 -22.521 -11.890  0.00  0.00    +0.211 HD
ENDBRANCH  22  27
BRANCH  23  29
ATOM     29  O   UNL     1      30.286 -23.106 -13.739  0.00  0.00    -0.379 OA
ATOM     30  H   UNL     1      30.155 -22.686 -12.875  0.00  0.00    +0.211 HD
ENDBRANCH  23  29
BRANCH  24  31
ATOM     31  O   UNL     1      34.825 -24.557 -13.199  0.00  0.00    -0.377 OA
ATOM     32  H   UNL     1      34.585 -25.455 -13.477  0.00  0.00    +0.211 HD
ENDBRANCH  24  31
BRANCH  25  33
ATOM     33  C   UNL     1      30.860 -22.463 -16.568  0.00  0.00    +0.169 C 
BRANCH  33  34
ATOM     34  O   UNL     1      29.535 -22.955 -16.489  0.00  0.00    -0.379 OA
ATOM     35  H   UNL     1      29.523 -23.891 -16.739  0.00  0.00    +0.211 HD
ENDBRANCH  33  34
ENDBRANCH  25  33
ENDBRANCH  20  26
ENDBRANCH   3  20
TORSDOF 9
ENDMDL
MODEL 7
REMARK VINA RESULT:      -9.9      8.735     13.548
REMARK  Name = 107971
REMARK  9 active torsions:
REMARK  status: ('A' for Active; 'I' for Inactive)
REMARK    1  A    between atoms: C_3  and  O_20
REMARK    2  A    between atoms: C_10  and  C_12
REMARK    3  A    between atoms: C_17  and  O_18
REMARK    4  A    between atoms: O_20  and  C_26
REMARK    5  A    between atoms: C_22  and  O_27
REMARK    6  A    between atoms: C_23  and  O_29
REMARK    7  A    between atoms: C_24  and  O_31
REMARK    8  A    between atoms: C_25  and  C_33
REMARK    9  A    between atoms: C_33  and  O_34
REMARK                            x       y       z     vdW  Elec       q    Type
REMARK                         _______ _______ _______ _____ _____    ______ ____
ROOT
ATOM      1  O   UNL     1      31.792  -9.464 -22.925  0.00  0.00    -0.450 OA
ATOM      2  O   UNL     1      31.486  -7.554 -19.333  0.00  0.00    -0.286 OA
ATOM      3  C   UNL     1      32.314 -12.306 -20.706  0.00  0.00    +0.144 C 
ATOM      4  C   UNL     1      32.164 -11.539 -21.860  0.00  0.00    +0.075 C 
ATOM      5  C   UNL     1      32.231 -11.705 -19.449  0.00  0.00    +0.037 C 
ATOM      6  C   UNL     1      31.931 -10.167 -21.756  0.00  0.00    +0.151 C 
ATOM      7  C   UNL     1      31.847  -9.566 -20.501  0.00  0.00    +0.074 C 
ATOM      8  C   UNL     1      31.997 -10.333 -19.342  0.00  0.00    +0.009 C 
ATOM      9  C   UNL     1      31.596  -8.115 -20.415  0.00  0.00    +0.202 C 
ATOM     10  C   UNL     1      31.471  -7.387 -21.707  0.00  0.00    +0.077 C 
ATOM     11  C   UNL     1      31.578  -8.110 -22.832  0.00  0.00    +0.183 C 
ENDROOT
BRANCH  10  12
ATOM     12  C   UNL     1      31.257  -5.932 -21.764  0.00  0.00    +0.006 C 
ATOM     13  C   UNL     1      32.295  -5.085 -22.164  0.00  0.00    +0.003 C 
ATOM     14  C   UNL     1      30.016  -5.392 -21.419  0.00  0.00    +0.003 C 
ATOM     15  C   UNL     1      32.091  -3.707 -22.217  0.00  0.00    +0.037 C 
ATOM     16  C   UNL     1      29.813  -4.013 -21.472  0.00  0.00    +0.037 C 
ATOM     17  C   UNL     1      30.851  -3.170 -21.871  0.00  0.00    +0.134 C 
BRANCH  17  18
ATOM     18  O   UNL     1      30.653  -1.824 -21.923  0.00  0.00    -0.506 OA
ATOM     19  H   UNL     1      30.531  -1.339 -21.131  0.00  0.00    +0.292 HD
ENDBRANCH  17  18
ENDBRANCH  10  12
BRANCH   3  20
ATOM     20  O   UNL     1      32.544 -13.646 -20.804  0.00  0.00    -0.450 OA
BRANCH  20  26
ATOM     21  O   UNL     1      32.946 -14.224 -23.028  0.00  0.00    -0.316 OA
ATOM     22  C   UNL     1      35.104 -15.964 -22.276  0.00  0.00    +0.173 C 
ATOM     23  C   UNL     1      34.487 -15.980 -23.675  0.00  0.00    +0.169 C 
ATOM     24  C   UNL     1      34.135 -15.376 -21.251  0.00  0.00    +0.210 C 
ATOM     25  C   UNL     1      33.895 -14.612 -24.023  0.00  0.00    +0.177 C 
ATOM     26  C   UNL     1      33.539 -14.057 -21.743  0.00  0.00    +0.318 C 
BRANCH  22  27
ATOM     27  O   UNL     1      35.418 -17.310 -21.916  0.00  0.00    -0.379 OA
ATOM     28  H   UNL     1      36.341 -17.500 -22.146  0.00  0.00    +0.211 HD
ENDBRANCH  22  27
BRANCH  23  29
ATOM     29  O   UNL     1      35.492 -16.315 -24.629  0.00  0.00    -0.379 OA
ATOM     30  H   UNL     1      35.118 -16.913 -25.295  0.00  0.00    +0.211 HD
ENDBRANCH  23  29
BRANCH  24  31
ATOM     31  O   UNL     1      34.831 -15.124 -20.031  0.00  0.00    -0.377 OA
ATOM     32  H   UNL     1      35.152 -15.962 -19.663  0.00  0.00    +0.211 HD
ENDBRANCH  24  31
BRANCH  25  33
ATOM     33  C   UNL     1      33.171 -14.636 -25.366  0.00  0.00    +0.169 C 
BRANCH  33  34
ATOM     34  O   UNL     1      32.981 -15.985 -25.751  0.00  0.00    -0.379 OA
ATOM     35  H   UNL     1      32.702 -16.020 -26.679  0.00  0.00    +0.211 HD
ENDBRANCH  33  34
ENDBRANCH  25  33
ENDBRANCH  20  26
ENDBRANCH   3  20
TORSDOF 9
ENDMDL
MODEL 8
REMARK VINA RESULT:      -9.9      2.127     10.436
REMARK  Name = 107971
REMARK  9 active torsions:
REMARK  status: ('A' for Active; 'I' for Inactive)
REMARK    1  A    between atoms: C_3  and  O_20
REMARK    2  A    between atoms: C_10  and  C_12
REMARK    3  A    between atoms: C_17  and  O_18
REMARK    4  A    between atoms: O_20  and  C_26
REMARK    5  A    between atoms: C_22  and  O_27
REMARK    6  A    between atoms: C_23  and  O_29
REMARK    7  A    between atoms: C_24  and  O_31
REMARK    8  A    between atoms: C_25  and  C_33
REMARK    9  A    between atoms: C_33  and  O_34
REMARK                            x       y       z     vdW  Elec       q    Type
REMARK                         _______ _______ _______ _____ _____    ______ ____
ROOT
ATOM      1  O   UNL     1      36.926 -20.318 -19.173  0.00  0.00    -0.450 OA
ATOM      2  O   UNL     1      33.184 -21.853 -18.639  0.00  0.00    -0.286 OA
ATOM      3  C   UNL     1      35.283 -18.879 -22.089  0.00  0.00    +0.144 C 
ATOM      4  C   UNL     1      36.255 -19.203 -21.143  0.00  0.00    +0.075 C 
ATOM      5  C   UNL     1      33.988 -19.384 -21.964  0.00  0.00    +0.037 C 
ATOM      6  C   UNL     1      35.930 -20.034 -20.071  0.00  0.00    +0.151 C 
ATOM      7  C   UNL     1      34.636 -20.539 -19.946  0.00  0.00    +0.074 C 
ATOM      8  C   UNL     1      33.660 -20.216 -20.893  0.00  0.00    +0.009 C 
ATOM      9  C   UNL     1      34.314 -21.413 -18.803  0.00  0.00    +0.202 C 
ATOM     10  C   UNL     1      35.429 -21.711 -17.862  0.00  0.00    +0.077 C 
ATOM     11  C   UNL     1      36.619 -21.149 -18.123  0.00  0.00    +0.183 C 
ENDROOT
BRANCH  10  12
ATOM     12  C   UNL     1      35.253 -22.600 -16.701  0.00  0.00    +0.006 C 
ATOM     13  C   UNL     1      34.008 -23.178 -16.443  0.00  0.00    +0.003 C 
ATOM     14  C   UNL     1      36.332 -22.868 -15.855  0.00  0.00    +0.003 C 
ATOM     15  C   UNL     1      33.843 -24.019 -15.343  0.00  0.00    +0.037 C 
ATOM     16  C   UNL     1      36.165 -23.709 -14.755  0.00  0.00    +0.037 C 
ATOM     17  C   UNL     1      34.921 -24.285 -14.498  0.00  0.00    +0.134 C 
BRANCH  17  18
ATOM     18  O   UNL     1      34.759 -25.105 -13.425  0.00  0.00    -0.506 OA
ATOM     19  H   UNL     1      34.097 -24.918 -12.788  0.00  0.00    +0.292 HD
ENDBRANCH  17  18
ENDBRANCH  10  12
BRANCH   3  20
ATOM     20  O   UNL     1      35.598 -18.068 -23.139  0.00  0.00    -0.450 OA
BRANCH  20  26
ATOM     21  O   UNL     1      34.934 -16.426 -21.621  0.00  0.00    -0.316 OA
ATOM     22  C   UNL     1      33.960 -14.743 -23.735  0.00  0.00    +0.173 C 
ATOM     23  C   UNL     1      33.628 -14.487 -22.265  0.00  0.00    +0.169 C 
ATOM     24  C   UNL     1      34.352 -16.202 -23.967  0.00  0.00    +0.210 C 
ATOM     25  C   UNL     1      34.731 -15.036 -21.355  0.00  0.00    +0.177 C 
ATOM     26  C   UNL     1      35.392 -16.668 -22.948  0.00  0.00    +0.318 C 
BRANCH  22  27
ATOM     27  O   UNL     1      32.801 -14.433 -24.510  0.00  0.00    -0.379 OA
ATOM     28  H   UNL     1      32.044 -14.942 -24.178  0.00  0.00    +0.211 HD
ENDBRANCH  22  27
BRANCH  23  29
ATOM     29  O   UNL     1      33.495 -13.084 -22.049  0.00  0.00    -0.379 OA
ATOM     30  H   UNL     1      34.271 -12.757 -21.567  0.00  0.00    +0.211 HD
ENDBRANCH  23  29
BRANCH  24  31
ATOM     31  O   UNL     1      34.912 -16.340 -25.273  0.00  0.00    -0.377 OA
ATOM     32  H   UNL     1      34.202 -16.324 -25.933  0.00  0.00    +0.211 HD
ENDBRANCH  24  31
BRANCH  25  33
ATOM     33  C   UNL     1      34.368 -14.897 -19.880  0.00  0.00    +0.169 C 
BRANCH  33  34
ATOM     34  O   UNL     1      32.979 -14.639 -19.781  0.00  0.00    -0.379 OA
ATOM     35  H   UNL     1      32.637 -14.376 -20.650  0.00  0.00    +0.211 HD
ENDBRANCH  33  34
ENDBRANCH  25  33
ENDBRANCH  20  26
ENDBRANCH   3  20
TORSDOF 9
ENDMDL
MODEL 9
REMARK VINA RESULT:      -9.8      5.883     13.834
REMARK  Name = 107971
REMARK  9 active torsions:
REMARK  status: ('A' for Active; 'I' for Inactive)
REMARK    1  A    between atoms: C_3  and  O_20
REMARK    2  A    between atoms: C_10  and  C_12
REMARK    3  A    between atoms: C_17  and  O_18
REMARK    4  A    between atoms: O_20  and  C_26
REMARK    5  A    between atoms: C_22  and  O_27
REMARK    6  A    between atoms: C_23  and  O_29
REMARK    7  A    between atoms: C_24  and  O_31
REMARK    8  A    between atoms: C_25  and  C_33
REMARK    9  A    between atoms: C_33  and  O_34
REMARK                            x       y       z     vdW  Elec       q    Type
REMARK                         _______ _______ _______ _____ _____    ______ ____
ROOT
ATOM      1  O   UNL     1      34.781 -15.906 -23.910  0.00  0.00    -0.450 OA
ATOM      2  O   UNL     1      34.759 -15.827 -19.831  0.00  0.00    -0.286 OA
ATOM      3  C   UNL     1      33.815 -12.431 -23.399  0.00  0.00    +0.144 C 
ATOM      4  C   UNL     1      34.153 -13.633 -24.020  0.00  0.00    +0.075 C 
ATOM      5  C   UNL     1      33.780 -12.348 -22.006  0.00  0.00    +0.037 C 
ATOM      6  C   UNL     1      34.456 -14.752 -23.244  0.00  0.00    +0.151 C 
ATOM      7  C   UNL     1      34.421 -14.670 -21.853  0.00  0.00    +0.074 C 
ATOM      8  C   UNL     1      34.082 -13.466 -21.228  0.00  0.00    +0.009 C 
ATOM      9  C   UNL     1      34.748 -15.865 -21.054  0.00  0.00    +0.202 C 
ATOM     10  C   UNL     1      35.077 -17.101 -21.816  0.00  0.00    +0.077 C 
ATOM     11  C   UNL     1      35.065 -17.019 -23.155  0.00  0.00    +0.183 C 
ENDROOT
BRANCH  10  12
ATOM     12  C   UNL     1      35.385 -18.373 -21.142  0.00  0.00    +0.006 C 
ATOM     13  C   UNL     1      36.706 -18.697 -20.825  0.00  0.00    +0.003 C 
ATOM     14  C   UNL     1      34.356 -19.261 -20.817  0.00  0.00    +0.003 C 
ATOM     15  C   UNL     1      36.997 -19.902 -20.186  0.00  0.00    +0.037 C 
ATOM     16  C   UNL     1      34.648 -20.467 -20.179  0.00  0.00    +0.037 C 
ATOM     17  C   UNL     1      35.968 -20.787 -19.864  0.00  0.00    +0.134 C 
BRANCH  17  18
ATOM     18  O   UNL     1      36.253 -21.964 -19.241  0.00  0.00    -0.506 OA
ATOM     19  H   UNL     1      35.560 -22.551 -19.011  0.00  0.00    +0.292 HD
ENDBRANCH  17  18
ENDBRANCH  10  12
BRANCH   3  20
ATOM     20  O   UNL     1      33.517 -11.335 -24.153  0.00  0.00    -0.450 OA
BRANCH  20  26
ATOM     21  O   UNL     1      32.156  -9.492 -23.712  0.00  0.00    -0.316 OA
ATOM     22  C   UNL     1      34.437  -7.777 -23.385  0.00  0.00    +0.173 C 
ATOM     23  C   UNL     1      33.016  -7.233 -23.532  0.00  0.00    +0.169 C 
ATOM     24  C   UNL     1      34.552  -9.187 -23.966  0.00  0.00    +0.210 C 
ATOM     25  C   UNL     1      31.989  -8.250 -23.026  0.00  0.00    +0.177 C 
ATOM     26  C   UNL     1      33.426 -10.089 -23.461  0.00  0.00    +0.318 C 
BRANCH  22  27
ATOM     27  O   UNL     1      35.321  -6.901 -24.086  0.00  0.00    -0.379 OA
ATOM     28  H   UNL     1      36.230  -7.044 -23.779  0.00  0.00    +0.211 HD
ENDBRANCH  22  27
BRANCH  23  29
ATOM     29  O   UNL     1      32.893  -6.027 -22.782  0.00  0.00    -0.379 OA
ATOM     30  H   UNL     1      33.777  -5.684 -22.575  0.00  0.00    +0.211 HD
ENDBRANCH  23  29
BRANCH  24  31
ATOM     31  O   UNL     1      35.796  -9.762 -23.570  0.00  0.00    -0.377 OA
ATOM     32  H   UNL     1      36.424  -9.712 -24.308  0.00  0.00    +0.211 HD
ENDBRANCH  24  31
BRANCH  25  33
ATOM     33  C   UNL     1      30.559  -7.777 -23.270  0.00  0.00    +0.169 C 
BRANCH  33  34
ATOM     34  O   UNL     1      30.565  -6.869 -24.356  0.00  0.00    -0.379 OA
ATOM     35  H   UNL     1      30.741  -5.974 -24.028  0.00  0.00    +0.211 HD
ENDBRANCH  33  34
ENDBRANCH  25  33
ENDBRANCH  20  26
ENDBRANCH   3  20
TORSDOF 9
ENDMDL
