MODEL 1
REMARK VINA RESULT:     -10.9      0.000      0.000
REMARK  Name = 10134493
REMARK  5 active torsions:
REMARK  status: ('A' for Active; 'I' for Inactive)
REMARK    1  A    between atoms: N_2  and  C_13
REMARK    2  A    between atoms: C_7  and  C_28
REMARK    3  A    between atoms: C_16  and  C_22
REMARK    4  A    between atoms: N_21  and  O_24
REMARK    5  A    between atoms: N_27  and  C_30
REMARK                            x       y       z     vdW  Elec       q    Type
REMARK                         _______ _______ _______ _____ _____    ______ ____
ROOT
ATOM      1  N   UNL     1      33.678 -15.452 -24.370  0.00  0.00    -0.185 N 
ATOM      2  N   UNL     1      35.537 -17.242 -21.715  0.00  0.00    -0.297 N 
ATOM      3  N   UNL     1      33.575 -16.401 -25.331  0.00  0.00    -0.151 NA
ATOM      4  N   UNL     1      34.784 -17.847 -23.828  0.00  0.00    -0.206 NA
ATOM      5  C   UNL     1      34.303 -15.649 -23.165  0.00  0.00    +0.102 C 
ATOM      6  C   UNL     1      34.218 -14.480 -22.442  0.00  0.00    +0.002 C 
ATOM      7  C   UNL     1      33.515 -13.544 -23.244  0.00  0.00    +0.067 C 
ATOM      8  C   UNL     1      34.890 -16.939 -22.889  0.00  0.00    +0.149 C 
ATOM      9  C   UNL     1      33.194 -14.171 -24.429  0.00  0.00    +0.094 C 
ATOM     10  C   UNL     1      34.748 -14.217 -21.088  0.00  0.00    +0.033 C 
ATOM     11  C   UNL     1      34.129 -17.535 -25.006  0.00  0.00    +0.219 C 
ATOM     12  H   UNL     1      35.991 -16.498 -21.258  0.00  0.00    +0.154 HD
ENDROOT
BRANCH   2  13
ATOM     13  C   UNL     1      35.616 -18.491 -21.106  0.00  0.00    +0.045 C 
ATOM     14  C   UNL     1      36.844 -19.157 -20.956  0.00  0.00    -0.008 C 
ATOM     15  C   UNL     1      34.451 -19.113 -20.626  0.00  0.00    +0.019 C 
ATOM     16  C   UNL     1      34.512 -20.364 -20.014  0.00  0.00    +0.057 C 
ATOM     17  C   UNL     1      36.906 -20.408 -20.343  0.00  0.00    -0.003 C 
ATOM     18  C   UNL     1      35.740 -21.011 -19.872  0.00  0.00    +0.004 C 
ATOM     19  C   UNL     1      38.109 -18.533 -21.451  0.00  0.00    +0.032 C 
BRANCH  16  22
ATOM     20  O   UNL     1      32.197 -20.757 -20.052  0.00  0.00    -0.268 OA
ATOM     21  N   UNL     1      33.427 -21.846 -18.433  0.00  0.00    -0.190 N 
ATOM     22  C   UNL     1      33.297 -20.994 -19.522  0.00  0.00    +0.268 C 
ATOM     23  H   UNL     1      34.298 -22.019 -18.008  0.00  0.00    +0.183 HD
BRANCH  21  24
ATOM     24  O   UNL     1      32.240 -22.447 -17.971  0.00  0.00    -0.263 OA
ATOM     25  C   UNL     1      32.497 -23.030 -16.699  0.00  0.00    +0.206 C 
ENDBRANCH  21  24
ENDBRANCH  16  22
ENDBRANCH   2  13
BRANCH   7  28
ATOM     26  O   UNL     1      33.834 -11.211 -23.347  0.00  0.00    -0.270 OA
ATOM     27  N   UNL     1      32.024 -11.987 -22.147  0.00  0.00    -0.301 N 
ATOM     28  C   UNL     1      33.174 -12.185 -22.931  0.00  0.00    +0.247 C 
ATOM     29  H   UNL     1      31.528 -12.778 -21.837  0.00  0.00    +0.150 HD
BRANCH  27  30
ATOM     30  C   UNL     1      31.533 -10.680 -21.773  0.00  0.00    +0.090 C 
ATOM     31  C   UNL     1      31.028 -10.672 -20.340  0.00  0.00    +0.023 C 
ENDBRANCH  27  30
ENDBRANCH   7  28
TORSDOF 5
ENDMDL
MODEL 2
REMARK VINA RESULT:      -9.6      2.895      5.766
REMARK  Name = 10134493
REMARK  5 active torsions:
REMARK  status: ('A' for Active; 'I' for Inactive)
REMARK    1  A    between atoms: N_2  and  C_13
REMARK    2  A    between atoms: C_7  and  C_28
REMARK    3  A    between atoms: C_16  and  C_22
REMARK    4  A    between atoms: N_21  and  O_24
REMARK    5  A    between atoms: N_27  and  C_30
REMARK                            x       y       z     vdW  Elec       q    Type
REMARK                         _______ _______ _______ _____ _____    ______ ____
ROOT
ATOM      1  N   UNL     1      32.030 -10.736 -20.544  0.00  0.00    -0.185 N 
ATOM      2  N   UNL     1      32.813 -13.210 -23.185  0.00  0.00    -0.297 N 
ATOM      3  N   UNL     1      31.834 -11.530 -19.464  0.00  0.00    -0.151 NA
ATOM      4  N   UNL     1      32.300 -13.388 -20.926  0.00  0.00    -0.206 NA
ATOM      5  C   UNL     1      32.352 -11.209 -21.791  0.00  0.00    +0.102 C 
ATOM      6  C   UNL     1      32.474 -10.130 -22.639  0.00  0.00    +0.002 C 
ATOM      7  C   UNL     1      32.217  -8.965 -21.872  0.00  0.00    +0.067 C 
ATOM      8  C   UNL     1      32.493 -12.633 -21.979  0.00  0.00    +0.149 C 
ATOM      9  C   UNL     1      31.945  -9.369 -20.582  0.00  0.00    +0.094 C 
ATOM     10  C   UNL     1      32.808 -10.149 -24.079  0.00  0.00    +0.033 C 
ATOM     11  C   UNL     1      31.980 -12.800 -19.716  0.00  0.00    +0.219 C 
ATOM     12  H   UNL     1      32.515 -12.735 -23.994  0.00  0.00    +0.154 HD
ENDROOT
BRANCH   2  13
ATOM     13  C   UNL     1      33.514 -14.396 -23.380  0.00  0.00    +0.045 C 
ATOM     14  C   UNL     1      33.640 -14.972 -24.655  0.00  0.00    -0.008 C 
ATOM     15  C   UNL     1      34.115 -15.044 -22.288  0.00  0.00    +0.019 C 
ATOM     16  C   UNL     1      34.822 -16.232 -22.465  0.00  0.00    +0.057 C 
ATOM     17  C   UNL     1      34.347 -16.161 -24.833  0.00  0.00    -0.003 C 
ATOM     18  C   UNL     1      34.938 -16.791 -23.738  0.00  0.00    +0.004 C 
ATOM     19  C   UNL     1      33.018 -14.318 -25.846  0.00  0.00    +0.032 C 
BRANCH  16  22
ATOM     20  O   UNL     1      35.256 -16.467 -20.169  0.00  0.00    -0.268 OA
ATOM     21  N   UNL     1      36.248 -17.987 -21.592  0.00  0.00    -0.190 N 
ATOM     22  C   UNL     1      35.439 -16.890 -21.324  0.00  0.00    +0.268 C 
ATOM     23  H   UNL     1      36.401 -18.310 -22.509  0.00  0.00    +0.183 HD
BRANCH  21  24
ATOM     24  O   UNL     1      36.836 -18.611 -20.475  0.00  0.00    -0.263 OA
ATOM     25  C   UNL     1      36.213 -19.876 -20.287  0.00  0.00    +0.206 C 
ENDBRANCH  21  24
ENDBRANCH  16  22
ENDBRANCH   2  13
BRANCH   7  28
ATOM     26  O   UNL     1      33.275  -6.969 -22.542  0.00  0.00    -0.270 OA
ATOM     27  N   UNL     1      30.970  -6.984 -22.484  0.00  0.00    -0.301 N 
ATOM     28  C   UNL     1      32.223  -7.596 -22.305  0.00  0.00    +0.247 C 
ATOM     29  H   UNL     1      30.161  -7.509 -22.288  0.00  0.00    +0.150 HD
BRANCH  27  30
ATOM     30  C   UNL     1      30.809  -5.624 -22.944  0.00  0.00    +0.090 C 
ATOM     31  C   UNL     1      30.668  -4.662 -21.776  0.00  0.00    +0.023 C 
ENDBRANCH  27  30
ENDBRANCH   7  28
TORSDOF 5
ENDMDL
MODEL 3
REMARK VINA RESULT:      -9.4      2.683      9.469
REMARK  Name = 10134493
REMARK  5 active torsions:
REMARK  status: ('A' for Active; 'I' for Inactive)
REMARK    1  A    between atoms: N_2  and  C_13
REMARK    2  A    between atoms: C_7  and  C_28
REMARK    3  A    between atoms: C_16  and  C_22
REMARK    4  A    between atoms: N_21  and  O_24
REMARK    5  A    between atoms: N_27  and  C_30
REMARK                            x       y       z     vdW  Elec       q    Type
REMARK                         _______ _______ _______ _____ _____    ______ ____
ROOT
ATOM      1  N   UNL     1      34.236 -15.851 -24.220  0.00  0.00    -0.185 N 
ATOM      2  N   UNL     1      33.021 -13.009 -22.181  0.00  0.00    -0.297 N 
ATOM      3  N   UNL     1      33.800 -15.516 -25.458  0.00  0.00    -0.151 NA
ATOM      4  N   UNL     1      32.873 -13.538 -24.439  0.00  0.00    -0.206 NA
ATOM      5  C   UNL     1      34.022 -15.085 -23.102  0.00  0.00    +0.102 C 
ATOM      6  C   UNL     1      34.600 -15.726 -22.029  0.00  0.00    +0.002 C 
ATOM      7  C   UNL     1      35.185 -16.921 -22.520  0.00  0.00    +0.067 C 
ATOM      8  C   UNL     1      33.289 -13.849 -23.236  0.00  0.00    +0.149 C 
ATOM      9  C   UNL     1      34.944 -16.972 -23.877  0.00  0.00    +0.094 C 
ATOM     10  C   UNL     1      34.624 -15.279 -20.619  0.00  0.00    +0.033 C 
ATOM     11  C   UNL     1      33.149 -14.388 -25.495  0.00  0.00    +0.219 C 
ATOM     12  H   UNL     1      32.922 -13.430 -21.297  0.00  0.00    +0.154 HD
ENDROOT
BRANCH   2  13
ATOM     13  C   UNL     1      32.874 -11.626 -22.235  0.00  0.00    +0.045 C 
ATOM     14  C   UNL     1      31.770 -10.982 -21.653  0.00  0.00    -0.008 C 
ATOM     15  C   UNL     1      33.844 -10.842 -22.882  0.00  0.00    +0.019 C 
ATOM     16  C   UNL     1      33.714  -9.455 -22.945  0.00  0.00    +0.057 C 
ATOM     17  C   UNL     1      31.638  -9.596 -21.715  0.00  0.00    -0.003 C 
ATOM     18  C   UNL     1      32.610  -8.832 -22.361  0.00  0.00    +0.004 C 
ATOM     19  C   UNL     1      30.714 -11.776 -20.953  0.00  0.00    +0.032 C 
BRANCH  16  22
ATOM     20  O   UNL     1      35.894  -9.072 -23.730  0.00  0.00    -0.268 OA
ATOM     21  N   UNL     1      34.331  -7.419 -24.106  0.00  0.00    -0.190 N 
ATOM     22  C   UNL     1      34.726  -8.657 -23.619  0.00  0.00    +0.268 C 
ATOM     23  H   UNL     1      33.408  -7.089 -24.003  0.00  0.00    +0.183 HD
BRANCH  21  24
ATOM     24  O   UNL     1      35.325  -6.661 -24.755  0.00  0.00    -0.263 OA
ATOM     25  C   UNL     1      34.719  -5.491 -25.291  0.00  0.00    +0.206 C 
ENDBRANCH  21  24
ENDBRANCH  16  22
ENDBRANCH   2  13
BRANCH   7  28
ATOM     26  O   UNL     1      37.142 -18.054 -21.859  0.00  0.00    -0.270 OA
ATOM     27  N   UNL     1      35.145 -18.759 -20.949  0.00  0.00    -0.301 N 
ATOM     28  C   UNL     1      35.903 -17.926 -21.789  0.00  0.00    +0.247 C 
ATOM     29  H   UNL     1      34.170 -18.630 -20.919  0.00  0.00    +0.150 HD
BRANCH  27  30
ATOM     30  C   UNL     1      35.724 -19.797 -20.127  0.00  0.00    +0.090 C 
ATOM     31  C   UNL     1      34.700 -20.869 -19.792  0.00  0.00    +0.023 C 
ENDBRANCH  27  30
ENDBRANCH   7  28
TORSDOF 5
ENDMDL
MODEL 4
REMARK VINA RESULT:      -9.0      3.678      7.474
REMARK  Name = 10134493
REMARK  5 active torsions:
REMARK  status: ('A' for Active; 'I' for Inactive)
REMARK    1  A    between atoms: N_2  and  C_13
REMARK    2  A    between atoms: C_7  and  C_28
REMARK    3  A    between atoms: C_16  and  C_22
REMARK    4  A    between atoms: N_21  and  O_24
REMARK    5  A    between atoms: N_27  and  C_30
REMARK                            x       y       z     vdW  Elec       q    Type
REMARK                         _______ _______ _______ _____ _____    ______ ____
ROOT
ATOM      1  N   UNL     1      33.057 -21.212 -19.063  0.00  0.00    -0.185 N 
ATOM      2  N   UNL     1      35.701 -22.785 -17.004  0.00  0.00    -0.297 N 
ATOM      3  N   UNL     1      31.928 -21.683 -18.480  0.00  0.00    -0.151 NA
ATOM      4  N   UNL     1      33.380 -22.857 -16.955  0.00  0.00    -0.206 NA
ATOM      5  C   UNL     1      34.323 -21.526 -18.640  0.00  0.00    +0.102 C 
ATOM      6  C   UNL     1      35.221 -20.875 -19.457  0.00  0.00    +0.002 C 
ATOM      7  C   UNL     1      34.465 -20.142 -20.408  0.00  0.00    +0.067 C 
ATOM      8  C   UNL     1      34.479 -22.408 -17.508  0.00  0.00    +0.149 C 
ATOM      9  C   UNL     1      33.131 -20.369 -20.141  0.00  0.00    +0.094 C 
ATOM     10  C   UNL     1      36.697 -20.913 -19.385  0.00  0.00    +0.033 C 
ATOM     11  C   UNL     1      32.154 -22.472 -17.467  0.00  0.00    +0.219 C 
ATOM     12  H   UNL     1      36.447 -22.833 -17.645  0.00  0.00    +0.154 HD
ENDROOT
BRANCH   2  13
ATOM     13  C   UNL     1      35.993 -23.105 -15.681  0.00  0.00    +0.045 C 
ATOM     14  C   UNL     1      37.270 -22.887 -15.138  0.00  0.00    -0.008 C 
ATOM     15  C   UNL     1      34.999 -23.660 -14.858  0.00  0.00    +0.019 C 
ATOM     16  C   UNL     1      35.273 -23.987 -13.531  0.00  0.00    +0.057 C 
ATOM     17  C   UNL     1      37.545 -23.213 -13.811  0.00  0.00    -0.003 C 
ATOM     18  C   UNL     1      36.546 -23.763 -13.007  0.00  0.00    +0.004 C 
ATOM     19  C   UNL     1      38.358 -22.299 -15.976  0.00  0.00    +0.032 C 
BRANCH  16  22
ATOM     20  O   UNL     1      34.466 -24.868 -11.509  0.00  0.00    -0.268 OA
ATOM     21  N   UNL     1      32.990 -24.761 -13.278  0.00  0.00    -0.190 N 
ATOM     22  C   UNL     1      34.232 -24.560 -12.691  0.00  0.00    +0.268 C 
ATOM     23  H   UNL     1      32.814 -24.528 -14.219  0.00  0.00    +0.183 HD
BRANCH  21  24
ATOM     24  O   UNL     1      31.996 -25.316 -12.450  0.00  0.00    -0.263 OA
ATOM     25  C   UNL     1      30.725 -24.884 -12.921  0.00  0.00    +0.206 C 
ENDBRANCH  21  24
ENDBRANCH  16  22
ENDBRANCH   2  13
BRANCH   7  28
ATOM     26  O   UNL     1      35.092 -19.717 -22.639  0.00  0.00    -0.270 OA
ATOM     27  N   UNL     1      35.218 -17.965 -21.145  0.00  0.00    -0.301 N 
ATOM     28  C   UNL     1      34.944 -19.305 -21.471  0.00  0.00    +0.247 C 
ATOM     29  H   UNL     1      35.089 -17.675 -20.214  0.00  0.00    +0.150 HD
BRANCH  27  30
ATOM     30  C   UNL     1      35.677 -16.992 -22.109  0.00  0.00    +0.090 C 
ATOM     31  C   UNL     1      34.910 -15.686 -21.980  0.00  0.00    +0.023 C 
ENDBRANCH  27  30
ENDBRANCH   7  28
TORSDOF 5
ENDMDL
MODEL 5
REMARK VINA RESULT:      -8.9      3.255     10.249
REMARK  Name = 10134493
REMARK  5 active torsions:
REMARK  status: ('A' for Active; 'I' for Inactive)
REMARK    1  A    between atoms: N_2  and  C_13
REMARK    2  A    between atoms: C_7  and  C_28
REMARK    3  A    between atoms: C_16  and  C_22
REMARK    4  A    between atoms: N_21  and  O_24
REMARK    5  A    between atoms: N_27  and  C_30
REMARK                            x       y       z     vdW  Elec       q    Type
REMARK                         _______ _______ _______ _____ _____    ______ ____
ROOT
ATOM      1  N   UNL     1      33.979 -13.334 -23.500  0.00  0.00    -0.185 N 
ATOM      2  N   UNL     1      32.073 -11.339 -21.031  0.00  0.00    -0.297 N 
ATOM      3  N   UNL     1      33.901 -12.559 -24.609  0.00  0.00    -0.151 NA
ATOM      4  N   UNL     1      32.611 -11.025 -23.269  0.00  0.00    -0.206 NA
ATOM      5  C   UNL     1      33.410 -13.004 -22.297  0.00  0.00    +0.102 C 
ATOM      6  C   UNL     1      33.688 -14.013 -21.401  0.00  0.00    +0.002 C 
ATOM      7  C   UNL     1      34.455 -14.986 -22.093  0.00  0.00    +0.067 C 
ATOM      8  C   UNL     1      32.680 -11.763 -22.189  0.00  0.00    +0.149 C 
ATOM      9  C   UNL     1      34.619 -14.540 -23.387  0.00  0.00    +0.094 C 
ATOM     10  C   UNL     1      33.280 -14.098 -19.983  0.00  0.00    +0.033 C 
ATOM     11  C   UNL     1      33.227 -11.458 -24.430  0.00  0.00    +0.219 C 
ATOM     12  H   UNL     1      31.747 -12.040 -20.422  0.00  0.00    +0.154 HD
ENDROOT
BRANCH   2  13
ATOM     13  C   UNL     1      31.872 -10.021 -20.631  0.00  0.00    +0.045 C 
ATOM     14  C   UNL     1      31.800  -9.670 -19.273  0.00  0.00    -0.008 C 
ATOM     15  C   UNL     1      31.737  -9.008 -21.596  0.00  0.00    +0.019 C 
ATOM     16  C   UNL     1      31.535  -7.683 -21.213  0.00  0.00    +0.057 C 
ATOM     17  C   UNL     1      31.599  -8.344 -18.890  0.00  0.00    -0.003 C 
ATOM     18  C   UNL     1      31.466  -7.351 -19.860  0.00  0.00    +0.004 C 
ATOM     19  C   UNL     1      31.939 -10.713 -18.213  0.00  0.00    +0.032 C 
BRANCH  16  22
ATOM     20  O   UNL     1      32.047  -6.698 -23.283  0.00  0.00    -0.268 OA
ATOM     21  N   UNL     1      30.529  -5.600 -21.938  0.00  0.00    -0.190 N 
ATOM     22  C   UNL     1      31.397  -6.646 -22.224  0.00  0.00    +0.268 C 
ATOM     23  H   UNL     1      30.028  -5.556 -21.091  0.00  0.00    +0.183 HD
BRANCH  21  24
ATOM     24  O   UNL     1      30.409  -4.606 -22.928  0.00  0.00    -0.263 OA
ATOM     25  C   UNL     1      30.777  -3.356 -22.356  0.00  0.00    +0.206 C 
ENDBRANCH  21  24
ENDBRANCH  16  22
ENDBRANCH   2  13
BRANCH   7  28
ATOM     26  O   UNL     1      35.014 -16.499 -20.375  0.00  0.00    -0.270 OA
ATOM     27  N   UNL     1      35.456 -17.141 -22.545  0.00  0.00    -0.301 N 
ATOM     28  C   UNL     1      34.986 -16.221 -21.591  0.00  0.00    +0.247 C 
ATOM     29  H   UNL     1      35.418 -16.889 -23.496  0.00  0.00    +0.150 HD
BRANCH  27  30
ATOM     30  C   UNL     1      35.991 -18.438 -22.201  0.00  0.00    +0.090 C 
ATOM     31  C   UNL     1      34.950 -19.529 -22.386  0.00  0.00    +0.023 C 
ENDBRANCH  27  30
ENDBRANCH   7  28
TORSDOF 5
ENDMDL
MODEL 6
REMARK VINA RESULT:      -8.6      4.734      9.252
REMARK  Name = 10134493
REMARK  5 active torsions:
REMARK  status: ('A' for Active; 'I' for Inactive)
REMARK    1  A    between atoms: N_2  and  C_13
REMARK    2  A    between atoms: C_7  and  C_28
REMARK    3  A    between atoms: C_16  and  C_22
REMARK    4  A    between atoms: N_21  and  O_24
REMARK    5  A    between atoms: N_27  and  C_30
REMARK                            x       y       z     vdW  Elec       q    Type
REMARK                         _______ _______ _______ _____ _____    ______ ____
ROOT
ATOM      1  N   UNL     1      32.441  -5.898 -21.558  0.00  0.00    -0.185 N 
ATOM      2  N   UNL     1      31.379  -9.442 -21.695  0.00  0.00    -0.297 N 
ATOM      3  N   UNL     1      33.102  -5.847 -20.377  0.00  0.00    -0.151 NA
ATOM      4  N   UNL     1      32.574  -8.188 -20.146  0.00  0.00    -0.206 NA
ATOM      5  C   UNL     1      31.853  -7.033 -22.056  0.00  0.00    +0.102 C 
ATOM      6  C   UNL     1      31.277  -6.720 -23.267  0.00  0.00    +0.002 C 
ATOM      7  C   UNL     1      31.529  -5.345 -23.507  0.00  0.00    +0.067 C 
ATOM      8  C   UNL     1      31.933  -8.252 -21.287  0.00  0.00    +0.149 C 
ATOM      9  C   UNL     1      32.250  -4.862 -22.435  0.00  0.00    +0.094 C 
ATOM     10  C   UNL     1      30.530  -7.621 -24.170  0.00  0.00    +0.033 C 
ATOM     11  C   UNL     1      33.130  -6.986 -19.745  0.00  0.00    +0.219 C 
ATOM     12  H   UNL     1      30.572  -9.384 -22.255  0.00  0.00    +0.154 HD
ENDROOT
BRANCH   2  13
ATOM     13  C   UNL     1      31.842 -10.721 -21.396  0.00  0.00    +0.045 C 
ATOM     14  C   UNL     1      31.607 -11.312 -20.143  0.00  0.00    -0.008 C 
ATOM     15  C   UNL     1      32.561 -11.449 -22.358  0.00  0.00    +0.019 C 
ATOM     16  C   UNL     1      33.032 -12.731 -22.077  0.00  0.00    +0.057 C 
ATOM     17  C   UNL     1      32.077 -12.594 -19.861  0.00  0.00    -0.003 C 
ATOM     18  C   UNL     1      32.789 -13.303 -20.828  0.00  0.00    +0.004 C 
ATOM     19  C   UNL     1      30.846 -10.574 -19.090  0.00  0.00    +0.032 C 
BRANCH  16  22
ATOM     20  O   UNL     1      33.672 -13.186 -24.290  0.00  0.00    -0.268 OA
ATOM     21  N   UNL     1      34.576 -14.514 -22.635  0.00  0.00    -0.190 N 
ATOM     22  C   UNL     1      33.775 -13.472 -23.084  0.00  0.00    +0.268 C 
ATOM     23  H   UNL     1      34.643 -14.745 -21.680  0.00  0.00    +0.183 HD
BRANCH  21  24
ATOM     24  O   UNL     1      35.288 -15.220 -23.624  0.00  0.00    -0.263 OA
ATOM     25  C   UNL     1      34.868 -16.578 -23.595  0.00  0.00    +0.206 C 
ENDBRANCH  21  24
ENDBRANCH  16  22
ENDBRANCH   2  13
BRANCH   7  28
ATOM     26  O   UNL     1      30.065  -3.908 -24.666  0.00  0.00    -0.270 OA
ATOM     27  N   UNL     1      32.028  -4.501 -25.718  0.00  0.00    -0.301 N 
ATOM     28  C   UNL     1      31.133  -4.551 -24.636  0.00  0.00    +0.247 C 
ATOM     29  H   UNL     1      32.862  -5.021 -25.660  0.00  0.00    +0.150 HD
BRANCH  27  30
ATOM     30  C   UNL     1      31.788  -3.724 -26.912  0.00  0.00    +0.090 C 
ATOM     31  C   UNL     1      32.515  -4.315 -28.109  0.00  0.00    +0.023 C 
ENDBRANCH  27  30
ENDBRANCH   7  28
TORSDOF 5
ENDMDL
MODEL 7
REMARK VINA RESULT:      -8.4      4.493     11.693
REMARK  Name = 10134493
REMARK  5 active torsions:
REMARK  status: ('A' for Active; 'I' for Inactive)
REMARK    1  A    between atoms: N_2  and  C_13
REMARK    2  A    between atoms: C_7  and  C_28
REMARK    3  A    between atoms: C_16  and  C_22
REMARK    4  A    between atoms: N_21  and  O_24
REMARK    5  A    between atoms: N_27  and  C_30
REMARK                            x       y       z     vdW  Elec       q    Type
REMARK                         _______ _______ _______ _____ _____    ______ ____
ROOT
ATOM      1  N   UNL     1      31.692 -12.043 -21.568  0.00  0.00    -0.185 N 
ATOM      2  N   UNL     1      33.085  -8.654 -22.099  0.00  0.00    -0.297 N 
ATOM      3  N   UNL     1      30.828 -11.836 -20.546  0.00  0.00    -0.151 NA
ATOM      4  N   UNL     1      31.520  -9.528 -20.620  0.00  0.00    -0.206 NA
ATOM      5  C   UNL     1      32.463 -11.056 -22.129  0.00  0.00    +0.102 C 
ATOM      6  C   UNL     1      33.216 -11.621 -23.135  0.00  0.00    +0.002 C 
ATOM      7  C   UNL     1      32.884 -13.000 -23.181  0.00  0.00    +0.067 C 
ATOM      8  C   UNL     1      32.359  -9.714 -21.610  0.00  0.00    +0.149 C 
ATOM      9  C   UNL     1      31.941 -13.232 -22.202  0.00  0.00    +0.094 C 
ATOM     10  C   UNL     1      34.192 -10.948 -24.016  0.00  0.00    +0.033 C 
ATOM     11  C   UNL     1      30.792 -10.600 -20.135  0.00  0.00    +0.219 C 
ATOM     12  H   UNL     1      33.970  -8.862 -22.474  0.00  0.00    +0.154 HD
ENDROOT
BRANCH   2  13
ATOM     13  C   UNL     1      32.696  -7.317 -22.118  0.00  0.00    +0.045 C 
ATOM     14  C   UNL     1      32.768  -6.516 -20.966  0.00  0.00    -0.008 C 
ATOM     15  C   UNL     1      32.220  -6.742 -23.308  0.00  0.00    +0.019 C 
ATOM     16  C   UNL     1      31.828  -5.404 -23.346  0.00  0.00    +0.057 C 
ATOM     17  C   UNL     1      32.375  -5.179 -21.003  0.00  0.00    -0.003 C 
ATOM     18  C   UNL     1      31.905  -4.623 -22.192  0.00  0.00    +0.004 C 
ATOM     19  C   UNL     1      33.268  -7.086 -19.678  0.00  0.00    +0.032 C 
BRANCH  16  22
ATOM     20  O   UNL     1      30.159  -4.437 -24.686  0.00  0.00    -0.268 OA
ATOM     21  N   UNL     1      32.236  -4.742 -25.641  0.00  0.00    -0.190 N 
ATOM     22  C   UNL     1      31.337  -4.823 -24.585  0.00  0.00    +0.268 C 
ATOM     23  H   UNL     1      33.164  -5.062 -25.561  0.00  0.00    +0.183 HD
BRANCH  21  24
ATOM     24  O   UNL     1      31.744  -4.176 -26.833  0.00  0.00    -0.263 OA
ATOM     25  C   UNL     1      32.692  -4.411 -27.866  0.00  0.00    +0.206 C 
ENDBRANCH  21  24
ENDBRANCH  16  22
ENDBRANCH   2  13
BRANCH   7  28
ATOM     26  O   UNL     1      33.136 -14.044 -25.278  0.00  0.00    -0.270 OA
ATOM     27  N   UNL     1      34.261 -14.964 -23.488  0.00  0.00    -0.301 N 
ATOM     28  C   UNL     1      33.401 -14.010 -24.059  0.00  0.00    +0.247 C 
ATOM     29  H   UNL     1      34.449 -14.906 -22.524  0.00  0.00    +0.150 HD
BRANCH  27  30
ATOM     30  C   UNL     1      34.886 -16.024 -24.245  0.00  0.00    +0.090 C 
ATOM     31  C   UNL     1      34.954 -17.310 -23.438  0.00  0.00    +0.023 C 
ENDBRANCH  27  30
ENDBRANCH   7  28
TORSDOF 5
ENDMDL
MODEL 8
REMARK VINA RESULT:      -8.0      4.988      9.007
REMARK  Name = 10134493
REMARK  5 active torsions:
REMARK  status: ('A' for Active; 'I' for Inactive)
REMARK    1  A    between atoms: N_2  and  C_13
REMARK    2  A    between atoms: C_7  and  C_28
REMARK    3  A    between atoms: C_16  and  C_22
REMARK    4  A    between atoms: N_21  and  O_24
REMARK    5  A    between atoms: N_27  and  C_30
REMARK                            x       y       z     vdW  Elec       q    Type
REMARK                         _______ _______ _______ _____ _____    ______ ____
ROOT
ATOM      1  N   UNL     1      33.886  -6.640 -24.166  0.00  0.00    -0.185 N 
ATOM      2  N   UNL     1      32.265  -9.218 -22.061  0.00  0.00    -0.297 N 
ATOM      3  N   UNL     1      35.160  -7.095 -24.237  0.00  0.00    -0.151 NA
ATOM      4  N   UNL     1      34.429  -8.930 -22.857  0.00  0.00    -0.206 NA
ATOM      5  C   UNL     1      32.886  -7.276 -23.476  0.00  0.00    +0.102 C 
ATOM      6  C   UNL     1      31.732  -6.538 -23.619  0.00  0.00    +0.002 C 
ATOM      7  C   UNL     1      32.051  -5.416 -24.427  0.00  0.00    +0.067 C 
ATOM      8  C   UNL     1      33.193  -8.502 -22.780  0.00  0.00    +0.149 C 
ATOM      9  C   UNL     1      33.388  -5.504 -24.749  0.00  0.00    +0.094 C 
ATOM     10  C   UNL     1      30.398  -6.831 -23.053  0.00  0.00    +0.033 C 
ATOM     11  C   UNL     1      35.356  -8.205 -23.584  0.00  0.00    +0.219 C 
ATOM     12  H   UNL     1      31.536  -8.703 -21.646  0.00  0.00    +0.154 HD
ENDROOT
BRANCH   2  13
ATOM     13  C   UNL     1      32.250 -10.595 -21.859  0.00  0.00    +0.045 C 
ATOM     14  C   UNL     1      31.761 -11.157 -20.668  0.00  0.00    -0.008 C 
ATOM     15  C   UNL     1      32.732 -11.456 -22.860  0.00  0.00    +0.019 C 
ATOM     16  C   UNL     1      32.724 -12.838 -22.675  0.00  0.00    +0.057 C 
ATOM     17  C   UNL     1      31.752 -12.539 -20.483  0.00  0.00    -0.003 C 
ATOM     18  C   UNL     1      32.234 -13.380 -21.486  0.00  0.00    +0.004 C 
ATOM     19  C   UNL     1      31.238 -10.280 -19.577  0.00  0.00    +0.032 C 
BRANCH  16  22
ATOM     20  O   UNL     1      33.112 -13.408 -24.920  0.00  0.00    -0.268 OA
ATOM     21  N   UNL     1      33.813 -14.907 -23.314  0.00  0.00    -0.190 N 
ATOM     22  C   UNL     1      33.226 -13.716 -23.720  0.00  0.00    +0.268 C 
ATOM     23  H   UNL     1      33.888 -15.153 -22.363  0.00  0.00    +0.183 HD
BRANCH  21  24
ATOM     24  O   UNL     1      34.293 -15.744 -24.340  0.00  0.00    -0.263 OA
ATOM     25  C   UNL     1      34.928 -16.868 -23.743  0.00  0.00    +0.206 C 
ENDBRANCH  21  24
ENDBRANCH  16  22
ENDBRANCH   2  13
BRANCH   7  28
ATOM     26  O   UNL     1      30.135  -4.055 -24.254  0.00  0.00    -0.270 OA
ATOM     27  N   UNL     1      31.588  -3.633 -25.994  0.00  0.00    -0.301 N 
ATOM     28  C   UNL     1      31.185  -4.356 -24.858  0.00  0.00    +0.247 C 
ATOM     29  H   UNL     1      32.422  -3.898 -26.445  0.00  0.00    +0.150 HD
BRANCH  27  30
ATOM     30  C   UNL     1      30.842  -2.520 -26.534  0.00  0.00    +0.090 C 
ATOM     31  C   UNL     1      30.896  -2.506 -28.053  0.00  0.00    +0.023 C 
ENDBRANCH  27  30
ENDBRANCH   7  28
TORSDOF 5
ENDMDL
