MODEL 1
REMARK VINA RESULT:     -11.0      0.000      0.000
REMARK  Name = 46937120
REMARK  6 active torsions:
REMARK  status: ('A' for Active; 'I' for Inactive)
REMARK    1  A    between atoms: N_2  and  C_6
REMARK    2  A    between atoms: C_3  and  C_25
REMARK    3  A    between atoms: C_9  and  C_12
REMARK    4  A    between atoms: C_12  and  O_13
REMARK    5  A    between atoms: O_13  and  C_15
REMARK    6  A    between atoms: C_21  and  N_28
REMARK                            x       y       z     vdW  Elec       q    Type
REMARK                         _______ _______ _______ _____ _____    ______ ____
ROOT
ATOM      1  O   UNL     1      36.709 -20.949 -19.598  0.00  0.00    -0.270 OA
ATOM      2  N   UNL     1      34.498 -20.275 -20.046  0.00  0.00    -0.281 N 
ATOM      3  C   UNL     1      35.496 -20.974 -19.382  0.00  0.00    +0.245 C 
ATOM      4  H   UNL     1      33.577 -20.424 -19.728  0.00  0.00    +0.155 HD
ENDROOT
BRANCH   2   6
ATOM      5 CL   UNL     1      35.107 -16.521 -24.597  0.00  0.00    -0.082 Cl
ATOM      6  C   UNL     1      34.644 -19.371 -21.126  0.00  0.00    +0.050 C 
ATOM      7  C   UNL     1      34.893 -18.021 -20.878  0.00  0.00    +0.015 C 
ATOM      8  C   UNL     1      34.541 -19.831 -22.439  0.00  0.00    +0.016 C 
ATOM      9  C   UNL     1      35.039 -17.131 -21.943  0.00  0.00    +0.033 C 
ATOM     10  C   UNL     1      34.686 -18.942 -23.503  0.00  0.00    +0.012 C 
ATOM     11  C   UNL     1      34.936 -17.592 -23.256  0.00  0.00    +0.057 C 
BRANCH   9  12
ATOM     12  C   UNL     1      35.303 -15.693 -21.635  0.00  0.00    +0.233 C 
BRANCH  12  13
ATOM     13  O   UNL     1      34.394 -15.250 -20.638  0.00  0.00    -0.469 OA
BRANCH  13  15
ATOM     14  N   UNL     1      32.804 -12.632 -22.637  0.00  0.00    -0.239 NA
ATOM     15  C   UNL     1      33.544 -14.233 -20.984  0.00  0.00    +0.158 C 
ATOM     16  C   UNL     1      32.588 -13.762 -20.091  0.00  0.00    +0.040 C 
ATOM     17  C   UNL     1      33.610 -13.639 -22.233  0.00  0.00    +0.136 C 
ATOM     18  C   UNL     1      31.740 -12.727 -20.469  0.00  0.00    +0.024 C 
ATOM     19  C   UNL     1      31.887 -12.201 -21.742  0.00  0.00    +0.099 C 
ENDBRANCH  13  15
ENDBRANCH  12  13
ENDBRANCH   9  12
ENDBRANCH   2   6
BRANCH   3  25
ATOM     20  F   UNL     1      32.143 -22.389 -16.684  0.00  0.00    -0.233 F 
ATOM     21  C   UNL     1      35.069 -22.694 -15.943  0.00  0.00    -0.050 C 
ATOM     22  C   UNL     1      34.041 -23.737 -16.401  0.00  0.00    +0.019 C 
ATOM     23  C   UNL     1      35.855 -22.144 -17.147  0.00  0.00    +0.010 C 
ATOM     24  C   UNL     1      33.049 -23.123 -17.393  0.00  0.00    +0.181 C 
ATOM     25  C   UNL     1      34.964 -21.820 -18.310  0.00  0.00    +0.028 C 
ATOM     26  C   UNL     1      33.698 -22.245 -18.422  0.00  0.00    +0.009 C 
BRANCH  21  28
ATOM     27  O   UNL     1      37.898 -25.213 -14.137  0.00  0.00    -0.358 OA
ATOM     28  N   UNL     1      35.978 -23.280 -14.960  0.00  0.00    +0.392 N 
ATOM     29  C   UNL     1      35.592 -24.665 -14.654  0.00  0.00    -0.045 C 
ATOM     30  C   UNL     1      37.365 -23.240 -15.444  0.00  0.00    -0.045 C 
ATOM     31  C   UNL     1      38.294 -23.868 -14.408  0.00  0.00    +0.119 C 
ATOM     32  C   UNL     1      36.562 -25.258 -13.636  0.00  0.00    +0.119 C 
ATOM     33  H   UNL     1      35.914 -22.727 -14.106  0.00  0.00    -0.079 HD
ENDBRANCH  21  28
ENDBRANCH   3  25
TORSDOF 6
ENDMDL
MODEL 2
REMARK VINA RESULT:     -10.9      3.750     10.006
REMARK  Name = 46937120
REMARK  6 active torsions:
REMARK  status: ('A' for Active; 'I' for Inactive)
REMARK    1  A    between atoms: N_2  and  C_6
REMARK    2  A    between atoms: C_3  and  C_25
REMARK    3  A    between atoms: C_9  and  C_12
REMARK    4  A    between atoms: C_12  and  O_13
REMARK    5  A    between atoms: O_13  and  C_15
REMARK    6  A    between atoms: C_21  and  N_28
REMARK                            x       y       z     vdW  Elec       q    Type
REMARK                         _______ _______ _______ _____ _____    ______ ____
ROOT
ATOM      1  O   UNL     1      36.742 -18.889 -20.135  0.00  0.00    -0.270 OA
ATOM      2  N   UNL     1      35.038 -20.514 -20.165  0.00  0.00    -0.281 N 
ATOM      3  C   UNL     1      35.764 -19.433 -20.649  0.00  0.00    +0.245 C 
ATOM      4  H   UNL     1      34.281 -20.813 -20.720  0.00  0.00    +0.155 HD
ENDROOT
BRANCH   2   6
ATOM      5 CL   UNL     1      35.993 -23.533 -15.150  0.00  0.00    -0.082 Cl
ATOM      6  C   UNL     1      35.257 -21.238 -18.967  0.00  0.00    +0.050 C 
ATOM      7  C   UNL     1      34.231 -22.009 -18.421  0.00  0.00    +0.015 C 
ATOM      8  C   UNL     1      36.499 -21.180 -18.334  0.00  0.00    +0.016 C 
ATOM      9  C   UNL     1      34.447 -22.723 -17.242  0.00  0.00    +0.033 C 
ATOM     10  C   UNL     1      36.715 -21.893 -17.156  0.00  0.00    +0.012 C 
ATOM     11  C   UNL     1      35.690 -22.666 -16.610  0.00  0.00    +0.057 C 
BRANCH   9  12
ATOM     12  C   UNL     1      33.323 -23.537 -16.689  0.00  0.00    +0.233 C 
BRANCH  12  13
ATOM     13  O   UNL     1      32.171 -22.717 -16.554  0.00  0.00    -0.469 OA
BRANCH  13  15
ATOM     14  N   UNL     1      30.230 -24.904 -14.355  0.00  0.00    -0.239 NA
ATOM     15  C   UNL     1      31.092 -23.266 -15.910  0.00  0.00    +0.158 C 
ATOM     16  C   UNL     1      29.806 -22.788 -16.130  0.00  0.00    +0.040 C 
ATOM     17  C   UNL     1      31.250 -24.317 -15.021  0.00  0.00    +0.136 C 
ATOM     18  C   UNL     1      28.731 -23.366 -15.464  0.00  0.00    +0.024 C 
ATOM     19  C   UNL     1      28.994 -24.412 -14.595  0.00  0.00    +0.099 C 
ENDBRANCH  13  15
ENDBRANCH  12  13
ENDBRANCH   9  12
ENDBRANCH   2   6
BRANCH   3  25
ATOM     20  F   UNL     1      35.089 -19.804 -25.113  0.00  0.00    -0.233 F 
ATOM     21  C   UNL     1      35.070 -17.130 -23.678  0.00  0.00    -0.050 C 
ATOM     22  C   UNL     1      33.917 -17.959 -24.262  0.00  0.00    +0.019 C 
ATOM     23  C   UNL     1      35.277 -17.464 -22.190  0.00  0.00    +0.010 C 
ATOM     24  C   UNL     1      34.206 -19.457 -24.132  0.00  0.00    +0.181 C 
ATOM     25  C   UNL     1      35.241 -18.941 -21.926  0.00  0.00    +0.028 C 
ATOM     26  C   UNL     1      34.774 -19.844 -22.799  0.00  0.00    +0.009 C 
BRANCH  21  28
ATOM     27  O   UNL     1      33.166 -13.391 -23.586  0.00  0.00    -0.358 OA
ATOM     28  N   UNL     1      34.804 -15.704 -23.853  0.00  0.00    +0.392 N 
ATOM     29  C   UNL     1      33.625 -15.494 -24.705  0.00  0.00    -0.045 C 
ATOM     30  C   UNL     1      34.608 -15.047 -22.553  0.00  0.00    -0.045 C 
ATOM     31  C   UNL     1      34.320 -13.562 -22.761  0.00  0.00    +0.119 C 
ATOM     32  C   UNL     1      33.361 -13.999 -24.862  0.00  0.00    +0.119 C 
ATOM     33  H   UNL     1      35.615 -15.288 -24.310  0.00  0.00    -0.079 HD
ENDBRANCH  21  28
ENDBRANCH   3  25
TORSDOF 6
ENDMDL
MODEL 3
REMARK VINA RESULT:     -10.9      2.022      2.872
REMARK  Name = 46937120
REMARK  6 active torsions:
REMARK  status: ('A' for Active; 'I' for Inactive)
REMARK    1  A    between atoms: N_2  and  C_6
REMARK    2  A    between atoms: C_3  and  C_25
REMARK    3  A    between atoms: C_9  and  C_12
REMARK    4  A    between atoms: C_12  and  O_13
REMARK    5  A    between atoms: O_13  and  C_15
REMARK    6  A    between atoms: C_21  and  N_28
REMARK                            x       y       z     vdW  Elec       q    Type
REMARK                         _______ _______ _______ _____ _____    ______ ____
ROOT
ATOM      1  O   UNL     1      36.795 -21.682 -20.235  0.00  0.00    -0.270 OA
ATOM      2  N   UNL     1      35.129 -20.102 -19.718  0.00  0.00    -0.281 N 
ATOM      3  C   UNL     1      35.970 -21.178 -19.472  0.00  0.00    +0.245 C 
ATOM      4  H   UNL     1      34.532 -19.838 -18.980  0.00  0.00    +0.155 HD
ENDROOT
BRANCH   2   6
ATOM      5 CL   UNL     1      34.688 -16.931 -24.712  0.00  0.00    -0.082 Cl
ATOM      6  C   UNL     1      35.025 -19.336 -20.906  0.00  0.00    +0.050 C 
ATOM      7  C   UNL     1      35.204 -17.954 -20.862  0.00  0.00    +0.015 C 
ATOM      8  C   UNL     1      34.745 -19.966 -22.119  0.00  0.00    +0.016 C 
ATOM      9  C   UNL     1      35.102 -17.200 -22.032  0.00  0.00    +0.033 C 
ATOM     10  C   UNL     1      34.644 -19.213 -23.288  0.00  0.00    +0.012 C 
ATOM     11  C   UNL     1      34.823 -17.830 -23.246  0.00  0.00    +0.057 C 
BRANCH   9  12
ATOM     12  C   UNL     1      35.300 -15.722 -21.944  0.00  0.00    +0.233 C 
BRANCH  12  13
ATOM     13  O   UNL     1      34.536 -15.209 -20.861  0.00  0.00    -0.469 OA
BRANCH  13  15
ATOM     14  N   UNL     1      32.780 -12.608 -22.741  0.00  0.00    -0.239 NA
ATOM     15  C   UNL     1      33.637 -14.217 -21.153  0.00  0.00    +0.158 C 
ATOM     16  C   UNL     1      32.697 -13.803 -20.216  0.00  0.00    +0.040 C 
ATOM     17  C   UNL     1      33.637 -13.594 -22.390  0.00  0.00    +0.136 C 
ATOM     18  C   UNL     1      31.799 -12.792 -20.539  0.00  0.00    +0.024 C 
ATOM     19  C   UNL     1      31.881 -12.232 -21.803  0.00  0.00    +0.099 C 
ENDBRANCH  13  15
ENDBRANCH  12  13
ENDBRANCH   9  12
ENDBRANCH   2   6
BRANCH   3  25
ATOM     20  F   UNL     1      37.514 -23.290 -15.774  0.00  0.00    -0.233 F 
ATOM     21  C   UNL     1      34.568 -23.212 -16.495  0.00  0.00    -0.050 C 
ATOM     22  C   UNL     1      35.348 -22.471 -15.400  0.00  0.00    +0.019 C 
ATOM     23  C   UNL     1      34.483 -22.356 -17.772  0.00  0.00    +0.010 C 
ATOM     24  C   UNL     1      36.770 -22.150 -15.870  0.00  0.00    +0.181 C 
ATOM     25  C   UNL     1      35.797 -21.722 -18.123  0.00  0.00    +0.028 C 
ATOM     26  C   UNL     1      36.834 -21.638 -17.278  0.00  0.00    +0.009 C 
BRANCH  21  28
ATOM     27  O   UNL     1      30.788 -22.934 -14.693  0.00  0.00    -0.358 OA
ATOM     28  N   UNL     1      33.230 -23.554 -16.017  0.00  0.00    +0.392 N 
ATOM     29  C   UNL     1      33.156 -23.442 -14.553  0.00  0.00    -0.045 C 
ATOM     30  C   UNL     1      32.217 -22.693 -16.639  0.00  0.00    -0.045 C 
ATOM     31  C   UNL     1      30.831 -23.060 -16.115  0.00  0.00    +0.119 C 
ATOM     32  C   UNL     1      31.748 -23.793 -14.079  0.00  0.00    +0.119 C 
ATOM     33  H   UNL     1      33.042 -24.522 -16.279  0.00  0.00    -0.079 HD
ENDBRANCH  21  28
ENDBRANCH   3  25
TORSDOF 6
ENDMDL
MODEL 4
REMARK VINA RESULT:     -10.6      4.317     11.816
REMARK  Name = 46937120
REMARK  6 active torsions:
REMARK  status: ('A' for Active; 'I' for Inactive)
REMARK    1  A    between atoms: N_2  and  C_6
REMARK    2  A    between atoms: C_3  and  C_25
REMARK    3  A    between atoms: C_9  and  C_12
REMARK    4  A    between atoms: C_12  and  O_13
REMARK    5  A    between atoms: O_13  and  C_15
REMARK    6  A    between atoms: C_21  and  N_28
REMARK                            x       y       z     vdW  Elec       q    Type
REMARK                         _______ _______ _______ _____ _____    ______ ____
ROOT
ATOM      1  O   UNL     1      31.596 -13.562 -20.607  0.00  0.00    -0.270 OA
ATOM      2  N   UNL     1      33.188 -12.797 -22.164  0.00  0.00    -0.281 N 
ATOM      3  C   UNL     1      32.262 -12.671 -21.137  0.00  0.00    +0.245 C 
ATOM      4  H   UNL     1      33.625 -11.965 -22.459  0.00  0.00    +0.155 HD
ENDROOT
BRANCH   2   6
ATOM      5 CL   UNL     1      34.801 -17.735 -25.026  0.00  0.00    -0.082 Cl
ATOM      6  C   UNL     1      33.578 -13.979 -22.840  0.00  0.00    +0.050 C 
ATOM      7  C   UNL     1      34.356 -14.933 -22.184  0.00  0.00    +0.015 C 
ATOM      8  C   UNL     1      33.183 -14.189 -24.161  0.00  0.00    +0.016 C 
ATOM      9  C   UNL     1      34.739 -16.098 -22.849  0.00  0.00    +0.033 C 
ATOM     10  C   UNL     1      33.566 -15.353 -24.826  0.00  0.00    +0.012 C 
ATOM     11  C   UNL     1      34.344 -16.308 -24.171  0.00  0.00    +0.057 C 
BRANCH   9  12
ATOM     12  C   UNL     1      35.573 -17.095 -22.112  0.00  0.00    +0.233 C 
BRANCH  12  13
ATOM     13  O   UNL     1      34.859 -18.318 -22.005  0.00  0.00    -0.469 OA
BRANCH  13  15
ATOM     14  N   UNL     1      37.034 -19.964 -19.566  0.00  0.00    -0.239 NA
ATOM     15  C   UNL     1      35.277 -19.196 -21.039  0.00  0.00    +0.158 C 
ATOM     16  C   UNL     1      34.427 -20.182 -20.550  0.00  0.00    +0.040 C 
ATOM     17  C   UNL     1      36.559 -19.129 -20.519  0.00  0.00    +0.136 C 
ATOM     18  C   UNL     1      34.879 -21.059 -19.570  0.00  0.00    +0.024 C 
ATOM     19  C   UNL     1      36.179 -20.910 -19.116  0.00  0.00    +0.099 C 
ENDBRANCH  13  15
ENDBRANCH  12  13
ENDBRANCH   9  12
ENDBRANCH   2   6
BRANCH   3  25
ATOM     20  F   UNL     1      30.483  -9.504 -18.431  0.00  0.00    -0.233 F 
ATOM     21  C   UNL     1      31.623  -8.856 -21.167  0.00  0.00    -0.050 C 
ATOM     22  C   UNL     1      32.178  -8.580 -19.763  0.00  0.00    +0.019 C 
ATOM     23  C   UNL     1      32.166 -10.190 -21.710  0.00  0.00    +0.010 C 
ATOM     24  C   UNL     1      31.784  -9.698 -18.794  0.00  0.00    +0.181 C 
ATOM     25  C   UNL     1      32.118 -11.286 -20.684  0.00  0.00    +0.028 C 
ATOM     26  C   UNL     1      31.934 -11.073 -19.374  0.00  0.00    +0.009 C 
BRANCH  21  28
ATOM     27  O   UNL     1      33.164  -6.711 -24.428  0.00  0.00    -0.358 OA
ATOM     28  N   UNL     1      31.965  -7.758 -22.069  0.00  0.00    +0.392 N 
ATOM     29  C   UNL     1      33.423  -7.621 -22.195  0.00  0.00    -0.045 C 
ATOM     30  C   UNL     1      31.363  -7.965 -23.393  0.00  0.00    -0.045 C 
ATOM     31  C   UNL     1      31.744  -6.814 -24.321  0.00  0.00    +0.119 C 
ATOM     32  C   UNL     1      33.754  -6.477 -23.149  0.00  0.00    +0.119 C 
ATOM     33  H   UNL     1      31.589  -6.898 -21.671  0.00  0.00    -0.079 HD
ENDBRANCH  21  28
ENDBRANCH   3  25
TORSDOF 6
ENDMDL
MODEL 5
REMARK VINA RESULT:     -10.6      4.097     10.454
REMARK  Name = 46937120
REMARK  6 active torsions:
REMARK  status: ('A' for Active; 'I' for Inactive)
REMARK    1  A    between atoms: N_2  and  C_6
REMARK    2  A    between atoms: C_3  and  C_25
REMARK    3  A    between atoms: C_9  and  C_12
REMARK    4  A    between atoms: C_12  and  O_13
REMARK    5  A    between atoms: O_13  and  C_15
REMARK    6  A    between atoms: C_21  and  N_28
REMARK                            x       y       z     vdW  Elec       q    Type
REMARK                         _______ _______ _______ _____ _____    ______ ____
ROOT
ATOM      1  O   UNL     1      33.806 -23.613 -19.105  0.00  0.00    -0.270 OA
ATOM      2  N   UNL     1      33.644 -22.135 -17.279  0.00  0.00    -0.281 N 
ATOM      3  C   UNL     1      34.062 -22.550 -18.536  0.00  0.00    +0.245 C 
ATOM      4  H   UNL     1      33.952 -21.245 -16.991  0.00  0.00    +0.155 HD
ENDROOT
BRANCH   2   6
ATOM      5 CL   UNL     1      30.189 -25.068 -13.453  0.00  0.00    -0.082 Cl
ATOM      6  C   UNL     1      32.827 -22.839 -16.361  0.00  0.00    +0.050 C 
ATOM      7  C   UNL     1      33.409 -23.542 -15.306  0.00  0.00    +0.015 C 
ATOM      8  C   UNL     1      31.440 -22.827 -16.511  0.00  0.00    +0.016 C 
ATOM      9  C   UNL     1      32.604 -24.234 -14.401  0.00  0.00    +0.033 C 
ATOM     10  C   UNL     1      30.636 -23.519 -15.606  0.00  0.00    +0.012 C 
ATOM     11  C   UNL     1      31.216 -24.222 -14.551  0.00  0.00    +0.057 C 
BRANCH   9  12
ATOM     12  C   UNL     1      33.266 -24.976 -13.286  0.00  0.00    +0.233 C 
BRANCH  12  13
ATOM     13  O   UNL     1      33.890 -24.049 -12.409  0.00  0.00    -0.469 OA
BRANCH  13  15
ATOM     14  N   UNL     1      36.987 -24.292 -10.477  0.00  0.00    -0.239 NA
ATOM     15  C   UNL     1      35.211 -24.267 -12.117  0.00  0.00    +0.158 C 
ATOM     16  C   UNL     1      36.107 -24.664 -13.104  0.00  0.00    +0.040 C 
ATOM     17  C   UNL     1      35.697 -24.096 -10.831  0.00  0.00    +0.136 C 
ATOM     18  C   UNL     1      37.443 -24.875 -12.778  0.00  0.00    +0.024 C 
ATOM     19  C   UNL     1      37.829 -24.678 -11.463  0.00  0.00    +0.099 C 
ENDBRANCH  13  15
ENDBRANCH  12  13
ENDBRANCH   9  12
ENDBRANCH   2   6
BRANCH   3  25
ATOM     20  F   UNL     1      37.499 -19.601 -18.588  0.00  0.00    -0.233 F 
ATOM     21  C   UNL     1      35.149 -19.397 -20.496  0.00  0.00    -0.050 C 
ATOM     22  C   UNL     1      36.598 -19.840 -20.741  0.00  0.00    +0.019 C 
ATOM     23  C   UNL     1      34.258 -20.612 -20.178  0.00  0.00    +0.010 C 
ATOM     24  C   UNL     1      37.163 -20.552 -19.508  0.00  0.00    +0.181 C 
ATOM     25  C   UNL     1      34.903 -21.552 -19.201  0.00  0.00    +0.028 C 
ATOM     26  C   UNL     1      36.205 -21.522 -18.885  0.00  0.00    +0.009 C 
BRANCH  21  28
ATOM     27  O   UNL     1      34.935 -17.534 -24.250  0.00  0.00    -0.358 OA
ATOM     28  N   UNL     1      34.638 -18.677 -21.660  0.00  0.00    +0.392 N 
ATOM     29  C   UNL     1      35.384 -17.427 -21.868  0.00  0.00    -0.045 C 
ATOM     30  C   UNL     1      34.713 -19.514 -22.866  0.00  0.00    -0.045 C 
ATOM     31  C   UNL     1      34.187 -18.737 -24.070  0.00  0.00    +0.119 C 
ATOM     32  C   UNL     1      34.840 -16.700 -23.095  0.00  0.00    +0.119 C 
ATOM     33  H   UNL     1      33.660 -18.448 -21.483  0.00  0.00    -0.079 HD
ENDBRANCH  21  28
ENDBRANCH   3  25
TORSDOF 6
ENDMDL
MODEL 6
REMARK VINA RESULT:     -10.3      8.085     15.378
REMARK  Name = 46937120
REMARK  6 active torsions:
REMARK  status: ('A' for Active; 'I' for Inactive)
REMARK    1  A    between atoms: N_2  and  C_6
REMARK    2  A    between atoms: C_3  and  C_25
REMARK    3  A    between atoms: C_9  and  C_12
REMARK    4  A    between atoms: C_12  and  O_13
REMARK    5  A    between atoms: O_13  and  C_15
REMARK    6  A    between atoms: C_21  and  N_28
REMARK                            x       y       z     vdW  Elec       q    Type
REMARK                         _______ _______ _______ _____ _____    ______ ____
ROOT
ATOM      1  O   UNL     1      33.799  -7.415 -21.404  0.00  0.00    -0.270 OA
ATOM      2  N   UNL     1      31.616  -8.284 -21.550  0.00  0.00    -0.281 N 
ATOM      3  C   UNL     1      32.598  -7.307 -21.653  0.00  0.00    +0.245 C 
ATOM      4  H   UNL     1      30.702  -8.009 -21.796  0.00  0.00    +0.155 HD
ENDROOT
BRANCH   2   6
ATOM      5 CL   UNL     1      32.264 -13.902 -19.764  0.00  0.00    -0.082 Cl
ATOM      6  C   UNL     1      31.771  -9.628 -21.133  0.00  0.00    +0.050 C 
ATOM      7  C   UNL     1      31.945 -10.637 -22.080  0.00  0.00    +0.015 C 
ATOM      8  C   UNL     1      31.750  -9.943 -19.774  0.00  0.00    +0.016 C 
ATOM      9  C   UNL     1      32.099 -11.961 -21.669  0.00  0.00    +0.033 C 
ATOM     10  C   UNL     1      31.904 -11.267 -19.363  0.00  0.00    +0.012 C 
ATOM     11  C   UNL     1      32.079 -12.276 -20.310  0.00  0.00    +0.057 C 
BRANCH   9  12
ATOM     12  C   UNL     1      32.282 -13.013 -22.715  0.00  0.00    +0.233 C 
BRANCH  12  13
ATOM     13  O   UNL     1      33.668 -13.277 -22.878  0.00  0.00    -0.469 OA
BRANCH  13  15
ATOM     14  N   UNL     1      33.888 -16.142 -25.144  0.00  0.00    -0.239 NA
ATOM     15  C   UNL     1      34.009 -14.515 -23.359  0.00  0.00    +0.158 C 
ATOM     16  C   UNL     1      34.787 -15.387 -22.607  0.00  0.00    +0.040 C 
ATOM     17  C   UNL     1      33.589 -14.935 -24.610  0.00  0.00    +0.136 C 
ATOM     18  C   UNL     1      35.116 -16.637 -23.121  0.00  0.00    +0.024 C 
ATOM     19  C   UNL     1      34.646 -16.963 -24.382  0.00  0.00    +0.099 C 
ENDBRANCH  13  15
ENDBRANCH  12  13
ENDBRANCH   9  12
ENDBRANCH   2   6
BRANCH   3  25
ATOM     20  F   UNL     1      29.836  -3.738 -21.264  0.00  0.00    -0.233 F 
ATOM     21  C   UNL     1      30.996  -4.618 -23.927  0.00  0.00    -0.050 C 
ATOM     22  C   UNL     1      31.339  -3.416 -23.036  0.00  0.00    +0.019 C 
ATOM     23  C   UNL     1      31.909  -5.813 -23.599  0.00  0.00    +0.010 C 
ATOM     24  C   UNL     1      31.169  -3.771 -21.556  0.00  0.00    +0.181 C 
ATOM     25  C   UNL     1      32.061  -6.027 -22.121  0.00  0.00    +0.028 C 
ATOM     26  C   UNL     1      31.718  -5.119 -21.196  0.00  0.00    +0.009 C 
BRANCH  21  28
ATOM     27  O   UNL     1      32.353  -2.852 -27.483  0.00  0.00    -0.358 OA
ATOM     28  N   UNL     1      31.115  -4.252 -25.336  0.00  0.00    +0.392 N 
ATOM     29  C   UNL     1      30.936  -2.804 -25.515  0.00  0.00    -0.045 C 
ATOM     30  C   UNL     1      32.417  -4.667 -25.875  0.00  0.00    -0.045 C 
ATOM     31  C   UNL     1      32.524  -4.263 -27.343  0.00  0.00    +0.119 C 
ATOM     32  C   UNL     1      31.076  -2.445 -26.992  0.00  0.00    +0.119 C 
ATOM     33  H   UNL     1      30.380  -4.738 -25.849  0.00  0.00    -0.079 HD
ENDBRANCH  21  28
ENDBRANCH   3  25
TORSDOF 6
ENDMDL
MODEL 7
REMARK VINA RESULT:     -10.3      2.011      2.633
REMARK  Name = 46937120
REMARK  6 active torsions:
REMARK  status: ('A' for Active; 'I' for Inactive)
REMARK    1  A    between atoms: N_2  and  C_6
REMARK    2  A    between atoms: C_3  and  C_25
REMARK    3  A    between atoms: C_9  and  C_12
REMARK    4  A    between atoms: C_12  and  O_13
REMARK    5  A    between atoms: O_13  and  C_15
REMARK    6  A    between atoms: C_21  and  N_28
REMARK                            x       y       z     vdW  Elec       q    Type
REMARK                         _______ _______ _______ _____ _____    ______ ____
ROOT
ATOM      1  O   UNL     1      33.472 -21.304 -20.071  0.00  0.00    -0.270 OA
ATOM      2  N   UNL     1      35.351 -19.886 -20.033  0.00  0.00    -0.281 N 
ATOM      3  C   UNL     1      34.522 -20.897 -19.569  0.00  0.00    +0.245 C 
ATOM      4  H   UNL     1      36.154 -19.700 -19.493  0.00  0.00    +0.155 HD
ENDROOT
BRANCH   2   6
ATOM      5 CL   UNL     1      34.641 -16.580 -24.907  0.00  0.00    -0.082 Cl
ATOM      6  C   UNL     1      35.182 -19.088 -21.192  0.00  0.00    +0.050 C 
ATOM      7  C   UNL     1      35.193 -17.698 -21.089  0.00  0.00    +0.015 C 
ATOM      8  C   UNL     1      35.005 -19.694 -22.436  0.00  0.00    +0.016 C 
ATOM      9  C   UNL     1      35.027 -16.912 -22.230  0.00  0.00    +0.033 C 
ATOM     10  C   UNL     1      34.839 -18.910 -23.576  0.00  0.00    +0.012 C 
ATOM     11  C   UNL     1      34.851 -17.519 -23.474  0.00  0.00    +0.057 C 
BRANCH   9  12
ATOM     12  C   UNL     1      35.044 -15.426 -22.078  0.00  0.00    +0.233 C 
BRANCH  12  13
ATOM     13  O   UNL     1      33.863 -14.881 -22.649  0.00  0.00    -0.469 OA
BRANCH  13  15
ATOM     14  N   UNL     1      31.952 -11.873 -21.821  0.00  0.00    -0.239 NA
ATOM     15  C   UNL     1      33.188 -13.949 -21.904  0.00  0.00    +0.158 C 
ATOM     16  C   UNL     1      33.047 -14.096 -20.528  0.00  0.00    +0.040 C 
ATOM     17  C   UNL     1      32.628 -12.830 -22.497  0.00  0.00    +0.136 C 
ATOM     18  C   UNL     1      32.359 -13.133 -19.798  0.00  0.00    +0.024 C 
ATOM     19  C   UNL     1      31.836 -12.050 -20.485  0.00  0.00    +0.099 C 
ENDBRANCH  13  15
ENDBRANCH  12  13
ENDBRANCH   9  12
ENDBRANCH   2   6
BRANCH   3  25
ATOM     20  F   UNL     1      37.808 -22.735 -17.050  0.00  0.00    -0.233 F 
ATOM     21  C   UNL     1      34.865 -23.264 -16.528  0.00  0.00    -0.050 C 
ATOM     22  C   UNL     1      35.878 -22.405 -15.758  0.00  0.00    +0.019 C 
ATOM     23  C   UNL     1      34.108 -22.411 -17.562  0.00  0.00    +0.010 C 
ATOM     24  C   UNL     1      36.896 -21.776 -16.715  0.00  0.00    +0.181 C 
ATOM     25  C   UNL     1      35.021 -21.503 -18.332  0.00  0.00    +0.028 C 
ATOM     26  C   UNL     1      36.280 -21.224 -17.965  0.00  0.00    +0.009 C 
BRANCH  21  28
ATOM     27  O   UNL     1      32.126 -23.829 -13.401  0.00  0.00    -0.358 OA
ATOM     28  N   UNL     1      33.931 -23.896 -15.600  0.00  0.00    +0.392 N 
ATOM     29  C   UNL     1      34.410 -23.774 -14.215  0.00  0.00    -0.045 C 
ATOM     30  C   UNL     1      32.592 -23.303 -15.722  0.00  0.00    -0.045 C 
ATOM     31  C   UNL     1      31.638 -23.969 -14.735  0.00  0.00    +0.119 C 
ATOM     32  C   UNL     1      33.412 -24.431 -13.265  0.00  0.00    +0.119 C 
ATOM     33  H   UNL     1      33.873 -24.885 -15.839  0.00  0.00    -0.079 HD
ENDBRANCH  21  28
ENDBRANCH   3  25
TORSDOF 6
ENDMDL
MODEL 8
REMARK VINA RESULT:     -10.2      5.458     13.296
REMARK  Name = 46937120
REMARK  6 active torsions:
REMARK  status: ('A' for Active; 'I' for Inactive)
REMARK    1  A    between atoms: N_2  and  C_6
REMARK    2  A    between atoms: C_3  and  C_25
REMARK    3  A    between atoms: C_9  and  C_12
REMARK    4  A    between atoms: C_12  and  O_13
REMARK    5  A    between atoms: O_13  and  C_15
REMARK    6  A    between atoms: C_21  and  N_28
REMARK                            x       y       z     vdW  Elec       q    Type
REMARK                         _______ _______ _______ _____ _____    ______ ____
ROOT
ATOM      1  O   UNL     1      31.987 -11.457 -22.550  0.00  0.00    -0.270 OA
ATOM      2  N   UNL     1      33.923 -11.843 -23.834  0.00  0.00    -0.281 N 
ATOM      3  C   UNL     1      32.982 -11.071 -23.166  0.00  0.00    +0.245 C 
ATOM      4  H   UNL     1      34.656 -11.352 -24.272  0.00  0.00    +0.155 HD
ENDROOT
BRANCH   2   6
ATOM      5 CL   UNL     1      34.032 -17.745 -24.406  0.00  0.00    -0.082 Cl
ATOM      6  C   UNL     1      33.954 -13.253 -23.962  0.00  0.00    +0.050 C 
ATOM      7  C   UNL     1      34.523 -14.033 -22.956  0.00  0.00    +0.015 C 
ATOM      8  C   UNL     1      33.414 -13.862 -25.095  0.00  0.00    +0.016 C 
ATOM      9  C   UNL     1      34.553 -15.422 -23.082  0.00  0.00    +0.033 C 
ATOM     10  C   UNL     1      33.443 -15.251 -25.221  0.00  0.00    +0.012 C 
ATOM     11  C   UNL     1      34.012 -16.031 -24.215  0.00  0.00    +0.057 C 
BRANCH   9  12
ATOM     12  C   UNL     1      35.173 -16.221 -21.982  0.00  0.00    +0.233 C 
BRANCH  12  13
ATOM     13  O   UNL     1      35.537 -17.501 -22.479  0.00  0.00    -0.469 OA
BRANCH  13  15
ATOM     14  N   UNL     1      37.154 -19.602 -19.957  0.00  0.00    -0.239 NA
ATOM     15  C   UNL     1      35.713 -18.497 -21.554  0.00  0.00    +0.158 C 
ATOM     16  C   UNL     1      34.692 -19.395 -21.264  0.00  0.00    +0.040 C 
ATOM     17  C   UNL     1      36.914 -18.642 -20.879  0.00  0.00    +0.136 C 
ATOM     18  C   UNL     1      34.900 -20.397 -20.322  0.00  0.00    +0.024 C 
ATOM     19  C   UNL     1      36.138 -20.456 -19.702  0.00  0.00    +0.099 C 
ENDBRANCH  13  15
ENDBRANCH  12  13
ENDBRANCH   9  12
ENDBRANCH   2   6
BRANCH   3  25
ATOM     20  F   UNL     1      35.691  -7.496 -22.530  0.00  0.00    -0.233 F 
ATOM     21  C   UNL     1      32.676  -7.237 -22.750  0.00  0.00    -0.050 C 
ATOM     22  C   UNL     1      33.785  -6.869 -23.745  0.00  0.00    +0.019 C 
ATOM     23  C   UNL     1      32.162  -8.663 -23.016  0.00  0.00    +0.010 C 
ATOM     24  C   UNL     1      34.962  -7.842 -23.631  0.00  0.00    +0.181 C 
ATOM     25  C   UNL     1      33.279  -9.639 -23.249  0.00  0.00    +0.028 C 
ATOM     26  C   UNL     1      34.542  -9.277 -23.512  0.00  0.00    +0.009 C 
BRANCH  21  28
ATOM     27  O   UNL     1      30.561  -3.619 -22.974  0.00  0.00    -0.358 OA
ATOM     28  N   UNL     1      31.581  -6.273 -22.835  0.00  0.00    +0.392 N 
ATOM     29  C   UNL     1      31.571  -5.390 -21.660  0.00  0.00    -0.045 C 
ATOM     30  C   UNL     1      31.684  -5.473 -24.063  0.00  0.00    -0.045 C 
ATOM     31  C   UNL     1      30.539  -4.465 -24.124  0.00  0.00    +0.119 C 
ATOM     32  C   UNL     1      30.428  -4.386 -21.777  0.00  0.00    +0.119 C 
ATOM     33  H   UNL     1      30.705  -6.795 -22.858  0.00  0.00    -0.079 HD
ENDBRANCH  21  28
ENDBRANCH   3  25
TORSDOF 6
ENDMDL
MODEL 9
REMARK VINA RESULT:     -10.1      4.446      6.620
REMARK  Name = 46937120
REMARK  6 active torsions:
REMARK  status: ('A' for Active; 'I' for Inactive)
REMARK    1  A    between atoms: N_2  and  C_6
REMARK    2  A    between atoms: C_3  and  C_25
REMARK    3  A    between atoms: C_9  and  C_12
REMARK    4  A    between atoms: C_12  and  O_13
REMARK    5  A    between atoms: O_13  and  C_15
REMARK    6  A    between atoms: C_21  and  N_28
REMARK                            x       y       z     vdW  Elec       q    Type
REMARK                         _______ _______ _______ _____ _____    ______ ____
ROOT
ATOM      1  O   UNL     1      33.391 -22.794 -15.061  0.00  0.00    -0.270 OA
ATOM      2  N   UNL     1      32.603 -22.778 -17.279  0.00  0.00    -0.281 N 
ATOM      3  C   UNL     1      32.536 -23.031 -15.916  0.00  0.00    +0.245 C 
ATOM      4  H   UNL     1      31.814 -23.040 -17.809  0.00  0.00    +0.155 HD
ENDROOT
BRANCH   2   6
ATOM      5 CL   UNL     1      37.096 -20.324 -20.274  0.00  0.00    -0.082 Cl
ATOM      6  C   UNL     1      33.670 -22.188 -18.001  0.00  0.00    +0.050 C 
ATOM      7  C   UNL     1      33.401 -21.339 -19.074  0.00  0.00    +0.015 C 
ATOM      8  C   UNL     1      34.989 -22.454 -17.636  0.00  0.00    +0.016 C 
ATOM      9  C   UNL     1      34.451 -20.757 -19.784  0.00  0.00    +0.033 C 
ATOM     10  C   UNL     1      36.040 -21.872 -18.345  0.00  0.00    +0.012 C 
ATOM     11  C   UNL     1      35.771 -21.023 -19.418  0.00  0.00    +0.057 C 
BRANCH   9  12
ATOM     12  C   UNL     1      34.121 -19.855 -20.929  0.00  0.00    +0.233 C 
BRANCH  12  13
ATOM     13  O   UNL     1      34.898 -18.670 -20.832  0.00  0.00    -0.469 OA
BRANCH  13  15
ATOM     14  N   UNL     1      35.268 -15.647 -22.860  0.00  0.00    -0.239 NA
ATOM     15  C   UNL     1      34.918 -17.852 -21.932  0.00  0.00    +0.158 C 
ATOM     16  C   UNL     1      34.621 -18.345 -23.198  0.00  0.00    +0.040 C 
ATOM     17  C   UNL     1      35.233 -16.508 -21.818  0.00  0.00    +0.136 C 
ATOM     18  C   UNL     1      34.647 -17.491 -24.295  0.00  0.00    +0.024 C 
ATOM     19  C   UNL     1      34.973 -16.163 -24.075  0.00  0.00    +0.099 C 
ENDBRANCH  13  15
ENDBRANCH  12  13
ENDBRANCH   9  12
ENDBRANCH   2   6
BRANCH   3  25
ATOM     20  F   UNL     1      30.022 -26.626 -14.787  0.00  0.00    -0.233 F 
ATOM     21  C   UNL     1      28.816 -24.091 -15.941  0.00  0.00    -0.050 C 
ATOM     22  C   UNL     1      28.789 -24.649 -14.511  0.00  0.00    +0.019 C 
ATOM     23  C   UNL     1      29.998 -23.122 -16.121  0.00  0.00    +0.010 C 
ATOM     24  C   UNL     1      30.088 -25.397 -14.195  0.00  0.00    +0.181 C 
ATOM     25  C   UNL     1      31.270 -23.656 -15.528  0.00  0.00    +0.028 C 
ATOM     26  C   UNL     1      31.319 -24.687 -14.672  0.00  0.00    +0.009 C 
BRANCH  21  28
ATOM     27  O   UNL     1      25.989 -21.105 -16.776  0.00  0.00    -0.358 OA
ATOM     28  N   UNL     1      27.553 -23.423 -16.245  0.00  0.00    +0.392 N 
ATOM     29  C   UNL     1      27.194 -22.477 -15.179  0.00  0.00    -0.045 C 
ATOM     30  C   UNL     1      27.631 -22.722 -17.534  0.00  0.00    -0.045 C 
ATOM     31  C   UNL     1      26.306 -22.021 -17.824  0.00  0.00    +0.119 C 
ATOM     32  C   UNL     1      25.879 -21.783 -15.525  0.00  0.00    +0.119 C 
ATOM     33  H   UNL     1      26.827 -24.137 -16.305  0.00  0.00    -0.079 HD
ENDBRANCH  21  28
ENDBRANCH   3  25
TORSDOF 6
ENDMDL
