MODEL 1
REMARK VINA RESULT:     -11.4      0.000      0.000
REMARK  Name = 456199
REMARK  5 active torsions:
REMARK  status: ('A' for Active; 'I' for Inactive)
REMARK    1  A    between atoms: O_1  and  C_5
REMARK    2  A    between atoms: O_1  and  C_14
REMARK    3  A    between atoms: C_14  and  C_15
REMARK    4  A    between atoms: C_20  and  O_21
REMARK    5  A    between atoms: O_21  and  C_25
REMARK                            x       y       z     vdW  Elec       q    Type
REMARK                         _______ _______ _______ _____ _____    ______ ____
ROOT
ATOM      1  O   UNL     1      33.223 -22.770 -17.086  0.00  0.00    -0.346 OA
ENDROOT
BRANCH   1   5
ATOM      2  O   UNL     1      32.526 -24.295 -13.803  0.00  0.00    -0.438 OA
ATOM      3  N   UNL     1      34.800 -23.585 -13.890  0.00  0.00    -0.242 N 
ATOM      4  N   UNL     1      34.063 -24.588 -12.055  0.00  0.00    -0.333 NA
ATOM      5  C   UNL     1      33.502 -23.570 -15.947  0.00  0.00    +0.179 C 
ATOM      6  C   UNL     1      34.746 -23.053 -15.232  0.00  0.00    +0.130 C 
ATOM      7  C   UNL     1      32.307 -23.529 -14.994  0.00  0.00    +0.241 C 
ATOM      8  C   UNL     1      33.732 -24.155 -13.251  0.00  0.00    +0.345 C 
ATOM      9  C   UNL     1      35.871 -23.634 -13.054  0.00  0.00    +0.181 C 
ATOM     10  C   UNL     1      35.392 -24.258 -11.923  0.00  0.00    +0.274 C 
ATOM     11  O   UNL     1      37.291 -24.249 -10.621  0.00  0.00    -0.124 OA
ATOM     12  O   UNL     1      35.459 -25.143  -9.799  0.00  0.00    -0.124 OA
ATOM     13  N   UNL     1      36.074 -24.561 -10.737  0.00  0.00    +0.085 N 
ENDBRANCH   1   5
BRANCH   1  14
ATOM     14  C   UNL     1      34.055 -23.123 -18.182  0.00  0.00    +0.169 C 
BRANCH  14  15
ATOM     15  C   UNL     1      34.316 -21.900 -19.011  0.00  0.00    +0.007 C 
ATOM     16  C   UNL     1      33.247 -21.183 -19.535  0.00  0.00    +0.001 C 
ATOM     17  C   UNL     1      35.625 -21.495 -19.246  0.00  0.00    +0.001 C 
ATOM     18  C   UNL     1      33.490 -20.046 -20.306  0.00  0.00    +0.037 C 
ATOM     19  C   UNL     1      35.869 -20.358 -20.017  0.00  0.00    +0.037 C 
ATOM     20  C   UNL     1      34.801 -19.634 -20.547  0.00  0.00    +0.147 C 
BRANCH  20  21
ATOM     21  O   UNL     1      35.038 -18.524 -21.299  0.00  0.00    -0.404 OA
BRANCH  21  25
ATOM     22  F   UNL     1      36.939 -18.720 -22.555  0.00  0.00    -0.133 F 
ATOM     23  F   UNL     1      35.215 -17.656 -23.375  0.00  0.00    -0.133 F 
ATOM     24  F   UNL     1      35.132 -19.831 -23.174  0.00  0.00    -0.133 F 
ATOM     25  C   UNL     1      35.591 -18.698 -22.599  0.00  0.00    +0.575 C 
ENDBRANCH  21  25
ENDBRANCH  20  21
ENDBRANCH  14  15
ENDBRANCH   1  14
TORSDOF 5
ENDMDL
MODEL 2
REMARK VINA RESULT:     -10.9      1.430      2.039
REMARK  Name = 456199
REMARK  5 active torsions:
REMARK  status: ('A' for Active; 'I' for Inactive)
REMARK    1  A    between atoms: O_1  and  C_5
REMARK    2  A    between atoms: O_1  and  C_14
REMARK    3  A    between atoms: C_14  and  C_15
REMARK    4  A    between atoms: C_20  and  O_21
REMARK    5  A    between atoms: O_21  and  C_25
REMARK                            x       y       z     vdW  Elec       q    Type
REMARK                         _______ _______ _______ _____ _____    ______ ____
ROOT
ATOM      1  O   UNL     1      34.623 -23.321 -17.196  0.00  0.00    -0.346 OA
ENDROOT
BRANCH   1   5
ATOM      2  O   UNL     1      36.793 -22.419 -14.356  0.00  0.00    -0.438 OA
ATOM      3  N   UNL     1      35.174 -24.020 -13.651  0.00  0.00    -0.242 N 
ATOM      4  N   UNL     1      36.616 -23.231 -12.163  0.00  0.00    -0.333 NA
ATOM      5  C   UNL     1      34.917 -23.002 -15.845  0.00  0.00    +0.179 C 
ATOM      6  C   UNL     1      34.523 -24.159 -14.933  0.00  0.00    +0.130 C 
ATOM      7  C   UNL     1      36.414 -22.723 -15.704  0.00  0.00    +0.241 C 
ATOM      8  C   UNL     1      36.242 -23.195 -13.422  0.00  0.00    +0.345 C 
ATOM      9  C   UNL     1      34.854 -24.635 -12.480  0.00  0.00    +0.181 C 
ATOM     10  C   UNL     1      35.761 -24.133 -11.573  0.00  0.00    +0.274 C 
ATOM     11  O   UNL     1      35.107 -25.268  -9.680  0.00  0.00    -0.124 OA
ATOM     12  O   UNL     1      36.794 -23.867  -9.533  0.00  0.00    -0.124 OA
ATOM     13  N   UNL     1      35.892 -24.434 -10.211  0.00  0.00    +0.085 N 
ENDBRANCH   1   5
BRANCH   1  14
ATOM     14  C   UNL     1      33.496 -22.596 -17.665  0.00  0.00    +0.169 C 
BRANCH  14  15
ATOM     15  C   UNL     1      33.920 -21.713 -18.801  0.00  0.00    +0.007 C 
ATOM     16  C   UNL     1      32.966 -20.978 -19.494  0.00  0.00    +0.001 C 
ATOM     17  C   UNL     1      35.264 -21.639 -19.150  0.00  0.00    +0.001 C 
ATOM     18  C   UNL     1      33.361 -20.156 -20.551  0.00  0.00    +0.037 C 
ATOM     19  C   UNL     1      35.659 -20.818 -20.207  0.00  0.00    +0.037 C 
ATOM     20  C   UNL     1      34.707 -20.077 -20.907  0.00  0.00    +0.147 C 
BRANCH  20  21
ATOM     21  O   UNL     1      35.092 -19.276 -21.938  0.00  0.00    -0.404 OA
BRANCH  21  25
ATOM     22  F   UNL     1      35.598 -17.170 -22.672  0.00  0.00    -0.133 F 
ATOM     23  F   UNL     1      37.001 -18.217 -21.363  0.00  0.00    -0.133 F 
ATOM     24  F   UNL     1      35.121 -17.469 -20.535  0.00  0.00    -0.133 F 
ATOM     25  C   UNL     1      35.689 -18.022 -21.629  0.00  0.00    +0.575 C 
ENDBRANCH  21  25
ENDBRANCH  20  21
ENDBRANCH  14  15
ENDBRANCH   1  14
TORSDOF 5
ENDMDL
MODEL 3
REMARK VINA RESULT:     -10.3      6.039      8.743
REMARK  Name = 456199
REMARK  5 active torsions:
REMARK  status: ('A' for Active; 'I' for Inactive)
REMARK    1  A    between atoms: O_1  and  C_5
REMARK    2  A    between atoms: O_1  and  C_14
REMARK    3  A    between atoms: C_14  and  C_15
REMARK    4  A    between atoms: C_20  and  O_21
REMARK    5  A    between atoms: O_21  and  C_25
REMARK                            x       y       z     vdW  Elec       q    Type
REMARK                         _______ _______ _______ _____ _____    ______ ____
ROOT
ATOM      1  O   UNL     1      32.719 -24.892 -13.488  0.00  0.00    -0.346 OA
ENDROOT
BRANCH   1   5
ATOM      2  O   UNL     1      31.348 -22.822 -16.213  0.00  0.00    -0.438 OA
ATOM      3  N   UNL     1      29.594 -23.460 -14.731  0.00  0.00    -0.242 N 
ATOM      4  N   UNL     1      29.097 -22.237 -16.513  0.00  0.00    -0.333 NA
ATOM      5  C   UNL     1      31.769 -24.517 -14.474  0.00  0.00    +0.179 C 
ATOM      6  C   UNL     1      30.424 -24.215 -13.821  0.00  0.00    +0.130 C 
ATOM      7  C   UNL     1      32.271 -23.278 -15.216  0.00  0.00    +0.241 C 
ATOM      8  C   UNL     1      30.068 -22.815 -15.842  0.00  0.00    +0.345 C 
ATOM      9  C   UNL     1      28.248 -23.272 -14.673  0.00  0.00    +0.181 C 
ATOM     10  C   UNL     1      27.962 -22.511 -15.785  0.00  0.00    +0.274 C 
ATOM     11  O   UNL     1      25.686 -22.268 -15.533  0.00  0.00    -0.124 OA
ATOM     12  O   UNL     1      26.656 -21.331 -17.269  0.00  0.00    -0.124 OA
ATOM     13  N   UNL     1      26.721 -22.019 -16.211  0.00  0.00    +0.085 N 
ENDBRANCH   1   5
BRANCH   1  14
ATOM     14  C   UNL     1      33.773 -23.944 -13.399  0.00  0.00    +0.169 C 
BRANCH  14  15
ATOM     15  C   UNL     1      35.086 -24.668 -13.440  0.00  0.00    +0.007 C 
ATOM     16  C   UNL     1      35.496 -25.283 -14.617  0.00  0.00    +0.001 C 
ATOM     17  C   UNL     1      35.881 -24.716 -12.300  0.00  0.00    +0.001 C 
ATOM     18  C   UNL     1      36.718 -25.957 -14.655  0.00  0.00    +0.037 C 
ATOM     19  C   UNL     1      37.102 -25.389 -12.337  0.00  0.00    +0.037 C 
ATOM     20  C   UNL     1      37.521 -26.009 -13.515  0.00  0.00    +0.147 C 
BRANCH  20  21
ATOM     21  O   UNL     1      38.712 -26.666 -13.552  0.00  0.00    -0.404 OA
BRANCH  21  25
ATOM     22  F   UNL     1      39.911 -25.508 -15.119  0.00  0.00    -0.133 F 
ATOM     23  F   UNL     1      40.969 -26.698 -13.622  0.00  0.00    -0.133 F 
ATOM     24  F   UNL     1      39.986 -24.844 -13.013  0.00  0.00    -0.133 F 
ATOM     25  C   UNL     1      39.887 -25.913 -13.832  0.00  0.00    +0.575 C 
ENDBRANCH  21  25
ENDBRANCH  20  21
ENDBRANCH  14  15
ENDBRANCH   1  14
TORSDOF 5
ENDMDL
MODEL 4
REMARK VINA RESULT:     -10.3      5.591      6.881
REMARK  Name = 456199
REMARK  5 active torsions:
REMARK  status: ('A' for Active; 'I' for Inactive)
REMARK    1  A    between atoms: O_1  and  C_5
REMARK    2  A    between atoms: O_1  and  C_14
REMARK    3  A    between atoms: C_14  and  C_15
REMARK    4  A    between atoms: C_20  and  O_21
REMARK    5  A    between atoms: O_21  and  C_25
REMARK                            x       y       z     vdW  Elec       q    Type
REMARK                         _______ _______ _______ _____ _____    ______ ____
ROOT
ATOM      1  O   UNL     1      33.509 -23.914 -12.672  0.00  0.00    -0.346 OA
ENDROOT
BRANCH   1   5
ATOM      2  O   UNL     1      37.007 -24.003 -11.511  0.00  0.00    -0.438 OA
ATOM      3  N   UNL     1      36.891 -24.765 -13.767  0.00  0.00    -0.242 N 
ATOM      4  N   UNL     1      38.861 -24.734 -12.748  0.00  0.00    -0.333 NA
ATOM      5  C   UNL     1      34.814 -24.458 -12.540  0.00  0.00    +0.179 C 
ATOM      6  C   UNL     1      35.463 -24.607 -13.912  0.00  0.00    +0.130 C 
ATOM      7  C   UNL     1      35.663 -23.532 -11.668  0.00  0.00    +0.241 C 
ATOM      8  C   UNL     1      37.581 -24.464 -12.623  0.00  0.00    +0.345 C 
ATOM      9  C   UNL     1      37.778 -25.236 -14.685  0.00  0.00    +0.181 C 
ATOM     10  C   UNL     1      38.991 -25.208 -14.034  0.00  0.00    +0.274 C 
ATOM     11  O   UNL     1      40.363 -26.005 -15.701  0.00  0.00    -0.124 OA
ATOM     12  O   UNL     1      41.260 -25.482 -13.764  0.00  0.00    -0.124 OA
ATOM     13  N   UNL     1      40.252 -25.579 -14.518  0.00  0.00    +0.085 N 
ENDBRANCH   1   5
BRANCH   1  14
ATOM     14  C   UNL     1      32.610 -24.859 -13.233  0.00  0.00    +0.169 C 
BRANCH  14  15
ATOM     15  C   UNL     1      31.614 -24.136 -14.092  0.00  0.00    +0.007 C 
ATOM     16  C   UNL     1      30.326 -23.920 -13.618  0.00  0.00    +0.001 C 
ATOM     17  C   UNL     1      31.990 -23.689 -15.353  0.00  0.00    +0.001 C 
ATOM     18  C   UNL     1      29.399 -23.248 -14.416  0.00  0.00    +0.037 C 
ATOM     19  C   UNL     1      31.065 -23.017 -16.152  0.00  0.00    +0.037 C 
ATOM     20  C   UNL     1      29.770 -22.796 -15.683  0.00  0.00    +0.147 C 
BRANCH  20  21
ATOM     21  O   UNL     1      28.866 -22.141 -16.462  0.00  0.00    -0.404 OA
BRANCH  21  25
ATOM     22  F   UNL     1      27.736 -24.080 -16.898  0.00  0.00    -0.133 F 
ATOM     23  F   UNL     1      27.045 -22.211 -17.794  0.00  0.00    -0.133 F 
ATOM     24  F   UNL     1      26.764 -22.537 -15.651  0.00  0.00    -0.133 F 
ATOM     25  C   UNL     1      27.602 -22.754 -16.688  0.00  0.00    +0.575 C 
ENDBRANCH  21  25
ENDBRANCH  20  21
ENDBRANCH  14  15
ENDBRANCH   1  14
TORSDOF 5
ENDMDL
MODEL 5
REMARK VINA RESULT:     -10.0      6.437     10.616
REMARK  Name = 456199
REMARK  5 active torsions:
REMARK  status: ('A' for Active; 'I' for Inactive)
REMARK    1  A    between atoms: O_1  and  C_5
REMARK    2  A    between atoms: O_1  and  C_14
REMARK    3  A    between atoms: C_14  and  C_15
REMARK    4  A    between atoms: C_20  and  O_21
REMARK    5  A    between atoms: O_21  and  C_25
REMARK                            x       y       z     vdW  Elec       q    Type
REMARK                         _______ _______ _______ _____ _____    ______ ____
ROOT
ATOM      1  O   UNL     1      35.640 -17.119 -20.489  0.00  0.00    -0.346 OA
ENDROOT
BRANCH   1   5
ATOM      2  O   UNL     1      34.001 -14.913 -22.946  0.00  0.00    -0.438 OA
ATOM      3  N   UNL     1      33.487 -14.175 -20.738  0.00  0.00    -0.242 N 
ATOM      4  N   UNL     1      32.617 -13.083 -22.461  0.00  0.00    -0.333 NA
ATOM      5  C   UNL     1      34.584 -16.328 -21.014  0.00  0.00    +0.179 C 
ATOM      6  C   UNL     1      34.247 -15.193 -20.052  0.00  0.00    +0.130 C 
ATOM      7  C   UNL     1      35.009 -15.749 -22.364  0.00  0.00    +0.241 C 
ATOM      8  C   UNL     1      33.401 -14.074 -22.101  0.00  0.00    +0.345 C 
ATOM      9  C   UNL     1      32.733 -13.184 -20.191  0.00  0.00    +0.181 C 
ATOM     10  C   UNL     1      32.204 -12.519 -21.275  0.00  0.00    +0.274 C 
ATOM     11  O   UNL     1      30.990 -10.888 -20.196  0.00  0.00    -0.124 OA
ATOM     12  O   UNL     1      30.972 -10.928 -22.393  0.00  0.00    -0.124 OA
ATOM     13  N   UNL     1      31.357 -11.404 -21.288  0.00  0.00    +0.085 N 
ENDBRANCH   1   5
BRANCH   1  14
ATOM     14  C   UNL     1      35.926 -18.224 -21.332  0.00  0.00    +0.169 C 
BRANCH  14  15
ATOM     15  C   UNL     1      35.529 -19.490 -20.631  0.00  0.00    +0.007 C 
ATOM     16  C   UNL     1      36.502 -20.276 -20.027  0.00  0.00    +0.001 C 
ATOM     17  C   UNL     1      34.191 -19.864 -20.593  0.00  0.00    +0.001 C 
ATOM     18  C   UNL     1      36.133 -21.454 -19.375  0.00  0.00    +0.037 C 
ATOM     19  C   UNL     1      33.820 -21.041 -19.942  0.00  0.00    +0.037 C 
ATOM     20  C   UNL     1      34.792 -21.835 -19.332  0.00  0.00    +0.147 C 
BRANCH  20  21
ATOM     21  O   UNL     1      34.432 -22.984 -18.696  0.00  0.00    -0.404 OA
BRANCH  21  25
ATOM     22  F   UNL     1      34.694 -22.351 -16.514  0.00  0.00    -0.133 F 
ATOM     23  F   UNL     1      33.501 -24.121 -16.983  0.00  0.00    -0.133 F 
ATOM     24  F   UNL     1      32.706 -22.141 -17.455  0.00  0.00    -0.133 F 
ATOM     25  C   UNL     1      33.835 -22.882 -17.409  0.00  0.00    +0.575 C 
ENDBRANCH  21  25
ENDBRANCH  20  21
ENDBRANCH  14  15
ENDBRANCH   1  14
TORSDOF 5
ENDMDL
MODEL 6
REMARK VINA RESULT:      -9.9      4.094      6.742
REMARK  Name = 456199
REMARK  5 active torsions:
REMARK  status: ('A' for Active; 'I' for Inactive)
REMARK    1  A    between atoms: O_1  and  C_5
REMARK    2  A    between atoms: O_1  and  C_14
REMARK    3  A    between atoms: C_14  and  C_15
REMARK    4  A    between atoms: C_20  and  O_21
REMARK    5  A    between atoms: O_21  and  C_25
REMARK                            x       y       z     vdW  Elec       q    Type
REMARK                         _______ _______ _______ _____ _____    ______ ____
ROOT
ATOM      1  O   UNL     1      34.868 -18.765 -22.011  0.00  0.00    -0.346 OA
ENDROOT
BRANCH   1   5
ATOM      2  O   UNL     1      36.505 -20.895 -19.487  0.00  0.00    -0.438 OA
ATOM      3  N   UNL     1      34.142 -21.185 -19.370  0.00  0.00    -0.242 N 
ATOM      4  N   UNL     1      35.428 -22.299 -17.948  0.00  0.00    -0.333 NA
ATOM      5  C   UNL     1      35.020 -19.378 -20.740  0.00  0.00    +0.179 C 
ATOM      6  C   UNL     1      33.818 -20.267 -20.436  0.00  0.00    +0.130 C 
ATOM      7  C   UNL     1      36.297 -20.220 -20.733  0.00  0.00    +0.241 C 
ATOM      8  C   UNL     1      35.418 -21.458 -18.957  0.00  0.00    +0.345 C 
ATOM      9  C   UNL     1      33.283 -21.905 -18.598  0.00  0.00    +0.181 C 
ATOM     10  C   UNL     1      34.101 -22.589 -17.725  0.00  0.00    +0.274 C 
ATOM     11  O   UNL     1      32.522 -23.752 -16.520  0.00  0.00    -0.124 OA
ATOM     12  O   UNL     1      34.642 -24.021 -16.007  0.00  0.00    -0.124 OA
ATOM     13  N   UNL     1      33.741 -23.487 -16.713  0.00  0.00    +0.085 N 
ENDBRANCH   1   5
BRANCH   1  14
ATOM     14  C   UNL     1      35.813 -17.722 -22.198  0.00  0.00    +0.169 C 
BRANCH  14  15
ATOM     15  C   UNL     1      35.146 -16.404 -21.936  0.00  0.00    +0.007 C 
ATOM     16  C   UNL     1      34.973 -15.969 -20.628  0.00  0.00    +0.001 C 
ATOM     17  C   UNL     1      34.707 -15.631 -23.005  0.00  0.00    +0.001 C 
ATOM     18  C   UNL     1      34.353 -14.743 -20.384  0.00  0.00    +0.037 C 
ATOM     19  C   UNL     1      34.087 -14.405 -22.762  0.00  0.00    +0.037 C 
ATOM     20  C   UNL     1      33.910 -13.961 -21.451  0.00  0.00    +0.147 C 
BRANCH  20  21
ATOM     21  O   UNL     1      33.305 -12.766 -21.213  0.00  0.00    -0.404 OA
BRANCH  21  25
ATOM     22  F   UNL     1      32.190 -12.333 -19.264  0.00  0.00    -0.133 F 
ATOM     23  F   UNL     1      31.583 -14.035 -20.492  0.00  0.00    -0.133 F 
ATOM     24  F   UNL     1      31.146 -12.008 -21.185  0.00  0.00    -0.133 F 
ATOM     25  C   UNL     1      32.054 -12.768 -20.534  0.00  0.00    +0.575 C 
ENDBRANCH  21  25
ENDBRANCH  20  21
ENDBRANCH  14  15
ENDBRANCH   1  14
TORSDOF 5
ENDMDL
MODEL 7
REMARK VINA RESULT:      -9.9      2.379      2.966
REMARK  Name = 456199
REMARK  5 active torsions:
REMARK  status: ('A' for Active; 'I' for Inactive)
REMARK    1  A    between atoms: O_1  and  C_5
REMARK    2  A    between atoms: O_1  and  C_14
REMARK    3  A    between atoms: C_14  and  C_15
REMARK    4  A    between atoms: C_20  and  O_21
REMARK    5  A    between atoms: O_21  and  C_25
REMARK                            x       y       z     vdW  Elec       q    Type
REMARK                         _______ _______ _______ _____ _____    ______ ____
ROOT
ATOM      1  O   UNL     1      33.953 -22.576 -16.404  0.00  0.00    -0.346 OA
ENDROOT
BRANCH   1   5
ATOM      2  O   UNL     1      35.362 -25.319 -14.385  0.00  0.00    -0.438 OA
ATOM      3  N   UNL     1      37.118 -23.892 -15.134  0.00  0.00    -0.242 N 
ATOM      4  N   UNL     1      37.633 -25.675 -13.922  0.00  0.00    -0.333 NA
ATOM      5  C   UNL     1      34.895 -23.584 -16.073  0.00  0.00    +0.179 C 
ATOM      6  C   UNL     1      36.272 -22.966 -15.851  0.00  0.00    +0.130 C 
ATOM      7  C   UNL     1      34.443 -24.301 -14.800  0.00  0.00    +0.241 C 
ATOM      8  C   UNL     1      36.650 -24.983 -14.452  0.00  0.00    +0.345 C 
ATOM      9  C   UNL     1      38.473 -23.869 -15.021  0.00  0.00    +0.181 C 
ATOM     10  C   UNL     1      38.771 -24.981 -14.265  0.00  0.00    +0.274 C 
ATOM     11  O   UNL     1      41.062 -24.791 -14.151  0.00  0.00    -0.124 OA
ATOM     12  O   UNL     1      40.099 -26.490 -13.144  0.00  0.00    -0.124 OA
ATOM     13  N   UNL     1      40.025 -25.437 -13.838  0.00  0.00    +0.085 N 
ENDBRANCH   1   5
BRANCH   1  14
ATOM     14  C   UNL     1      33.342 -22.832 -17.660  0.00  0.00    +0.169 C 
BRANCH  14  15
ATOM     15  C   UNL     1      33.854 -21.841 -18.664  0.00  0.00    +0.007 C 
ATOM     16  C   UNL     1      35.213 -21.785 -18.945  0.00  0.00    +0.001 C 
ATOM     17  C   UNL     1      32.962 -20.988 -19.304  0.00  0.00    +0.001 C 
ATOM     18  C   UNL     1      35.689 -20.863 -19.878  0.00  0.00    +0.037 C 
ATOM     19  C   UNL     1      33.436 -20.066 -20.237  0.00  0.00    +0.037 C 
ATOM     20  C   UNL     1      34.799 -20.004 -20.524  0.00  0.00    +0.147 C 
BRANCH  20  21
ATOM     21  O   UNL     1      35.264 -19.105 -21.435  0.00  0.00    -0.404 OA
BRANCH  21  25
ATOM     22  F   UNL     1      33.476 -19.398 -22.830  0.00  0.00    -0.133 F 
ATOM     23  F   UNL     1      35.402 -20.288 -23.353  0.00  0.00    -0.133 F 
ATOM     24  F   UNL     1      35.152 -18.121 -23.497  0.00  0.00    -0.133 F 
ATOM     25  C   UNL     1      34.812 -19.214 -22.779  0.00  0.00    +0.575 C 
ENDBRANCH  21  25
ENDBRANCH  20  21
ENDBRANCH  14  15
ENDBRANCH   1  14
TORSDOF 5
ENDMDL
MODEL 8
REMARK VINA RESULT:      -9.9      3.822      6.169
REMARK  Name = 456199
REMARK  5 active torsions:
REMARK  status: ('A' for Active; 'I' for Inactive)
REMARK    1  A    between atoms: O_1  and  C_5
REMARK    2  A    between atoms: O_1  and  C_14
REMARK    3  A    between atoms: C_14  and  C_15
REMARK    4  A    between atoms: C_20  and  O_21
REMARK    5  A    between atoms: O_21  and  C_25
REMARK                            x       y       z     vdW  Elec       q    Type
REMARK                         _______ _______ _______ _____ _____    ______ ____
ROOT
ATOM      1  O   UNL     1      35.135 -19.223 -21.870  0.00  0.00    -0.346 OA
ENDROOT
BRANCH   1   5
ATOM      2  O   UNL     1      32.474 -20.882 -19.931  0.00  0.00    -0.438 OA
ATOM      3  N   UNL     1      34.603 -21.457 -19.026  0.00  0.00    -0.242 N 
ATOM      4  N   UNL     1      32.781 -22.328 -18.110  0.00  0.00    -0.333 NA
ATOM      5  C   UNL     1      34.528 -20.292 -21.159  0.00  0.00    +0.179 C 
ATOM      6  C   UNL     1      35.385 -20.679 -19.958  0.00  0.00    +0.130 C 
ATOM      7  C   UNL     1      33.140 -19.861 -20.683  0.00  0.00    +0.241 C 
ATOM      8  C   UNL     1      33.236 -21.521 -19.042  0.00  0.00    +0.345 C 
ATOM      9  C   UNL     1      35.053 -22.250 -18.016  0.00  0.00    +0.181 C 
ATOM     10  C   UNL     1      33.908 -22.778 -17.461  0.00  0.00    +0.274 C 
ATOM     11  O   UNL     1      34.826 -24.059 -15.784  0.00  0.00    -0.124 OA
ATOM     12  O   UNL     1      32.640 -24.036 -16.009  0.00  0.00    -0.124 OA
ATOM     13  N   UNL     1      33.788 -23.658 -16.378  0.00  0.00    +0.085 N 
ENDBRANCH   1   5
BRANCH   1  14
ATOM     14  C   UNL     1      35.693 -18.265 -20.984  0.00  0.00    +0.169 C 
BRANCH  14  15
ATOM     15  C   UNL     1      35.278 -16.892 -21.423  0.00  0.00    +0.007 C 
ATOM     16  C   UNL     1      35.254 -16.580 -22.777  0.00  0.00    +0.001 C 
ATOM     17  C   UNL     1      34.920 -15.944 -20.471  0.00  0.00    +0.001 C 
ATOM     18  C   UNL     1      34.868 -15.303 -23.186  0.00  0.00    +0.037 C 
ATOM     19  C   UNL     1      34.534 -14.667 -20.878  0.00  0.00    +0.037 C 
ATOM     20  C   UNL     1      34.508 -14.347 -22.236  0.00  0.00    +0.147 C 
BRANCH  20  21
ATOM     21  O   UNL     1      34.131 -13.101 -22.635  0.00  0.00    -0.404 OA
BRANCH  21  25
ATOM     22  F   UNL     1      32.549 -11.617 -23.360  0.00  0.00    -0.133 F 
ATOM     23  F   UNL     1      31.941 -13.321 -22.135  0.00  0.00    -0.133 F 
ATOM     24  F   UNL     1      32.562 -13.660 -24.203  0.00  0.00    -0.133 F 
ATOM     25  C   UNL     1      32.799 -12.917 -23.099  0.00  0.00    +0.575 C 
ENDBRANCH  21  25
ENDBRANCH  20  21
ENDBRANCH  14  15
ENDBRANCH   1  14
TORSDOF 5
ENDMDL
MODEL 9
REMARK VINA RESULT:      -9.8      4.959      7.884
REMARK  Name = 456199
REMARK  5 active torsions:
REMARK  status: ('A' for Active; 'I' for Inactive)
REMARK    1  A    between atoms: O_1  and  C_5
REMARK    2  A    between atoms: O_1  and  C_14
REMARK    3  A    between atoms: C_14  and  C_15
REMARK    4  A    between atoms: C_20  and  O_21
REMARK    5  A    between atoms: O_21  and  C_25
REMARK                            x       y       z     vdW  Elec       q    Type
REMARK                         _______ _______ _______ _____ _____    ______ ____
ROOT
ATOM      1  O   UNL     1      34.591 -18.046 -23.063  0.00  0.00    -0.346 OA
ENDROOT
BRANCH   1   5
ATOM      2  O   UNL     1      37.057 -18.796 -20.428  0.00  0.00    -0.438 OA
ATOM      3  N   UNL     1      35.198 -20.273 -20.228  0.00  0.00    -0.242 N 
ATOM      4  N   UNL     1      36.852 -20.432 -18.760  0.00  0.00    -0.333 NA
ATOM      5  C   UNL     1      35.020 -18.387 -21.754  0.00  0.00    +0.179 C 
ATOM      6  C   UNL     1      34.459 -19.747 -21.353  0.00  0.00    +0.130 C 
ATOM      7  C   UNL     1      36.548 -18.430 -21.716  0.00  0.00    +0.241 C 
ATOM      8  C   UNL     1      36.420 -19.802 -19.830  0.00  0.00    +0.345 C 
ATOM      9  C   UNL     1      34.832 -21.274 -19.383  0.00  0.00    +0.181 C 
ATOM     10  C   UNL     1      35.871 -21.356 -18.482  0.00  0.00    +0.274 C 
ATOM     11  O   UNL     1      35.117 -23.077 -17.152  0.00  0.00    -0.124 OA
ATOM     12  O   UNL     1      37.053 -22.152 -16.675  0.00  0.00    -0.124 OA
ATOM     13  N   UNL     1      36.018 -22.228 -17.396  0.00  0.00    +0.085 N 
ENDBRANCH   1   5
BRANCH   1  14
ATOM     14  C   UNL     1      35.386 -17.006 -23.612  0.00  0.00    +0.169 C 
BRANCH  14  15
ATOM     15  C   UNL     1      34.626 -15.714 -23.531  0.00  0.00    +0.007 C 
ATOM     16  C   UNL     1      34.738 -14.920 -22.396  0.00  0.00    +0.001 C 
ATOM     17  C   UNL     1      33.816 -15.325 -24.592  0.00  0.00    +0.001 C 
ATOM     18  C   UNL     1      34.031 -13.720 -22.320  0.00  0.00    +0.037 C 
ATOM     19  C   UNL     1      33.108 -14.125 -24.517  0.00  0.00    +0.037 C 
ATOM     20  C   UNL     1      33.217 -13.322 -23.381  0.00  0.00    +0.147 C 
BRANCH  20  21
ATOM     21  O   UNL     1      32.527 -12.151 -23.307  0.00  0.00    -0.404 OA
BRANCH  21  25
ATOM     22  F   UNL     1      34.434 -11.206 -24.142  0.00  0.00    -0.133 F 
ATOM     23  F   UNL     1      33.347 -10.192 -22.541  0.00  0.00    -0.133 F 
ATOM     24  F   UNL     1      32.493 -10.233 -24.552  0.00  0.00    -0.133 F 
ATOM     25  C   UNL     1      33.204 -10.949 -23.653  0.00  0.00    +0.575 C 
ENDBRANCH  21  25
ENDBRANCH  20  21
ENDBRANCH  14  15
ENDBRANCH   1  14
TORSDOF 5
ENDMDL
