MODEL 1
REMARK VINA RESULT:     -11.3      0.000      0.000
REMARK  Name = 176407
REMARK  5 active torsions:
REMARK  status: ('A' for Active; 'I' for Inactive)
REMARK    1  A    between atoms: N_1  and  C_20
REMARK    2  A    between atoms: C_11  and  C_16
REMARK    3  A    between atoms: C_20  and  C_21
REMARK    4  A    between atoms: C_21  and  C_22
REMARK    5  A    between atoms: C_27  and  O_28
REMARK                            x       y       z     vdW  Elec       q    Type
REMARK                         _______ _______ _______ _____ _____    ______ ____
ROOT
ATOM      1  N   UNL     1      35.730 -17.661 -22.594  0.00  0.00    -0.258 N 
ATOM      2  N   UNL     1      33.539 -14.384 -23.245  0.00  0.00    -0.059 N 
ATOM      3  N   UNL     1      34.764 -15.724 -21.758  0.00  0.00    -0.245 NA
ATOM      4  N   UNL     1      34.491 -16.289 -24.065  0.00  0.00    -0.294 NA
ATOM      5  N   UNL     1      32.825 -13.251 -23.312  0.00  0.00    -0.090 NA
ATOM      6  N   UNL     1      33.627 -13.633 -21.203  0.00  0.00    -0.267 NA
ATOM      7  N   UNL     1      33.242 -14.900 -25.526  0.00  0.00    -0.318 N 
ATOM      8  C   UNL     1      34.980 -16.523 -22.780  0.00  0.00    +0.213 C 
ATOM      9  C   UNL     1      34.020 -14.615 -21.988  0.00  0.00    +0.251 C 
ATOM     10  C   UNL     1      33.774 -15.232 -24.310  0.00  0.00    +0.282 C 
ATOM     11  C   UNL     1      32.907 -12.833 -22.047  0.00  0.00    +0.153 C 
ATOM     12  H   UNL     1      35.889 -18.256 -23.362  0.00  0.00    +0.160 HD
ATOM     13  H   UNL     1      32.710 -14.076 -25.622  0.00  0.00    +0.146 HD
ATOM     14  H   UNL     1      33.391 -15.482 -26.305  0.00  0.00    +0.146 HD
ENDROOT
BRANCH  11  16
ATOM     15  O   UNL     1      32.198 -10.446 -22.324  0.00  0.00    -0.439 OA
ATOM     16  C   UNL     1      32.265 -11.587 -21.590  0.00  0.00    +0.221 C 
ATOM     17  C   UNL     1      31.655 -11.413 -20.370  0.00  0.00    +0.052 C 
ATOM     18  C   UNL     1      31.182 -10.078 -20.353  0.00  0.00    +0.045 C 
ATOM     19  C   UNL     1      31.537  -9.533 -21.565  0.00  0.00    +0.181 C 
ENDBRANCH  11  16
BRANCH   1  20
ATOM     20  C   UNL     1      36.284 -18.005 -21.324  0.00  0.00    +0.103 C 
BRANCH  20  21
ATOM     21  C   UNL     1      36.533 -19.509 -21.226  0.00  0.00    +0.048 C 
BRANCH  21  22
ATOM     22  C   UNL     1      35.468 -20.236 -20.443  0.00  0.00    -0.020 C 
ATOM     23  C   UNL     1      34.139 -19.884 -20.615  0.00  0.00    -0.001 C 
ATOM     24  C   UNL     1      35.839 -21.243 -19.566  0.00  0.00    -0.001 C 
ATOM     25  C   UNL     1      33.155 -20.556 -19.890  0.00  0.00    +0.036 C 
ATOM     26  C   UNL     1      34.855 -21.915 -18.841  0.00  0.00    +0.036 C 
ATOM     27  C   UNL     1      33.512 -21.571 -19.003  0.00  0.00    +0.134 C 
BRANCH  27  28
ATOM     28  O   UNL     1      32.551 -22.227 -18.297  0.00  0.00    -0.506 OA
ATOM     29  H   UNL     1      32.605 -22.274 -17.363  0.00  0.00    +0.292 HD
ENDBRANCH  27  28
ENDBRANCH  21  22
ENDBRANCH  20  21
ENDBRANCH   1  20
TORSDOF 5
ENDMDL
MODEL 2
REMARK VINA RESULT:     -11.1      6.769     11.623
REMARK  Name = 176407
REMARK  5 active torsions:
REMARK  status: ('A' for Active; 'I' for Inactive)
REMARK    1  A    between atoms: N_1  and  C_20
REMARK    2  A    between atoms: C_11  and  C_16
REMARK    3  A    between atoms: C_20  and  C_21
REMARK    4  A    between atoms: C_21  and  C_22
REMARK    5  A    between atoms: C_27  and  O_28
REMARK                            x       y       z     vdW  Elec       q    Type
REMARK                         _______ _______ _______ _____ _____    ______ ____
ROOT
ATOM      1  N   UNL     1      32.531 -22.239 -18.236  0.00  0.00    -0.258 N 
ATOM      2  N   UNL     1      33.756 -23.810 -14.773  0.00  0.00    -0.059 N 
ATOM      3  N   UNL     1      34.249 -23.150 -16.970  0.00  0.00    -0.245 NA
ATOM      4  N   UNL     1      32.068 -22.913 -16.020  0.00  0.00    -0.294 NA
ATOM      5  N   UNL     1      34.308 -24.350 -13.676  0.00  0.00    -0.090 NA
ATOM      6  N   UNL     1      35.821 -24.138 -15.381  0.00  0.00    -0.267 NA
ATOM      7  N   UNL     1      31.623 -23.597 -13.793  0.00  0.00    -0.318 N 
ATOM      8  C   UNL     1      32.989 -22.784 -17.059  0.00  0.00    +0.213 C 
ATOM      9  C   UNL     1      34.656 -23.681 -15.792  0.00  0.00    +0.251 C 
ATOM     10  C   UNL     1      32.435 -23.421 -14.880  0.00  0.00    +0.282 C 
ATOM     11  C   UNL     1      35.562 -24.532 -14.097  0.00  0.00    +0.153 C 
ATOM     12  H   UNL     1      31.587 -21.967 -18.298  0.00  0.00    +0.160 HD
ATOM     13  H   UNL     1      31.986 -23.990 -12.965  0.00  0.00    +0.146 HD
ATOM     14  H   UNL     1      30.676 -23.330 -13.836  0.00  0.00    +0.146 HD
ENDROOT
BRANCH  11  16
ATOM     15  O   UNL     1      36.350 -25.767 -12.065  0.00  0.00    -0.439 OA
ATOM     16  C   UNL     1      36.601 -25.118 -13.231  0.00  0.00    +0.221 C 
ATOM     17  C   UNL     1      37.954 -25.084 -13.483  0.00  0.00    +0.052 C 
ATOM     18  C   UNL     1      38.572 -25.757 -12.403  0.00  0.00    +0.045 C 
ATOM     19  C   UNL     1      37.555 -26.153 -11.567  0.00  0.00    +0.181 C 
ENDBRANCH  11  16
BRANCH   1  20
ATOM     20  C   UNL     1      33.381 -22.056 -19.368  0.00  0.00    +0.103 C 
BRANCH  20  21
ATOM     21  C   UNL     1      33.265 -20.634 -19.914  0.00  0.00    +0.048 C 
BRANCH  21  22
ATOM     22  C   UNL     1      34.592 -20.050 -20.333  0.00  0.00    -0.020 C 
ATOM     23  C   UNL     1      34.627 -19.091 -21.333  0.00  0.00    -0.001 C 
ATOM     24  C   UNL     1      35.751 -20.484 -19.711  0.00  0.00    -0.001 C 
ATOM     25  C   UNL     1      35.853 -18.552 -21.721  0.00  0.00    +0.036 C 
ATOM     26  C   UNL     1      36.978 -19.945 -20.098  0.00  0.00    +0.036 C 
ATOM     27  C   UNL     1      37.029 -18.979 -21.103  0.00  0.00    +0.134 C 
BRANCH  27  28
ATOM     28  O   UNL     1      38.225 -18.451 -21.482  0.00  0.00    -0.506 OA
ATOM     29  H   UNL     1      38.559 -17.690 -21.051  0.00  0.00    +0.292 HD
ENDBRANCH  27  28
ENDBRANCH  21  22
ENDBRANCH  20  21
ENDBRANCH   1  20
TORSDOF 5
ENDMDL
MODEL 3
REMARK VINA RESULT:     -10.8      5.554     10.117
REMARK  Name = 176407
REMARK  5 active torsions:
REMARK  status: ('A' for Active; 'I' for Inactive)
REMARK    1  A    between atoms: N_1  and  C_20
REMARK    2  A    between atoms: C_11  and  C_16
REMARK    3  A    between atoms: C_20  and  C_21
REMARK    4  A    between atoms: C_21  and  C_22
REMARK    5  A    between atoms: C_27  and  O_28
REMARK                            x       y       z     vdW  Elec       q    Type
REMARK                         _______ _______ _______ _____ _____    ______ ____
ROOT
ATOM      1  N   UNL     1      36.130 -21.250 -19.160  0.00  0.00    -0.258 N 
ATOM      2  N   UNL     1      34.018 -23.077 -16.304  0.00  0.00    -0.059 N 
ATOM      3  N   UNL     1      34.068 -21.961 -18.368  0.00  0.00    -0.245 NA
ATOM      4  N   UNL     1      36.044 -22.377 -17.087  0.00  0.00    -0.294 NA
ATOM      5  N   UNL     1      33.183 -23.661 -15.432  0.00  0.00    -0.090 NA
ATOM      6  N   UNL     1      32.075 -22.834 -17.256  0.00  0.00    -0.267 NA
ATOM      7  N   UNL     1      35.937 -23.509 -15.005  0.00  0.00    -0.318 N 
ATOM      8  C   UNL     1      35.370 -21.872 -18.198  0.00  0.00    +0.213 C 
ATOM      9  C   UNL     1      33.360 -22.583 -17.394  0.00  0.00    +0.251 C 
ATOM     10  C   UNL     1      35.386 -22.977 -16.139  0.00  0.00    +0.282 C 
ATOM     11  C   UNL     1      32.015 -23.487 -16.056  0.00  0.00    +0.153 C 
ATOM     12  H   UNL     1      37.104 -21.185 -19.030  0.00  0.00    +0.160 HD
ATOM     13  H   UNL     1      35.362 -23.948 -14.337  0.00  0.00    +0.146 HD
ATOM     14  H   UNL     1      36.909 -23.455 -14.857  0.00  0.00    +0.146 HD
ENDROOT
BRANCH  11  16
ATOM     15  O   UNL     1      29.517 -23.521 -15.862  0.00  0.00    -0.439 OA
ATOM     16  C   UNL     1      30.744 -23.970 -15.487  0.00  0.00    +0.221 C 
ATOM     17  C   UNL     1      30.629 -24.929 -14.507  0.00  0.00    +0.052 C 
ATOM     18  C   UNL     1      29.242 -25.079 -14.265  0.00  0.00    +0.045 C 
ATOM     19  C   UNL     1      28.610 -24.201 -15.114  0.00  0.00    +0.181 C 
ENDBRANCH  11  16
BRANCH   1  20
ATOM     20  C   UNL     1      35.552 -20.696 -20.343  0.00  0.00    +0.103 C 
BRANCH  20  21
ATOM     21  C   UNL     1      36.165 -19.333 -20.664  0.00  0.00    +0.048 C 
BRANCH  21  22
ATOM     22  C   UNL     1      35.555 -18.681 -21.880  0.00  0.00    -0.020 C 
ATOM     23  C   UNL     1      34.930 -19.470 -22.833  0.00  0.00    -0.001 C 
ATOM     24  C   UNL     1      35.632 -17.305 -22.022  0.00  0.00    -0.001 C 
ATOM     25  C   UNL     1      34.367 -18.867 -23.957  0.00  0.00    +0.036 C 
ATOM     26  C   UNL     1      35.069 -16.701 -23.147  0.00  0.00    +0.036 C 
ATOM     27  C   UNL     1      34.436 -17.482 -24.114  0.00  0.00    +0.134 C 
BRANCH  27  28
ATOM     28  O   UNL     1      33.886 -16.895 -25.212  0.00  0.00    -0.506 OA
ATOM     29  H   UNL     1      34.257 -17.044 -26.059  0.00  0.00    +0.292 HD
ENDBRANCH  27  28
ENDBRANCH  21  22
ENDBRANCH  20  21
ENDBRANCH   1  20
TORSDOF 5
ENDMDL
MODEL 4
REMARK VINA RESULT:     -10.6      5.792     10.850
REMARK  Name = 176407
REMARK  5 active torsions:
REMARK  status: ('A' for Active; 'I' for Inactive)
REMARK    1  A    between atoms: N_1  and  C_20
REMARK    2  A    between atoms: C_11  and  C_16
REMARK    3  A    between atoms: C_20  and  C_21
REMARK    4  A    between atoms: C_21  and  C_22
REMARK    5  A    between atoms: C_27  and  O_28
REMARK                            x       y       z     vdW  Elec       q    Type
REMARK                         _______ _______ _______ _____ _____    ______ ____
ROOT
ATOM      1  N   UNL     1      33.991 -21.482 -19.678  0.00  0.00    -0.258 N 
ATOM      2  N   UNL     1      33.649 -23.207 -16.091  0.00  0.00    -0.059 N 
ATOM      3  N   UNL     1      35.023 -22.388 -17.807  0.00  0.00    -0.245 NA
ATOM      4  N   UNL     1      32.636 -22.316 -17.932  0.00  0.00    -0.294 NA
ATOM      5  N   UNL     1      33.690 -23.788 -14.883  0.00  0.00    -0.090 NA
ATOM      6  N   UNL     1      35.786 -23.397 -15.716  0.00  0.00    -0.267 NA
ATOM      7  N   UNL     1      31.293 -23.159 -16.168  0.00  0.00    -0.318 N 
ATOM      8  C   UNL     1      33.913 -22.077 -18.441  0.00  0.00    +0.213 C 
ATOM      9  C   UNL     1      34.897 -22.972 -16.591  0.00  0.00    +0.251 C 
ATOM     10  C   UNL     1      32.490 -22.876 -16.767  0.00  0.00    +0.282 C 
ATOM     11  C   UNL     1      35.009 -23.883 -14.701  0.00  0.00    +0.153 C 
ATOM     12  H   UNL     1      33.157 -21.252 -20.149  0.00  0.00    +0.160 HD
ATOM     13  H   UNL     1      31.275 -23.586 -15.280  0.00  0.00    +0.146 HD
ATOM     14  H   UNL     1      30.449 -22.935 -16.623  0.00  0.00    +0.146 HD
ENDROOT
BRANCH  11  16
ATOM     15  O   UNL     1      35.140 -24.230 -12.223  0.00  0.00    -0.439 OA
ATOM     16  C   UNL     1      35.591 -24.472 -13.481  0.00  0.00    +0.221 C 
ATOM     17  C   UNL     1      36.661 -25.337 -13.452  0.00  0.00    +0.052 C 
ATOM     18  C   UNL     1      36.880 -25.645 -12.088  0.00  0.00    +0.045 C 
ATOM     19  C   UNL     1      35.930 -24.947 -11.381  0.00  0.00    +0.181 C 
ENDBRANCH  11  16
BRANCH   1  20
ATOM     20  C   UNL     1      35.241 -21.188 -20.300  0.00  0.00    +0.103 C 
BRANCH  20  21
ATOM     21  C   UNL     1      35.563 -19.698 -20.201  0.00  0.00    +0.048 C 
BRANCH  21  22
ATOM     22  C   UNL     1      35.270 -18.942 -21.475  0.00  0.00    -0.020 C 
ATOM     23  C   UNL     1      34.751 -19.623 -22.564  0.00  0.00    -0.001 C 
ATOM     24  C   UNL     1      35.526 -17.581 -21.531  0.00  0.00    -0.001 C 
ATOM     25  C   UNL     1      34.481 -18.925 -23.741  0.00  0.00    +0.036 C 
ATOM     26  C   UNL     1      35.256 -16.884 -22.708  0.00  0.00    +0.036 C 
ATOM     27  C   UNL     1      34.733 -17.555 -23.813  0.00  0.00    +0.134 C 
BRANCH  27  28
ATOM     28  O   UNL     1      34.469 -16.875 -24.962  0.00  0.00    -0.506 OA
ATOM     29  H   UNL     1      34.910 -17.105 -25.755  0.00  0.00    +0.292 HD
ENDBRANCH  27  28
ENDBRANCH  21  22
ENDBRANCH  20  21
ENDBRANCH   1  20
TORSDOF 5
ENDMDL
MODEL 5
REMARK VINA RESULT:     -10.2      4.358      9.745
REMARK  Name = 176407
REMARK  5 active torsions:
REMARK  status: ('A' for Active; 'I' for Inactive)
REMARK    1  A    between atoms: N_1  and  C_20
REMARK    2  A    between atoms: C_11  and  C_16
REMARK    3  A    between atoms: C_20  and  C_21
REMARK    4  A    between atoms: C_21  and  C_22
REMARK    5  A    between atoms: C_27  and  O_28
REMARK                            x       y       z     vdW  Elec       q    Type
REMARK                         _______ _______ _______ _____ _____    ______ ____
ROOT
ATOM      1  N   UNL     1      35.569 -20.246 -20.740  0.00  0.00    -0.258 N 
ATOM      2  N   UNL     1      34.629 -22.310 -17.451  0.00  0.00    -0.059 N 
ATOM      3  N   UNL     1      33.936 -21.225 -19.413  0.00  0.00    -0.245 NA
ATOM      4  N   UNL     1      36.233 -21.346 -18.758  0.00  0.00    -0.294 NA
ATOM      5  N   UNL     1      34.165 -22.992 -16.394  0.00  0.00    -0.090 NA
ATOM      6  N   UNL     1      32.481 -22.351 -17.805  0.00  0.00    -0.267 NA
ATOM      7  N   UNL     1      36.879 -22.454 -16.763  0.00  0.00    -0.318 N 
ATOM      8  C   UNL     1      35.207 -20.955 -19.618  0.00  0.00    +0.213 C 
ATOM      9  C   UNL     1      33.627 -21.926 -18.296  0.00  0.00    +0.251 C 
ATOM     10  C   UNL     1      35.960 -22.018 -17.678  0.00  0.00    +0.282 C 
ATOM     11  C   UNL     1      32.856 -22.990 -16.655  0.00  0.00    +0.153 C 
ATOM     12  H   UNL     1      36.522 -20.045 -20.889  0.00  0.00    +0.160 HD
ATOM     13  H   UNL     1      36.584 -22.960 -15.970  0.00  0.00    +0.146 HD
ATOM     14  H   UNL     1      37.836 -22.263 -16.895  0.00  0.00    +0.146 HD
ENDROOT
BRANCH  11  16
ATOM     15  O   UNL     1      32.205 -24.327 -14.639  0.00  0.00    -0.439 OA
ATOM     16  C   UNL     1      31.878 -23.636 -15.762  0.00  0.00    +0.221 C 
ATOM     17  C   UNL     1      30.514 -23.629 -15.944  0.00  0.00    +0.052 C 
ATOM     18  C   UNL     1      29.969 -24.363 -14.863  0.00  0.00    +0.045 C 
ATOM     19  C   UNL     1      31.038 -24.766 -14.098  0.00  0.00    +0.181 C 
ENDBRANCH  11  16
BRANCH   1  20
ATOM     20  C   UNL     1      34.608 -19.793 -21.693  0.00  0.00    +0.103 C 
BRANCH  20  21
ATOM     21  C   UNL     1      35.295 -19.160 -22.903  0.00  0.00    +0.048 C 
BRANCH  21  22
ATOM     22  C   UNL     1      35.008 -17.685 -23.043  0.00  0.00    -0.020 C 
ATOM     23  C   UNL     1      35.193 -16.851 -21.952  0.00  0.00    -0.001 C 
ATOM     24  C   UNL     1      34.565 -17.192 -24.260  0.00  0.00    -0.001 C 
ATOM     25  C   UNL     1      34.927 -15.488 -22.081  0.00  0.00    +0.036 C 
ATOM     26  C   UNL     1      34.300 -15.829 -24.389  0.00  0.00    +0.036 C 
ATOM     27  C   UNL     1      34.481 -14.977 -23.300  0.00  0.00    +0.134 C 
BRANCH  27  28
ATOM     28  O   UNL     1      34.222 -13.646 -23.425  0.00  0.00    -0.506 OA
ATOM     29  H   UNL     1      34.691 -13.027 -22.902  0.00  0.00    +0.292 HD
ENDBRANCH  27  28
ENDBRANCH  21  22
ENDBRANCH  20  21
ENDBRANCH   1  20
TORSDOF 5
ENDMDL
MODEL 6
REMARK VINA RESULT:     -10.2      7.321     10.355
REMARK  Name = 176407
REMARK  5 active torsions:
REMARK  status: ('A' for Active; 'I' for Inactive)
REMARK    1  A    between atoms: N_1  and  C_20
REMARK    2  A    between atoms: C_11  and  C_16
REMARK    3  A    between atoms: C_20  and  C_21
REMARK    4  A    between atoms: C_21  and  C_22
REMARK    5  A    between atoms: C_27  and  O_28
REMARK                            x       y       z     vdW  Elec       q    Type
REMARK                         _______ _______ _______ _____ _____    ______ ____
ROOT
ATOM      1  N   UNL     1      33.323 -25.060 -13.293  0.00  0.00    -0.258 N 
ATOM      2  N   UNL     1      35.291 -22.974 -16.073  0.00  0.00    -0.059 N 
ATOM      3  N   UNL     1      33.274 -23.884 -15.292  0.00  0.00    -0.245 NA
ATOM      4  N   UNL     1      35.336 -24.131 -14.107  0.00  0.00    -0.294 NA
ATOM      5  N   UNL     1      35.815 -22.259 -17.080  0.00  0.00    -0.090 NA
ATOM      6  N   UNL     1      33.567 -22.597 -17.349  0.00  0.00    -0.267 NA
ATOM      7  N   UNL     1      37.347 -23.192 -14.942  0.00  0.00    -0.318 N 
ATOM      8  C   UNL     1      33.966 -24.337 -14.270  0.00  0.00    +0.213 C 
ATOM      9  C   UNL     1      33.950 -23.177 -16.230  0.00  0.00    +0.251 C 
ATOM     10  C   UNL     1      36.006 -23.457 -14.994  0.00  0.00    +0.282 C 
ATOM     11  C   UNL     1      34.728 -22.056 -17.829  0.00  0.00    +0.153 C 
ATOM     12  H   UNL     1      33.844 -25.398 -12.530  0.00  0.00    +0.160 HD
ATOM     13  H   UNL     1      37.775 -22.670 -15.659  0.00  0.00    +0.146 HD
ATOM     14  H   UNL     1      37.885 -23.521 -14.186  0.00  0.00    +0.146 HD
ENDROOT
BRANCH  11  16
ATOM     15  O   UNL     1      35.921 -20.986 -19.755  0.00  0.00    -0.439 OA
ATOM     16  C   UNL     1      34.777 -21.295 -19.090  0.00  0.00    +0.221 C 
ATOM     17  C   UNL     1      33.682 -20.797 -19.757  0.00  0.00    +0.052 C 
ATOM     18  C   UNL     1      34.186 -20.141 -20.906  0.00  0.00    +0.045 C 
ATOM     19  C   UNL     1      35.552 -20.284 -20.858  0.00  0.00    +0.181 C 
ENDBRANCH  11  16
BRANCH   1  20
ATOM     20  C   UNL     1      31.923 -25.335 -13.351  0.00  0.00    +0.103 C 
BRANCH  20  21
ATOM     21  C   UNL     1      31.108 -24.048 -13.219  0.00  0.00    +0.048 C 
BRANCH  21  22
ATOM     22  C   UNL     1      30.094 -23.874 -14.323  0.00  0.00    -0.020 C 
ATOM     23  C   UNL     1      29.689 -22.596 -14.677  0.00  0.00    -0.001 C 
ATOM     24  C   UNL     1      29.586 -24.993 -14.962  0.00  0.00    -0.001 C 
ATOM     25  C   UNL     1      28.751 -22.435 -15.697  0.00  0.00    +0.036 C 
ATOM     26  C   UNL     1      28.648 -24.832 -15.981  0.00  0.00    +0.036 C 
ATOM     27  C   UNL     1      28.231 -23.553 -16.349  0.00  0.00    +0.134 C 
BRANCH  27  28
ATOM     28  O   UNL     1      27.316 -23.394 -17.345  0.00  0.00    -0.506 OA
ATOM     29  H   UNL     1      26.968 -24.144 -17.785  0.00  0.00    +0.292 HD
ENDBRANCH  27  28
ENDBRANCH  21  22
ENDBRANCH  20  21
ENDBRANCH   1  20
TORSDOF 5
ENDMDL
MODEL 7
REMARK VINA RESULT:      -9.9      8.125     10.449
REMARK  Name = 176407
REMARK  5 active torsions:
REMARK  status: ('A' for Active; 'I' for Inactive)
REMARK    1  A    between atoms: N_1  and  C_20
REMARK    2  A    between atoms: C_11  and  C_16
REMARK    3  A    between atoms: C_20  and  C_21
REMARK    4  A    between atoms: C_21  and  C_22
REMARK    5  A    between atoms: C_27  and  O_28
REMARK                            x       y       z     vdW  Elec       q    Type
REMARK                         _______ _______ _______ _____ _____    ______ ____
ROOT
ATOM      1  N   UNL     1      37.229 -22.485 -16.330  0.00  0.00    -0.258 N 
ATOM      2  N   UNL     1      33.373 -22.540 -17.373  0.00  0.00    -0.059 N 
ATOM      3  N   UNL     1      35.012 -22.775 -15.710  0.00  0.00    -0.245 NA
ATOM      4  N   UNL     1      35.555 -22.255 -17.980  0.00  0.00    -0.294 NA
ATOM      5  N   UNL     1      32.049 -22.592 -17.574  0.00  0.00    -0.090 NA
ATOM      6  N   UNL     1      32.601 -23.014 -15.393  0.00  0.00    -0.267 NA
ATOM      7  N   UNL     1      33.859 -22.029 -19.623  0.00  0.00    -0.318 N 
ATOM      8  C   UNL     1      35.893 -22.512 -16.651  0.00  0.00    +0.213 C 
ATOM      9  C   UNL     1      33.707 -22.791 -16.073  0.00  0.00    +0.251 C 
ATOM     10  C   UNL     1      34.309 -22.266 -18.352  0.00  0.00    +0.282 C 
ATOM     11  C   UNL     1      31.624 -22.884 -16.342  0.00  0.00    +0.153 C 
ATOM     12  H   UNL     1      37.885 -22.288 -17.037  0.00  0.00    +0.160 HD
ATOM     13  H   UNL     1      32.894 -22.057 -19.817  0.00  0.00    +0.146 HD
ATOM     14  H   UNL     1      34.500 -21.830 -20.343  0.00  0.00    +0.146 HD
ENDROOT
BRANCH  11  16
ATOM     15  O   UNL     1      29.192 -22.343 -16.607  0.00  0.00    -0.439 OA
ATOM     16  C   UNL     1      30.195 -23.052 -16.025  0.00  0.00    +0.221 C 
ATOM     17  C   UNL     1      29.687 -23.941 -15.106  0.00  0.00    +0.052 C 
ATOM     18  C   UNL     1      28.283 -23.766 -15.124  0.00  0.00    +0.045 C 
ATOM     19  C   UNL     1      28.032 -22.783 -16.052  0.00  0.00    +0.181 C 
ENDBRANCH  11  16
BRANCH   1  20
ATOM     20  C   UNL     1      37.696 -22.732 -15.003  0.00  0.00    +0.103 C 
BRANCH  20  21
ATOM     21  C   UNL     1      37.440 -24.182 -14.595  0.00  0.00    +0.048 C 
BRANCH  21  22
ATOM     22  C   UNL     1      36.917 -24.319 -13.187  0.00  0.00    -0.020 C 
ATOM     23  C   UNL     1      35.571 -24.583 -12.985  0.00  0.00    -0.001 C 
ATOM     24  C   UNL     1      37.791 -24.177 -12.121  0.00  0.00    -0.001 C 
ATOM     25  C   UNL     1      35.087 -24.708 -11.683  0.00  0.00    +0.036 C 
ATOM     26  C   UNL     1      37.307 -24.302 -10.819  0.00  0.00    +0.036 C 
ATOM     27  C   UNL     1      35.955 -24.568 -10.600  0.00  0.00    +0.134 C 
BRANCH  27  28
ATOM     28  O   UNL     1      35.482 -24.691  -9.329  0.00  0.00    -0.506 OA
ATOM     29  H   UNL     1      34.922 -25.407  -9.105  0.00  0.00    +0.292 HD
ENDBRANCH  27  28
ENDBRANCH  21  22
ENDBRANCH  20  21
ENDBRANCH   1  20
TORSDOF 5
ENDMDL
MODEL 8
REMARK VINA RESULT:      -9.9      1.482      2.243
REMARK  Name = 176407
REMARK  5 active torsions:
REMARK  status: ('A' for Active; 'I' for Inactive)
REMARK    1  A    between atoms: N_1  and  C_20
REMARK    2  A    between atoms: C_11  and  C_16
REMARK    3  A    between atoms: C_20  and  C_21
REMARK    4  A    between atoms: C_21  and  C_22
REMARK    5  A    between atoms: C_27  and  O_28
REMARK                            x       y       z     vdW  Elec       q    Type
REMARK                         _______ _______ _______ _____ _____    ______ ____
ROOT
ATOM      1  N   UNL     1      36.411 -19.015 -21.268  0.00  0.00    -0.258 N 
ATOM      2  N   UNL     1      34.466 -15.690 -22.327  0.00  0.00    -0.059 N 
ATOM      3  N   UNL     1      35.282 -17.091 -20.630  0.00  0.00    -0.245 NA
ATOM      4  N   UNL     1      35.577 -17.584 -22.951  0.00  0.00    -0.294 NA
ATOM      5  N   UNL     1      33.797 -14.546 -22.529  0.00  0.00    -0.090 NA
ATOM      6  N   UNL     1      34.058 -15.001 -20.302  0.00  0.00    -0.267 NA
ATOM      7  N   UNL     1      34.731 -16.134 -24.627  0.00  0.00    -0.318 N 
ATOM      8  C   UNL     1      35.736 -17.862 -21.594  0.00  0.00    +0.213 C 
ATOM      9  C   UNL     1      34.624 -15.965 -20.998  0.00  0.00    +0.251 C 
ATOM     10  C   UNL     1      34.948 -16.510 -23.329  0.00  0.00    +0.282 C 
ATOM     11  C   UNL     1      33.571 -14.166 -21.269  0.00  0.00    +0.153 C 
ATOM     12  H   UNL     1      36.749 -19.590 -21.993  0.00  0.00    +0.160 HD
ATOM     13  H   UNL     1      34.244 -15.300 -24.823  0.00  0.00    +0.146 HD
ATOM     14  H   UNL     1      35.062 -16.695 -25.365  0.00  0.00    +0.146 HD
ENDROOT
BRANCH  11  16
ATOM     15  O   UNL     1      32.527 -11.964 -21.848  0.00  0.00    -0.439 OA
ATOM     16  C   UNL     1      32.845 -12.926 -20.943  0.00  0.00    +0.221 C 
ATOM     17  C   UNL     1      32.397 -12.577 -19.690  0.00  0.00    +0.052 C 
ATOM     18  C   UNL     1      31.763 -11.320 -19.834  0.00  0.00    +0.045 C 
ATOM     19  C   UNL     1      31.869 -10.990 -21.165  0.00  0.00    +0.181 C 
ENDBRANCH  11  16
BRANCH   1  20
ATOM     20  C   UNL     1      36.636 -19.405 -19.913  0.00  0.00    +0.103 C 
BRANCH  20  21
ATOM     21  C   UNL     1      36.867 -20.912 -19.809  0.00  0.00    +0.048 C 
BRANCH  21  22
ATOM     22  C   UNL     1      36.025 -21.568 -18.742  0.00  0.00    -0.020 C 
ATOM     23  C   UNL     1      36.576 -21.804 -17.492  0.00  0.00    -0.001 C 
ATOM     24  C   UNL     1      34.717 -21.922 -19.031  0.00  0.00    -0.001 C 
ATOM     25  C   UNL     1      35.799 -22.411 -16.506  0.00  0.00    +0.036 C 
ATOM     26  C   UNL     1      33.940 -22.529 -18.045  0.00  0.00    +0.036 C 
ATOM     27  C   UNL     1      34.480 -22.773 -16.782  0.00  0.00    +0.134 C 
BRANCH  27  28
ATOM     28  O   UNL     1      33.722 -23.364 -15.819  0.00  0.00    -0.506 OA
ATOM     29  H   UNL     1      34.101 -23.577 -14.989  0.00  0.00    +0.292 HD
ENDBRANCH  27  28
ENDBRANCH  21  22
ENDBRANCH  20  21
ENDBRANCH   1  20
TORSDOF 5
ENDMDL
MODEL 9
REMARK VINA RESULT:      -9.7      9.479     11.354
REMARK  Name = 176407
REMARK  5 active torsions:
REMARK  status: ('A' for Active; 'I' for Inactive)
REMARK    1  A    between atoms: N_1  and  C_20
REMARK    2  A    between atoms: C_11  and  C_16
REMARK    3  A    between atoms: C_20  and  C_21
REMARK    4  A    between atoms: C_21  and  C_22
REMARK    5  A    between atoms: C_27  and  O_28
REMARK                            x       y       z     vdW  Elec       q    Type
REMARK                         _______ _______ _______ _____ _____    ______ ____
ROOT
ATOM      1  N   UNL     1      35.515 -24.116 -13.505  0.00  0.00    -0.258 N 
ATOM      2  N   UNL     1      32.472 -23.173 -15.916  0.00  0.00    -0.059 N 
ATOM      3  N   UNL     1      33.238 -23.754 -13.775  0.00  0.00    -0.245 NA
ATOM      4  N   UNL     1      34.710 -23.529 -15.647  0.00  0.00    -0.294 NA
ATOM      5  N   UNL     1      31.359 -22.871 -16.600  0.00  0.00    -0.090 NA
ATOM      6  N   UNL     1      30.917 -23.307 -14.396  0.00  0.00    -0.267 NA
ATOM      7  N   UNL     1      33.883 -22.940 -17.790  0.00  0.00    -0.318 N 
ATOM      8  C   UNL     1      34.442 -23.795 -14.304  0.00  0.00    +0.213 C 
ATOM      9  C   UNL     1      32.213 -23.433 -14.600  0.00  0.00    +0.251 C 
ATOM     10  C   UNL     1      33.742 -23.219 -16.458  0.00  0.00    +0.282 C 
ATOM     11  C   UNL     1      30.442 -22.967 -15.633  0.00  0.00    +0.153 C 
ATOM     12  H   UNL     1      36.414 -24.146 -13.905  0.00  0.00    +0.160 HD
ATOM     13  H   UNL     1      33.092 -22.713 -18.332  0.00  0.00    +0.146 HD
ATOM     14  H   UNL     1      34.774 -22.964 -18.207  0.00  0.00    +0.146 HD
ENDROOT
BRANCH  11  16
ATOM     15  O   UNL     1      28.437 -22.722 -17.115  0.00  0.00    -0.439 OA
ATOM     16  C   UNL     1      29.011 -22.721 -15.883  0.00  0.00    +0.221 C 
ATOM     17  C   UNL     1      28.072 -22.456 -14.913  0.00  0.00    +0.052 C 
ATOM     18  C   UNL     1      26.842 -22.284 -15.593  0.00  0.00    +0.045 C 
ATOM     19  C   UNL     1      27.117 -22.456 -16.929  0.00  0.00    +0.181 C 
ENDBRANCH  11  16
BRANCH   1  20
ATOM     20  C   UNL     1      35.364 -24.407 -12.115  0.00  0.00    +0.103 C 
BRANCH  20  21
ATOM     21  C   UNL     1      36.442 -25.382 -11.642  0.00  0.00    +0.048 C 
BRANCH  21  22
ATOM     22  C   UNL     1      37.534 -25.598 -12.660  0.00  0.00    -0.020 C 
ATOM     23  C   UNL     1      38.696 -24.847 -12.580  0.00  0.00    -0.001 C 
ATOM     24  C   UNL     1      37.355 -26.544 -13.657  0.00  0.00    -0.001 C 
ATOM     25  C   UNL     1      39.705 -25.046 -13.522  0.00  0.00    +0.036 C 
ATOM     26  C   UNL     1      38.364 -26.743 -14.599  0.00  0.00    +0.036 C 
ATOM     27  C   UNL     1      39.540 -25.995 -14.531  0.00  0.00    +0.134 C 
BRANCH  27  28
ATOM     28  O   UNL     1      40.526 -26.189 -15.449  0.00  0.00    -0.506 OA
ATOM     29  H   UNL     1      40.488 -26.924 -16.029  0.00  0.00    +0.292 HD
ENDBRANCH  27  28
ENDBRANCH  21  22
ENDBRANCH  20  21
ENDBRANCH   1  20
TORSDOF 5
ENDMDL
