MODEL 1
REMARK VINA RESULT:     -12.3      0.000      0.000
REMARK  Name = 24996872
REMARK  6 active torsions:
REMARK  status: ('A' for Active; 'I' for Inactive)
REMARK    1  A    between atoms: O_1  and  C_3
REMARK    2  A    between atoms: O_1  and  C_18
REMARK    3  A    between atoms: C_7  and  C_8
REMARK    4  A    between atoms: C_11  and  S_14
REMARK    5  A    between atoms: C_18  and  C_23
REMARK    6  A    between atoms: C_29  and  C_30
REMARK                            x       y       z     vdW  Elec       q    Type
REMARK                         _______ _______ _______ _____ _____    ______ ____
ROOT
ATOM      1  O   UNL     1      35.445 -18.443 -22.879  0.00  0.00    -0.474 OA
ENDROOT
BRANCH   1   3
ATOM      2  N   UNL     1      34.586 -15.028 -21.877  0.00  0.00    -0.241 NA
ATOM      3  C   UNL     1      34.988 -17.151 -22.963  0.00  0.00    +0.158 C 
ATOM      4  C   UNL     1      34.480 -16.646 -24.154  0.00  0.00    +0.040 C 
ATOM      5  C   UNL     1      35.019 -16.309 -21.862  0.00  0.00    +0.136 C 
ATOM      6  C   UNL     1      34.024 -15.333 -24.208  0.00  0.00    +0.022 C 
ATOM      7  C   UNL     1      34.098 -14.573 -23.052  0.00  0.00    +0.082 C 
BRANCH   7   8
ATOM      8  C   UNL     1      33.644 -13.203 -23.034  0.00  0.00    +0.018 C 
ATOM      9  C   UNL     1      34.178 -12.278 -23.933  0.00  0.00    +0.003 C 
ATOM     10  C   UNL     1      32.671 -12.802 -22.119  0.00  0.00    +0.003 C 
ATOM     11  C   UNL     1      32.765 -10.555 -23.000  0.00  0.00    +0.106 C 
ATOM     12  C   UNL     1      33.738 -10.955 -23.915  0.00  0.00    +0.018 C 
ATOM     13  C   UNL     1      32.231 -11.479 -22.101  0.00  0.00    +0.018 C 
BRANCH  11  14
ATOM     14  S   UNL     1      32.215  -8.899 -22.977  0.00  0.00    +0.010 S 
ATOM     15  O   UNL     1      31.900  -8.512 -24.346  0.00  0.00    -0.169 OA
ATOM     16  O   UNL     1      31.208  -8.748 -21.935  0.00  0.00    -0.169 OA
ATOM     17  C   UNL     1      33.639  -7.966 -22.460  0.00  0.00    +0.182 C 
ENDBRANCH  11  14
ENDBRANCH   7   8
ENDBRANCH   1   3
BRANCH   1  18
ATOM     18  C   UNL     1      36.114 -18.813 -21.688  0.00  0.00    +0.205 C 
BRANCH  18  23
ATOM     19  O   UNL     1      34.537 -22.891 -17.007  0.00  0.00    -0.296 OA
ATOM     20  N   UNL     1      34.273 -21.519 -18.887  0.00  0.00    -0.251 N 
ATOM     21  N   UNL     1      32.417 -22.482 -17.605  0.00  0.00    -0.300 NA
ATOM     22  N   UNL     1      33.733 -23.574 -16.086  0.00  0.00    -0.010 NA
ATOM     23  C   UNL     1      35.410 -20.031 -21.095  0.00  0.00    +0.047 C 
ATOM     24  C   UNL     1      34.074 -19.633 -20.460  0.00  0.00    +0.025 C 
ATOM     25  C   UNL     1      36.292 -20.713 -20.044  0.00  0.00    +0.025 C 
ATOM     26  C   UNL     1      33.375 -20.836 -19.828  0.00  0.00    +0.096 C 
ATOM     27  C   UNL     1      35.586 -21.911 -19.408  0.00  0.00    +0.096 C 
ATOM     28  C   UNL     1      33.683 -22.274 -17.866  0.00  0.00    +0.379 C 
ATOM     29  C   UNL     1      32.498 -23.284 -16.505  0.00  0.00    +0.104 C 
BRANCH  29  30
ATOM     30  C   UNL     1      31.306 -23.797 -15.822  0.00  0.00    +0.101 C 
ATOM     31  C   UNL     1      31.519 -24.027 -14.304  0.00  0.00    +0.017 C 
ATOM     32  C   UNL     1      30.053 -22.907 -16.022  0.00  0.00    +0.017 C 
ENDBRANCH  29  30
ENDBRANCH  18  23
ENDBRANCH   1  18
TORSDOF 6
ENDMDL
MODEL 2
REMARK VINA RESULT:     -12.1      4.255     11.546
REMARK  Name = 24996872
REMARK  6 active torsions:
REMARK  status: ('A' for Active; 'I' for Inactive)
REMARK    1  A    between atoms: O_1  and  C_3
REMARK    2  A    between atoms: O_1  and  C_18
REMARK    3  A    between atoms: C_7  and  C_8
REMARK    4  A    between atoms: C_11  and  S_14
REMARK    5  A    between atoms: C_18  and  C_23
REMARK    6  A    between atoms: C_29  and  C_30
REMARK                            x       y       z     vdW  Elec       q    Type
REMARK                         _______ _______ _______ _____ _____    ______ ____
ROOT
ATOM      1  O   UNL     1      34.765 -19.057 -21.981  0.00  0.00    -0.474 OA
ENDROOT
BRANCH   1   3
ATOM      2  N   UNL     1      36.456 -20.575 -19.111  0.00  0.00    -0.241 NA
ATOM      3  C   UNL     1      34.959 -19.807 -20.847  0.00  0.00    +0.158 C 
ATOM      4  C   UNL     1      33.920 -20.539 -20.285  0.00  0.00    +0.040 C 
ATOM      5  C   UNL     1      36.198 -19.858 -20.228  0.00  0.00    +0.136 C 
ATOM      6  C   UNL     1      34.147 -21.290 -19.137  0.00  0.00    +0.022 C 
ATOM      7  C   UNL     1      35.421 -21.274 -18.594  0.00  0.00    +0.082 C 
BRANCH   7   8
ATOM      8  C   UNL     1      35.730 -22.029 -17.403  0.00  0.00    +0.018 C 
ATOM      9  C   UNL     1      34.745 -22.809 -16.796  0.00  0.00    +0.003 C 
ATOM     10  C   UNL     1      37.013 -21.980 -16.859  0.00  0.00    +0.003 C 
ATOM     11  C   UNL     1      36.328 -23.489 -15.102  0.00  0.00    +0.106 C 
ATOM     12  C   UNL     1      35.045 -23.538 -15.645  0.00  0.00    +0.018 C 
ATOM     13  C   UNL     1      37.313 -22.709 -15.709  0.00  0.00    +0.018 C 
BRANCH  11  14
ATOM     14  S   UNL     1      36.702 -24.402 -13.662  0.00  0.00    +0.010 S 
ATOM     15  O   UNL     1      37.931 -23.861 -13.095  0.00  0.00    -0.169 OA
ATOM     16  O   UNL     1      35.506 -24.495 -12.836  0.00  0.00    -0.169 OA
ATOM     17  C   UNL     1      37.051 -26.042 -14.256  0.00  0.00    +0.182 C 
ENDBRANCH  11  14
ENDBRANCH   7   8
ENDBRANCH   1   3
BRANCH   1  18
ATOM     18  C   UNL     1      35.874 -18.321 -22.464  0.00  0.00    +0.205 C 
BRANCH  18  23
ATOM     19  O   UNL     1      32.258 -13.042 -22.744  0.00  0.00    -0.296 OA
ATOM     20  N   UNL     1      33.790 -14.594 -21.892  0.00  0.00    -0.251 N 
ATOM     21  N   UNL     1      32.799 -12.769 -20.588  0.00  0.00    -0.300 NA
ATOM     22  N   UNL     1      31.531 -11.931 -22.297  0.00  0.00    -0.010 NA
ATOM     23  C   UNL     1      35.584 -16.833 -22.283  0.00  0.00    +0.047 C 
ATOM     24  C   UNL     1      34.907 -16.570 -20.933  0.00  0.00    +0.025 C 
ATOM     25  C   UNL     1      34.691 -16.309 -23.412  0.00  0.00    +0.025 C 
ATOM     26  C   UNL     1      34.576 -15.089 -20.753  0.00  0.00    +0.096 C 
ATOM     27  C   UNL     1      34.355 -14.829 -23.224  0.00  0.00    +0.096 C 
ATOM     28  C   UNL     1      32.977 -13.475 -21.676  0.00  0.00    +0.379 C 
ATOM     29  C   UNL     1      31.903 -11.834 -21.018  0.00  0.00    +0.104 C 
BRANCH  29  30
ATOM     30  C   UNL     1      31.380 -10.788 -20.133  0.00  0.00    +0.101 C 
ATOM     31  C   UNL     1      31.948 -10.861 -18.692  0.00  0.00    +0.017 C 
ATOM     32  C   UNL     1      31.595  -9.355 -20.683  0.00  0.00    +0.017 C 
ENDBRANCH  29  30
ENDBRANCH  18  23
ENDBRANCH   1  18
TORSDOF 6
ENDMDL
MODEL 3
REMARK VINA RESULT:     -11.8      4.002     11.191
REMARK  Name = 24996872
REMARK  6 active torsions:
REMARK  status: ('A' for Active; 'I' for Inactive)
REMARK    1  A    between atoms: O_1  and  C_3
REMARK    2  A    between atoms: O_1  and  C_18
REMARK    3  A    between atoms: C_7  and  C_8
REMARK    4  A    between atoms: C_11  and  S_14
REMARK    5  A    between atoms: C_18  and  C_23
REMARK    6  A    between atoms: C_29  and  C_30
REMARK                            x       y       z     vdW  Elec       q    Type
REMARK                         _______ _______ _______ _____ _____    ______ ____
ROOT
ATOM      1  O   UNL     1      36.156 -17.819 -22.833  0.00  0.00    -0.474 OA
ENDROOT
BRANCH   1   3
ATOM      2  N   UNL     1      36.772 -19.719 -19.765  0.00  0.00    -0.241 NA
ATOM      3  C   UNL     1      35.950 -18.693 -21.795  0.00  0.00    +0.158 C 
ATOM      4  C   UNL     1      34.772 -19.423 -21.695  0.00  0.00    +0.040 C 
ATOM      5  C   UNL     1      36.911 -18.875 -20.813  0.00  0.00    +0.136 C 
ATOM      6  C   UNL     1      34.592 -20.302 -20.632  0.00  0.00    +0.022 C 
ATOM      7  C   UNL     1      35.613 -20.411 -19.702  0.00  0.00    +0.082 C 
BRANCH   7   8
ATOM      8  C   UNL     1      35.496 -21.303 -18.573  0.00  0.00    +0.018 C 
ATOM      9  C   UNL     1      36.548 -21.421 -17.665  0.00  0.00    +0.003 C 
ATOM     10  C   UNL     1      34.330 -22.046 -18.388  0.00  0.00    +0.003 C 
ATOM     11  C   UNL     1      35.269 -23.025 -16.389  0.00  0.00    +0.106 C 
ATOM     12  C   UNL     1      36.434 -22.282 -16.574  0.00  0.00    +0.018 C 
ATOM     13  C   UNL     1      34.216 -22.907 -17.298  0.00  0.00    +0.018 C 
BRANCH  11  14
ATOM     14  S   UNL     1      35.126 -24.103 -15.024  0.00  0.00    +0.010 S 
ATOM     15  O   UNL     1      33.725 -24.141 -14.627  0.00  0.00    -0.169 OA
ATOM     16  O   UNL     1      35.825 -25.345 -15.327  0.00  0.00    -0.169 OA
ATOM     17  C   UNL     1      36.040 -23.298 -13.727  0.00  0.00    +0.182 C 
ENDBRANCH  11  14
ENDBRANCH   7   8
ENDBRANCH   1   3
BRANCH   1  18
ATOM     18  C   UNL     1      35.006 -17.334 -23.504  0.00  0.00    +0.205 C 
BRANCH  18  23
ATOM     19  O   UNL     1      31.588 -12.008 -22.520  0.00  0.00    -0.296 OA
ATOM     20  N   UNL     1      33.214 -13.655 -22.160  0.00  0.00    -0.251 N 
ATOM     21  N   UNL     1      32.580 -11.952 -20.513  0.00  0.00    -0.300 NA
ATOM     22  N   UNL     1      31.008 -10.936 -21.828  0.00  0.00    -0.010 NA
ATOM     23  C   UNL     1      34.810 -15.867 -23.129  0.00  0.00    +0.047 C 
ATOM     24  C   UNL     1      34.442 -15.727 -21.647  0.00  0.00    +0.025 C 
ATOM     25  C   UNL     1      33.717 -15.225 -23.989  0.00  0.00    +0.025 C 
ATOM     26  C   UNL     1      34.206 -14.266 -21.266  0.00  0.00    +0.096 C 
ATOM     27  C   UNL     1      33.477 -13.766 -23.599  0.00  0.00    +0.096 C 
ATOM     28  C   UNL     1      32.501 -12.551 -21.674  0.00  0.00    +0.379 C 
ATOM     29  C   UNL     1      31.645 -10.968 -20.654  0.00  0.00    +0.104 C 
BRANCH  29  30
ATOM     30  C   UNL     1      31.355 -10.006 -19.586  0.00  0.00    +0.101 C 
ATOM     31  C   UNL     1      31.700 -10.538 -18.171  0.00  0.00    +0.017 C 
ATOM     32  C   UNL     1      32.050  -8.636 -19.788  0.00  0.00    +0.017 C 
ENDBRANCH  29  30
ENDBRANCH  18  23
ENDBRANCH   1  18
TORSDOF 6
ENDMDL
MODEL 4
REMARK VINA RESULT:     -11.8      1.678      2.081
REMARK  Name = 24996872
REMARK  6 active torsions:
REMARK  status: ('A' for Active; 'I' for Inactive)
REMARK    1  A    between atoms: O_1  and  C_3
REMARK    2  A    between atoms: O_1  and  C_18
REMARK    3  A    between atoms: C_7  and  C_8
REMARK    4  A    between atoms: C_11  and  S_14
REMARK    5  A    between atoms: C_18  and  C_23
REMARK    6  A    between atoms: C_29  and  C_30
REMARK                            x       y       z     vdW  Elec       q    Type
REMARK                         _______ _______ _______ _____ _____    ______ ____
ROOT
ATOM      1  O   UNL     1      35.473 -17.434 -20.997  0.00  0.00    -0.474 OA
ENDROOT
BRANCH   1   3
ATOM      2  N   UNL     1      34.377 -14.564 -22.988  0.00  0.00    -0.241 NA
ATOM      3  C   UNL     1      34.965 -16.196 -21.303  0.00  0.00    +0.158 C 
ATOM      4  C   UNL     1      34.532 -15.332 -20.305  0.00  0.00    +0.040 C 
ATOM      5  C   UNL     1      34.867 -15.769 -22.618  0.00  0.00    +0.136 C 
ATOM      6  C   UNL     1      34.023 -14.083 -20.645  0.00  0.00    +0.022 C 
ATOM      7  C   UNL     1      33.966 -13.751 -21.989  0.00  0.00    +0.082 C 
BRANCH   7   8
ATOM      8  C   UNL     1      33.449 -12.473 -22.417  0.00  0.00    +0.018 C 
ATOM      9  C   UNL     1      34.052 -11.796 -23.477  0.00  0.00    +0.003 C 
ATOM     10  C   UNL     1      32.345 -11.916 -21.772  0.00  0.00    +0.003 C 
ATOM     11  C   UNL     1      32.447 -10.004 -23.245  0.00  0.00    +0.106 C 
ATOM     12  C   UNL     1      33.551 -10.561 -23.890  0.00  0.00    +0.018 C 
ATOM     13  C   UNL     1      31.844 -10.682 -22.185  0.00  0.00    +0.018 C 
BRANCH  11  14
ATOM     14  S   UNL     1      31.821  -8.459 -23.762  0.00  0.00    +0.010 S 
ATOM     15  O   UNL     1      31.839  -8.432 -25.218  0.00  0.00    -0.169 OA
ATOM     16  O   UNL     1      30.579  -8.190 -23.050  0.00  0.00    -0.169 OA
ATOM     17  C   UNL     1      33.017  -7.279 -23.179  0.00  0.00    +0.182 C 
ENDBRANCH  11  14
ENDBRANCH   7   8
ENDBRANCH   1   3
BRANCH   1  18
ATOM     18  C   UNL     1      35.147 -18.499 -21.871  0.00  0.00    +0.205 C 
BRANCH  18  23
ATOM     19  O   UNL     1      36.678 -22.144 -16.833  0.00  0.00    -0.296 OA
ATOM     20  N   UNL     1      35.447 -21.358 -18.664  0.00  0.00    -0.251 N 
ATOM     21  N   UNL     1      34.592 -22.942 -16.999  0.00  0.00    -0.300 NA
ATOM     22  N   UNL     1      36.503 -23.008 -15.744  0.00  0.00    -0.010 NA
ATOM     23  C   UNL     1      35.282 -19.813 -21.106  0.00  0.00    +0.047 C 
ATOM     24  C   UNL     1      34.053 -20.061 -20.226  0.00  0.00    +0.025 C 
ATOM     25  C   UNL     1      36.542 -19.810 -20.235  0.00  0.00    +0.025 C 
ATOM     26  C   UNL     1      34.191 -21.355 -19.425  0.00  0.00    +0.096 C 
ATOM     27  C   UNL     1      36.673 -21.103 -19.429  0.00  0.00    +0.096 C 
ATOM     28  C   UNL     1      35.506 -22.163 -17.519  0.00  0.00    +0.379 C 
ATOM     29  C   UNL     1      35.249 -23.439 -15.911  0.00  0.00    +0.104 C 
BRANCH  29  30
ATOM     30  C   UNL     1      34.623 -24.385 -14.983  0.00  0.00    +0.101 C 
ATOM     31  C   UNL     1      35.637 -25.343 -14.306  0.00  0.00    +0.017 C 
ATOM     32  C   UNL     1      33.775 -23.697 -13.883  0.00  0.00    +0.017 C 
ENDBRANCH  29  30
ENDBRANCH  18  23
ENDBRANCH   1  18
TORSDOF 6
ENDMDL
MODEL 5
REMARK VINA RESULT:     -11.7      3.919     11.346
REMARK  Name = 24996872
REMARK  6 active torsions:
REMARK  status: ('A' for Active; 'I' for Inactive)
REMARK    1  A    between atoms: O_1  and  C_3
REMARK    2  A    between atoms: O_1  and  C_18
REMARK    3  A    between atoms: C_7  and  C_8
REMARK    4  A    between atoms: C_11  and  S_14
REMARK    5  A    between atoms: C_18  and  C_23
REMARK    6  A    between atoms: C_29  and  C_30
REMARK                            x       y       z     vdW  Elec       q    Type
REMARK                         _______ _______ _______ _____ _____    ______ ____
ROOT
ATOM      1  O   UNL     1      34.847 -19.562 -21.884  0.00  0.00    -0.474 OA
ENDROOT
BRANCH   1   3
ATOM      2  N   UNL     1      32.734 -20.973 -19.247  0.00  0.00    -0.241 NA
ATOM      3  C   UNL     1      34.479 -20.272 -20.767  0.00  0.00    +0.158 C 
ATOM      4  C   UNL     1      35.417 -20.986 -20.031  0.00  0.00    +0.040 C 
ATOM      5  C   UNL     1      33.162 -20.297 -20.337  0.00  0.00    +0.136 C 
ATOM      6  C   UNL     1      35.016 -21.695 -18.903  0.00  0.00    +0.022 C 
ATOM      7  C   UNL     1      33.675 -21.657 -18.558  0.00  0.00    +0.082 C 
BRANCH   7   8
ATOM      8  C   UNL     1      33.186 -22.368 -17.401  0.00  0.00    +0.018 C 
ATOM      9  C   UNL     1      34.081 -23.027 -16.557  0.00  0.00    +0.003 C 
ATOM     10  C   UNL     1      31.820 -22.395 -17.124  0.00  0.00    +0.003 C 
ATOM     11  C   UNL     1      32.241 -23.742 -15.163  0.00  0.00    +0.106 C 
ATOM     12  C   UNL     1      33.608 -23.714 -15.440  0.00  0.00    +0.018 C 
ATOM     13  C   UNL     1      31.346 -23.082 -16.007  0.00  0.00    +0.018 C 
BRANCH  11  14
ATOM     14  S   UNL     1      31.649 -24.601 -13.764  0.00  0.00    +0.010 S 
ATOM     15  O   UNL     1      32.615 -25.641 -13.434  0.00  0.00    -0.169 OA
ATOM     16  O   UNL     1      31.253 -23.635 -12.749  0.00  0.00    -0.169 OA
ATOM     17  C   UNL     1      30.163 -25.398 -14.330  0.00  0.00    +0.182 C 
ENDBRANCH  11  14
ENDBRANCH   7   8
ENDBRANCH   1   3
BRANCH   1  18
ATOM     18  C   UNL     1      36.085 -18.879 -21.834  0.00  0.00    +0.205 C 
BRANCH  18  23
ATOM     19  O   UNL     1      32.583 -13.622 -22.896  0.00  0.00    -0.296 OA
ATOM     20  N   UNL     1      34.033 -15.092 -21.789  0.00  0.00    -0.251 N 
ATOM     21  N   UNL     1      32.993 -13.129 -20.750  0.00  0.00    -0.300 NA
ATOM     22  N   UNL     1      31.848 -12.463 -22.615  0.00  0.00    -0.010 NA
ATOM     23  C   UNL     1      35.810 -17.377 -21.828  0.00  0.00    +0.047 C 
ATOM     24  C   UNL     1      35.055 -16.966 -20.559  0.00  0.00    +0.025 C 
ATOM     25  C   UNL     1      34.998 -16.966 -23.061  0.00  0.00    +0.025 C 
ATOM     26  C   UNL     1      34.738 -15.471 -20.557  0.00  0.00    +0.096 C 
ATOM     27  C   UNL     1      34.676 -15.472 -23.051  0.00  0.00    +0.096 C 
ATOM     28  C   UNL     1      33.227 -13.947 -21.744  0.00  0.00    +0.379 C 
ATOM     29  C   UNL     1      32.142 -12.235 -21.331  0.00  0.00    +0.104 C 
BRANCH  29  30
ATOM     30  C   UNL     1      31.582 -11.096 -20.597  0.00  0.00    +0.101 C 
ATOM     31  C   UNL     1      31.994 -11.068 -19.102  0.00  0.00    +0.017 C 
ATOM     32  C   UNL     1      31.924  -9.726 -21.235  0.00  0.00    +0.017 C 
ENDBRANCH  29  30
ENDBRANCH  18  23
ENDBRANCH   1  18
TORSDOF 6
ENDMDL
MODEL 6
REMARK VINA RESULT:     -11.6      1.891      2.403
REMARK  Name = 24996872
REMARK  6 active torsions:
REMARK  status: ('A' for Active; 'I' for Inactive)
REMARK    1  A    between atoms: O_1  and  C_3
REMARK    2  A    between atoms: O_1  and  C_18
REMARK    3  A    between atoms: C_7  and  C_8
REMARK    4  A    between atoms: C_11  and  S_14
REMARK    5  A    between atoms: C_18  and  C_23
REMARK    6  A    between atoms: C_29  and  C_30
REMARK                            x       y       z     vdW  Elec       q    Type
REMARK                         _______ _______ _______ _____ _____    ______ ____
ROOT
ATOM      1  O   UNL     1      35.626 -18.152 -21.363  0.00  0.00    -0.474 OA
ENDROOT
BRANCH   1   3
ATOM      2  N   UNL     1      34.349 -14.744 -20.963  0.00  0.00    -0.241 NA
ATOM      3  C   UNL     1      35.154 -16.905 -21.691  0.00  0.00    +0.158 C 
ATOM      4  C   UNL     1      34.998 -16.524 -23.019  0.00  0.00    +0.040 C 
ATOM      5  C   UNL     1      34.818 -15.987 -20.709  0.00  0.00    +0.136 C 
ATOM      6  C   UNL     1      34.517 -15.254 -23.321  0.00  0.00    +0.022 C 
ATOM      7  C   UNL     1      34.210 -14.410 -22.266  0.00  0.00    +0.082 C 
BRANCH   7   8
ATOM      8  C   UNL     1      33.707 -13.078 -22.503  0.00  0.00    +0.018 C 
ATOM      9  C   UNL     1      32.660 -12.579 -21.727  0.00  0.00    +0.003 C 
ATOM     10  C   UNL     1      34.268 -12.289 -23.507  0.00  0.00    +0.003 C 
ATOM     11  C   UNL     1      32.735 -10.503 -22.961  0.00  0.00    +0.106 C 
ATOM     12  C   UNL     1      32.174 -11.292 -21.957  0.00  0.00    +0.018 C 
ATOM     13  C   UNL     1      33.782 -11.002 -23.737  0.00  0.00    +0.018 C 
BRANCH  11  14
ATOM     14  S   UNL     1      32.127  -8.893 -23.248  0.00  0.00    +0.010 S 
ATOM     15  O   UNL     1      31.934  -8.735 -24.684  0.00  0.00    -0.169 OA
ATOM     16  O   UNL     1      31.019  -8.636 -22.339  0.00  0.00    -0.169 OA
ATOM     17  C   UNL     1      33.460  -7.822 -22.756  0.00  0.00    +0.182 C 
ENDBRANCH  11  14
ENDBRANCH   7   8
ENDBRANCH   1   3
BRANCH   1  18
ATOM     18  C   UNL     1      34.760 -19.249 -21.592  0.00  0.00    +0.205 C 
BRANCH  18  23
ATOM     19  O   UNL     1      37.257 -21.915 -16.331  0.00  0.00    -0.296 OA
ATOM     20  N   UNL     1      35.810 -21.613 -18.147  0.00  0.00    -0.251 N 
ATOM     21  N   UNL     1      35.390 -23.152 -16.285  0.00  0.00    -0.300 NA
ATOM     22  N   UNL     1      37.320 -22.673 -15.154  0.00  0.00    -0.010 NA
ATOM     23  C   UNL     1      35.211 -20.413 -20.713  0.00  0.00    +0.047 C 
ATOM     24  C   UNL     1      34.102 -20.819 -19.736  0.00  0.00    +0.025 C 
ATOM     25  C   UNL     1      36.475 -20.048 -19.928  0.00  0.00    +0.025 C 
ATOM     26  C   UNL     1      34.552 -21.959 -18.823  0.00  0.00    +0.096 C 
ATOM     27  C   UNL     1      36.917 -21.187 -19.010  0.00  0.00    +0.096 C 
ATOM     28  C   UNL     1      36.089 -22.257 -16.936  0.00  0.00    +0.379 C 
ATOM     29  C   UNL     1      36.184 -23.376 -15.198  0.00  0.00    +0.104 C 
BRANCH  29  30
ATOM     30  C   UNL     1      35.818 -24.327 -14.144  0.00  0.00    +0.101 C 
ATOM     31  C   UNL     1      34.313 -24.281 -13.773  0.00  0.00    +0.017 C 
ATOM     32  C   UNL     1      36.207 -25.790 -14.475  0.00  0.00    +0.017 C 
ENDBRANCH  29  30
ENDBRANCH  18  23
ENDBRANCH   1  18
TORSDOF 6
ENDMDL
MODEL 7
REMARK VINA RESULT:     -11.6      3.653     11.264
REMARK  Name = 24996872
REMARK  6 active torsions:
REMARK  status: ('A' for Active; 'I' for Inactive)
REMARK    1  A    between atoms: O_1  and  C_3
REMARK    2  A    between atoms: O_1  and  C_18
REMARK    3  A    between atoms: C_7  and  C_8
REMARK    4  A    between atoms: C_11  and  S_14
REMARK    5  A    between atoms: C_18  and  C_23
REMARK    6  A    between atoms: C_29  and  C_30
REMARK                            x       y       z     vdW  Elec       q    Type
REMARK                         _______ _______ _______ _____ _____    ______ ____
ROOT
ATOM      1  O   UNL     1      35.075 -16.435 -24.543  0.00  0.00    -0.474 OA
ENDROOT
BRANCH   1   3
ATOM      2  N   UNL     1      34.196 -19.485 -22.719  0.00  0.00    -0.241 NA
ATOM      3  C   UNL     1      34.956 -17.329 -23.508  0.00  0.00    +0.158 C 
ATOM      4  C   UNL     1      35.443 -17.029 -22.241  0.00  0.00    +0.040 C 
ATOM      5  C   UNL     1      34.346 -18.560 -23.694  0.00  0.00    +0.136 C 
ATOM      6  C   UNL     1      35.307 -17.955 -21.212  0.00  0.00    +0.022 C 
ATOM      7  C   UNL     1      34.682 -19.158 -21.501  0.00  0.00    +0.082 C 
BRANCH   7   8
ATOM      8  C   UNL     1      34.507 -20.166 -20.483  0.00  0.00    +0.018 C 
ATOM      9  C   UNL     1      33.224 -20.514 -20.059  0.00  0.00    +0.003 C 
ATOM     10  C   UNL     1      35.619 -20.795 -19.925  0.00  0.00    +0.003 C 
ATOM     11  C   UNL     1      34.168 -22.116 -18.517  0.00  0.00    +0.106 C 
ATOM     12  C   UNL     1      33.055 -21.488 -19.076  0.00  0.00    +0.018 C 
ATOM     13  C   UNL     1      35.451 -21.769 -18.941  0.00  0.00    +0.018 C 
BRANCH  11  14
ATOM     14  S   UNL     1      33.956 -23.336 -17.287  0.00  0.00    +0.010 S 
ATOM     15  O   UNL     1      33.659 -24.598 -17.952  0.00  0.00    -0.169 OA
ATOM     16  O   UNL     1      35.068 -23.259 -16.348  0.00  0.00    -0.169 OA
ATOM     17  C   UNL     1      32.498 -22.827 -16.405  0.00  0.00    +0.182 C 
ENDBRANCH  11  14
ENDBRANCH   7   8
ENDBRANCH   1   3
BRANCH   1  18
ATOM     18  C   UNL     1      33.932 -15.661 -24.859  0.00  0.00    +0.205 C 
BRANCH  18  23
ATOM     19  O   UNL     1      31.993  -9.777 -23.236  0.00  0.00    -0.296 OA
ATOM     20  N   UNL     1      32.958 -11.898 -23.003  0.00  0.00    -0.251 N 
ATOM     21  N   UNL     1      32.439 -10.400 -21.131  0.00  0.00    -0.300 NA
ATOM     22  N   UNL     1      31.582  -8.715 -22.419  0.00  0.00    -0.010 NA
ATOM     23  C   UNL     1      34.065 -14.300 -24.180  0.00  0.00    +0.047 C 
ATOM     24  C   UNL     1      33.400 -14.313 -22.800  0.00  0.00    +0.025 C 
ATOM     25  C   UNL     1      33.438 -13.197 -25.039  0.00  0.00    +0.025 C 
ATOM     26  C   UNL     1      33.492 -12.946 -22.123  0.00  0.00    +0.096 C 
ATOM     27  C   UNL     1      33.523 -11.833 -24.355  0.00  0.00    +0.096 C 
ATOM     28  C   UNL     1      32.484 -10.727 -22.399  0.00  0.00    +0.379 C 
ATOM     29  C   UNL     1      31.878  -9.159 -21.194  0.00  0.00    +0.104 C 
BRANCH  29  30
ATOM     30  C   UNL     1      31.614  -8.359 -19.993  0.00  0.00    +0.101 C 
ATOM     31  C   UNL     1      31.494  -9.210 -18.703  0.00  0.00    +0.017 C 
ATOM     32  C   UNL     1      32.660  -7.240 -19.758  0.00  0.00    +0.017 C 
ENDBRANCH  29  30
ENDBRANCH  18  23
ENDBRANCH   1  18
TORSDOF 6
ENDMDL
MODEL 8
REMARK VINA RESULT:     -11.4      4.451     11.994
REMARK  Name = 24996872
REMARK  6 active torsions:
REMARK  status: ('A' for Active; 'I' for Inactive)
REMARK    1  A    between atoms: O_1  and  C_3
REMARK    2  A    between atoms: O_1  and  C_18
REMARK    3  A    between atoms: C_7  and  C_8
REMARK    4  A    between atoms: C_11  and  S_14
REMARK    5  A    between atoms: C_18  and  C_23
REMARK    6  A    between atoms: C_29  and  C_30
REMARK                            x       y       z     vdW  Elec       q    Type
REMARK                         _______ _______ _______ _____ _____    ______ ____
ROOT
ATOM      1  O   UNL     1      34.346 -19.872 -21.471  0.00  0.00    -0.474 OA
ENDROOT
BRANCH   1   3
ATOM      2  N   UNL     1      36.367 -21.108 -18.680  0.00  0.00    -0.241 NA
ATOM      3  C   UNL     1      34.677 -20.519 -20.306  0.00  0.00    +0.158 C 
ATOM      4  C   UNL     1      33.723 -21.222 -19.580  0.00  0.00    +0.040 C 
ATOM      5  C   UNL     1      35.974 -20.493 -19.818  0.00  0.00    +0.136 C 
ATOM      6  C   UNL     1      34.088 -21.868 -18.404  0.00  0.00    +0.022 C 
ATOM      7  C   UNL     1      35.411 -21.781 -18.001  0.00  0.00    +0.082 C 
BRANCH   7   8
ATOM      8  C   UNL     1      35.862 -22.426 -16.791  0.00  0.00    +0.018 C 
ATOM      9  C   UNL     1      37.192 -22.302 -16.389  0.00  0.00    +0.003 C 
ATOM     10  C   UNL     1      34.968 -23.173 -16.024  0.00  0.00    +0.003 C 
ATOM     11  C   UNL     1      36.733 -23.673 -14.452  0.00  0.00    +0.106 C 
ATOM     12  C   UNL     1      37.627 -22.926 -15.220  0.00  0.00    +0.018 C 
ATOM     13  C   UNL     1      35.403 -23.797 -14.855  0.00  0.00    +0.018 C 
BRANCH  11  14
ATOM     14  S   UNL     1      37.278 -24.453 -12.989  0.00  0.00    +0.010 S 
ATOM     15  O   UNL     1      38.084 -23.496 -12.243  0.00  0.00    -0.169 OA
ATOM     16  O   UNL     1      36.141 -25.096 -12.345  0.00  0.00    -0.169 OA
ATOM     17  C   UNL     1      38.356 -25.751 -13.554  0.00  0.00    +0.182 C 
ENDBRANCH  11  14
ENDBRANCH   7   8
ENDBRANCH   1   3
BRANCH   1  18
ATOM     18  C   UNL     1      35.375 -19.701 -22.428  0.00  0.00    +0.205 C 
BRANCH  18  23
ATOM     19  O   UNL     1      33.144 -14.057 -24.475  0.00  0.00    -0.296 OA
ATOM     20  N   UNL     1      34.333 -15.586 -23.158  0.00  0.00    -0.251 N 
ATOM     21  N   UNL     1      33.958 -13.238 -22.556  0.00  0.00    -0.300 NA
ATOM     22  N   UNL     1      32.760 -12.710 -24.432  0.00  0.00    -0.010 NA
ATOM     23  C   UNL     1      35.477 -18.217 -22.772  0.00  0.00    +0.047 C 
ATOM     24  C   UNL     1      35.030 -17.352 -21.588  0.00  0.00    +0.025 C 
ATOM     25  C   UNL     1      34.625 -17.881 -24.000  0.00  0.00    +0.025 C 
ATOM     26  C   UNL     1      35.090 -15.864 -21.930  0.00  0.00    +0.096 C 
ATOM     27  C   UNL     1      34.681 -16.390 -24.334  0.00  0.00    +0.096 C 
ATOM     28  C   UNL     1      33.844 -14.285 -23.333  0.00  0.00    +0.379 C 
ATOM     29  C   UNL     1      33.277 -12.297 -23.271  0.00  0.00    +0.104 C 
BRANCH  29  30
ATOM     30  C   UNL     1      33.120 -10.918 -22.799  0.00  0.00    +0.101 C 
ATOM     31  C   UNL     1      32.846  -9.905 -23.941  0.00  0.00    +0.017 C 
ATOM     32  C   UNL     1      32.022 -10.760 -21.717  0.00  0.00    +0.017 C 
ENDBRANCH  29  30
ENDBRANCH  18  23
ENDBRANCH   1  18
TORSDOF 6
ENDMDL
MODEL 9
REMARK VINA RESULT:     -10.8      2.384      3.013
REMARK  Name = 24996872
REMARK  6 active torsions:
REMARK  status: ('A' for Active; 'I' for Inactive)
REMARK    1  A    between atoms: O_1  and  C_3
REMARK    2  A    between atoms: O_1  and  C_18
REMARK    3  A    between atoms: C_7  and  C_8
REMARK    4  A    between atoms: C_11  and  S_14
REMARK    5  A    between atoms: C_18  and  C_23
REMARK    6  A    between atoms: C_29  and  C_30
REMARK                            x       y       z     vdW  Elec       q    Type
REMARK                         _______ _______ _______ _____ _____    ______ ____
ROOT
ATOM      1  O   UNL     1      35.888 -19.003 -21.613  0.00  0.00    -0.474 OA
ENDROOT
BRANCH   1   3
ATOM      2  N   UNL     1      34.510 -15.655 -21.071  0.00  0.00    -0.241 NA
ATOM      3  C   UNL     1      35.392 -17.752 -21.888  0.00  0.00    +0.158 C 
ATOM      4  C   UNL     1      35.263 -17.305 -23.198  0.00  0.00    +0.040 C 
ATOM      5  C   UNL     1      35.005 -16.897 -20.869  0.00  0.00    +0.136 C 
ATOM      6  C   UNL     1      34.756 -16.034 -23.446  0.00  0.00    +0.022 C 
ATOM      7  C   UNL     1      34.399 -15.255 -22.357  0.00  0.00    +0.082 C 
BRANCH   7   8
ATOM      8  C   UNL     1      33.867 -13.925 -22.538  0.00  0.00    +0.018 C 
ATOM      9  C   UNL     1      32.864 -13.453 -21.690  0.00  0.00    +0.003 C 
ATOM     10  C   UNL     1      34.355 -13.112 -23.560  0.00  0.00    +0.003 C 
ATOM     11  C   UNL     1      32.840 -11.355 -22.888  0.00  0.00    +0.106 C 
ATOM     12  C   UNL     1      32.351 -12.168 -21.866  0.00  0.00    +0.018 C 
ATOM     13  C   UNL     1      33.842 -11.827 -23.736  0.00  0.00    +0.018 C 
BRANCH  11  14
ATOM     14  S   UNL     1      32.197  -9.747 -23.107  0.00  0.00    +0.010 S 
ATOM     15  O   UNL     1      32.561  -9.297 -24.445  0.00  0.00    -0.169 OA
ATOM     16  O   UNL     1      30.800  -9.736 -22.697  0.00  0.00    -0.169 OA
ATOM     17  C   UNL     1      33.089  -8.750 -21.935  0.00  0.00    +0.182 C 
ENDBRANCH  11  14
ENDBRANCH   7   8
ENDBRANCH   1   3
BRANCH   1  18
ATOM     18  C   UNL     1      34.945 -20.029 -21.365  0.00  0.00    +0.205 C 
BRANCH  18  23
ATOM     19  O   UNL     1      34.774 -23.975 -16.322  0.00  0.00    -0.296 OA
ATOM     20  N   UNL     1      35.464 -22.192 -17.676  0.00  0.00    -0.251 N 
ATOM     21  N   UNL     1      36.700 -23.002 -15.719  0.00  0.00    -0.300 NA
ATOM     22  N   UNL     1      35.220 -24.663 -15.186  0.00  0.00    -0.010 NA
ATOM     23  C   UNL     1      34.986 -20.375 -19.878  0.00  0.00    +0.047 C 
ATOM     24  C   UNL     1      36.404 -20.761 -19.447  0.00  0.00    +0.025 C 
ATOM     25  C   UNL     1      34.024 -21.524 -19.558  0.00  0.00    +0.025 C 
ATOM     26  C   UNL     1      36.454 -21.147 -17.969  0.00  0.00    +0.096 C 
ATOM     27  C   UNL     1      34.082 -21.913 -18.081  0.00  0.00    +0.096 C 
ATOM     28  C   UNL     1      35.704 -23.015 -16.568  0.00  0.00    +0.379 C 
ATOM     29  C   UNL     1      36.360 -24.032 -14.890  0.00  0.00    +0.104 C 
BRANCH  29  30
ATOM     30  C   UNL     1      37.190 -24.423 -13.747  0.00  0.00    +0.101 C 
ATOM     31  C   UNL     1      38.474 -25.190 -14.155  0.00  0.00    +0.017 C 
ATOM     32  C   UNL     1      37.587 -23.231 -12.840  0.00  0.00    +0.017 C 
ENDBRANCH  29  30
ENDBRANCH  18  23
ENDBRANCH   1  18
TORSDOF 6
ENDMDL
