MODEL 1
REMARK VINA RESULT:     -11.5      0.000      0.000
REMARK  Name = 445579
REMARK  10 active torsions:
REMARK  status: ('A' for Active; 'I' for Inactive)
REMARK    1  A    between atoms: C_1  and  O_18
REMARK    2  A    between atoms: C_4  and  C_9
REMARK    3  A    between atoms: N_8  and  C_11
REMARK    4  A    between atoms: C_11  and  C_12
REMARK    5  A    between atoms: O_18  and  C_24
REMARK    6  A    between atoms: C_20  and  O_27
REMARK    7  A    between atoms: C_21  and  O_25
REMARK    8  A    between atoms: C_22  and  C_31
REMARK    9  A    between atoms: C_23  and  O_29
REMARK   10  A    between atoms: C_31  and  O_32
REMARK                            x       y       z     vdW  Elec       q    Type
REMARK                         _______ _______ _______ _____ _____    ______ ____
ROOT
ATOM      1  C   UNL     1      34.182 -23.909 -14.792  0.00  0.00    +0.142 C 
ATOM      2  C   UNL     1      34.357 -23.567 -16.130  0.00  0.00    +0.042 C 
ATOM      3  C   UNL     1      32.922 -23.847 -14.205  0.00  0.00    +0.037 C 
ATOM      4  C   UNL     1      33.259 -23.158 -16.888  0.00  0.00    +0.056 C 
ATOM      5  C   UNL     1      31.825 -23.439 -14.964  0.00  0.00    +0.003 C 
ATOM      6  C   UNL     1      31.994 -23.095 -16.305  0.00  0.00    +0.005 C 
ENDROOT
BRANCH   4   9
ATOM      7  O   UNL     1      33.847 -23.615 -19.124  0.00  0.00    -0.270 OA
ATOM      8  N   UNL     1      33.083 -21.496 -18.636  0.00  0.00    -0.297 N 
ATOM      9  C   UNL     1      33.435 -22.801 -18.287  0.00  0.00    +0.246 C 
ATOM     10  H   UNL     1      32.760 -20.888 -17.930  0.00  0.00    +0.150 HD
BRANCH   8  11
ATOM     11  C   UNL     1      33.170 -20.999 -19.990  0.00  0.00    +0.117 C 
BRANCH  11  12
ATOM     12  C   UNL     1      34.476 -20.306 -20.251  0.00  0.00    -0.003 C 
ATOM     13  C   UNL     1      34.518 -19.227 -21.128  0.00  0.00    -0.003 C 
ATOM     14  C   UNL     1      35.630 -20.748 -19.614  0.00  0.00    -0.003 C 
ATOM     15  C   UNL     1      35.732 -18.583 -21.372  0.00  0.00    -0.000 C 
ATOM     16  C   UNL     1      36.842 -20.102 -19.857  0.00  0.00    -0.000 C 
ATOM     17  C   UNL     1      36.893 -19.020 -20.736  0.00  0.00    -0.000 C 
ENDBRANCH  11  12
ENDBRANCH   8  11
ENDBRANCH   4   9
BRANCH   1  18
ATOM     18  O   UNL     1      35.259 -24.310 -14.048  0.00  0.00    -0.451 OA
BRANCH  18  24
ATOM     19  O   UNL     1      35.969 -23.150 -12.112  0.00  0.00    -0.316 OA
ATOM     20  C   UNL     1      37.863 -24.631 -11.674  0.00  0.00    +0.169 C 
ATOM     21  C   UNL     1      38.092 -24.771 -13.182  0.00  0.00    +0.173 C 
ATOM     22  C   UNL     1      36.389 -24.317 -11.387  0.00  0.00    +0.177 C 
ATOM     23  C   UNL     1      37.555 -23.542 -13.914  0.00  0.00    +0.210 C 
ATOM     24  C   UNL     1      36.097 -23.279 -13.530  0.00  0.00    +0.318 C 
BRANCH  21  25
ATOM     25  O   UNL     1      39.484 -24.910 -13.453  0.00  0.00    -0.379 OA
ATOM     26  H   UNL     1      39.743 -24.283 -14.146  0.00  0.00    +0.211 HD
ENDBRANCH  21  25
BRANCH  20  27
ATOM     27  O   UNL     1      38.671 -23.567 -11.165  0.00  0.00    -0.379 OA
ATOM     28  H   UNL     1      38.181 -23.089 -10.477  0.00  0.00    +0.211 HD
ENDBRANCH  20  27
BRANCH  23  29
ATOM     29  O   UNL     1      37.645 -23.727 -15.323  0.00  0.00    -0.377 OA
ATOM     30  H   UNL     1      38.293 -24.422 -15.517  0.00  0.00    +0.211 HD
ENDBRANCH  23  29
BRANCH  22  31
ATOM     31  C   UNL     1      36.130 -24.047  -9.909  0.00  0.00    +0.169 C 
BRANCH  31  32
ATOM     32  O   UNL     1      35.324 -25.092  -9.393  0.00  0.00    -0.379 OA
ATOM     33  H   UNL     1      35.636 -25.942  -9.739  0.00  0.00    +0.211 HD
ENDBRANCH  31  32
ENDBRANCH  22  31
ENDBRANCH  18  24
ENDBRANCH   1  18
TORSDOF 10
ENDMDL
MODEL 2
REMARK VINA RESULT:     -11.4      1.176      2.331
REMARK  Name = 445579
REMARK  10 active torsions:
REMARK  status: ('A' for Active; 'I' for Inactive)
REMARK    1  A    between atoms: C_1  and  O_18
REMARK    2  A    between atoms: C_4  and  C_9
REMARK    3  A    between atoms: N_8  and  C_11
REMARK    4  A    between atoms: C_11  and  C_12
REMARK    5  A    between atoms: O_18  and  C_24
REMARK    6  A    between atoms: C_20  and  O_27
REMARK    7  A    between atoms: C_21  and  O_25
REMARK    8  A    between atoms: C_22  and  C_31
REMARK    9  A    between atoms: C_23  and  O_29
REMARK   10  A    between atoms: C_31  and  O_32
REMARK                            x       y       z     vdW  Elec       q    Type
REMARK                         _______ _______ _______ _____ _____    ______ ____
ROOT
ATOM      1  C   UNL     1      34.155 -23.296 -14.832  0.00  0.00    +0.142 C 
ATOM      2  C   UNL     1      34.364 -23.030 -16.182  0.00  0.00    +0.042 C 
ATOM      3  C   UNL     1      32.864 -23.379 -14.320  0.00  0.00    +0.037 C 
ATOM      4  C   UNL     1      33.270 -22.845 -17.028  0.00  0.00    +0.056 C 
ATOM      5  C   UNL     1      31.771 -23.194 -15.166  0.00  0.00    +0.003 C 
ATOM      6  C   UNL     1      31.974 -22.927 -16.520  0.00  0.00    +0.005 C 
ENDROOT
BRANCH   4   9
ATOM      7  O   UNL     1      33.883 -23.437 -19.225  0.00  0.00    -0.270 OA
ATOM      8  N   UNL     1      33.178 -21.273 -18.864  0.00  0.00    -0.297 N 
ATOM      9  C   UNL     1      33.483 -22.567 -18.440  0.00  0.00    +0.246 C 
ATOM     10  H   UNL     1      32.862 -20.619 -18.198  0.00  0.00    +0.150 HD
BRANCH   8  11
ATOM     11  C   UNL     1      33.306 -20.852 -20.241  0.00  0.00    +0.117 C 
BRANCH  11  12
ATOM     12  C   UNL     1      34.601 -20.137 -20.492  0.00  0.00    -0.003 C 
ATOM     13  C   UNL     1      34.642 -19.090 -21.406  0.00  0.00    -0.003 C 
ATOM     14  C   UNL     1      35.747 -20.528 -19.809  0.00  0.00    -0.003 C 
ATOM     15  C   UNL     1      35.847 -18.425 -21.640  0.00  0.00    -0.000 C 
ATOM     16  C   UNL     1      36.950 -19.863 -20.043  0.00  0.00    -0.000 C 
ATOM     17  C   UNL     1      37.000 -18.812 -20.959  0.00  0.00    -0.000 C 
ENDBRANCH  11  12
ENDBRANCH   8  11
ENDBRANCH   4   9
BRANCH   1  18
ATOM     18  O   UNL     1      35.228 -23.477 -14.002  0.00  0.00    -0.451 OA
BRANCH  18  24
ATOM     19  O   UNL     1      36.349 -25.554 -13.825  0.00  0.00    -0.316 OA
ATOM     20  C   UNL     1      37.956 -24.774 -12.157  0.00  0.00    +0.169 C 
ATOM     21  C   UNL     1      36.865 -23.902 -11.526  0.00  0.00    +0.173 C 
ATOM     22  C   UNL     1      37.661 -24.998 -13.646  0.00  0.00    +0.177 C 
ATOM     23  C   UNL     1      35.486 -24.492 -11.814  0.00  0.00    +0.210 C 
ATOM     24  C   UNL     1      35.300 -24.726 -13.315  0.00  0.00    +0.318 C 
BRANCH  21  25
ATOM     25  O   UNL     1      37.059 -23.824 -10.117  0.00  0.00    -0.379 OA
ATOM     26  H   UNL     1      37.207 -22.900  -9.860  0.00  0.00    +0.211 HD
ENDBRANCH  21  25
BRANCH  20  27
ATOM     27  O   UNL     1      37.996 -26.041 -11.497  0.00  0.00    -0.379 OA
ATOM     28  H   UNL     1      37.197 -26.149 -10.957  0.00  0.00    +0.211 HD
ENDBRANCH  20  27
BRANCH  23  29
ATOM     29  O   UNL     1      34.465 -23.617 -11.345  0.00  0.00    -0.377 OA
ATOM     30  H   UNL     1      33.960 -23.275 -12.099  0.00  0.00    +0.211 HD
ENDBRANCH  23  29
BRANCH  22  31
ATOM     31  C   UNL     1      38.650 -25.958 -14.296  0.00  0.00    +0.169 C 
BRANCH  31  32
ATOM     32  O   UNL     1      38.158 -27.279 -14.154  0.00  0.00    -0.379 OA
ATOM     33  H   UNL     1      37.191 -27.260 -14.095  0.00  0.00    +0.211 HD
ENDBRANCH  31  32
ENDBRANCH  22  31
ENDBRANCH  18  24
ENDBRANCH   1  18
TORSDOF 10
ENDMDL
MODEL 3
REMARK VINA RESULT:     -11.2      2.488      4.018
REMARK  Name = 445579
REMARK  10 active torsions:
REMARK  status: ('A' for Active; 'I' for Inactive)
REMARK    1  A    between atoms: C_1  and  O_18
REMARK    2  A    between atoms: C_4  and  C_9
REMARK    3  A    between atoms: N_8  and  C_11
REMARK    4  A    between atoms: C_11  and  C_12
REMARK    5  A    between atoms: O_18  and  C_24
REMARK    6  A    between atoms: C_20  and  O_27
REMARK    7  A    between atoms: C_21  and  O_25
REMARK    8  A    between atoms: C_22  and  C_31
REMARK    9  A    between atoms: C_23  and  O_29
REMARK   10  A    between atoms: C_31  and  O_32
REMARK                            x       y       z     vdW  Elec       q    Type
REMARK                         _______ _______ _______ _____ _____    ______ ____
ROOT
ATOM      1  C   UNL     1      35.023 -22.260 -17.947  0.00  0.00    +0.142 C 
ATOM      2  C   UNL     1      35.749 -21.315 -18.666  0.00  0.00    +0.042 C 
ATOM      3  C   UNL     1      33.666 -22.447 -18.196  0.00  0.00    +0.037 C 
ATOM      4  C   UNL     1      35.113 -20.548 -19.642  0.00  0.00    +0.056 C 
ATOM      5  C   UNL     1      33.031 -21.680 -19.173  0.00  0.00    +0.003 C 
ATOM      6  C   UNL     1      33.753 -20.732 -19.896  0.00  0.00    +0.005 C 
ENDROOT
BRANCH   4   9
ATOM      7  O   UNL     1      37.054 -19.310 -20.144  0.00  0.00    -0.270 OA
ATOM      8  N   UNL     1      35.186 -18.933 -21.440  0.00  0.00    -0.297 N 
ATOM      9  C   UNL     1      35.867 -19.560 -20.396  0.00  0.00    +0.246 C 
ATOM     10  H   UNL     1      34.242 -19.169 -21.598  0.00  0.00    +0.150 HD
BRANCH   8  11
ATOM     11  C   UNL     1      35.807 -17.952 -22.301  0.00  0.00    +0.117 C 
BRANCH  11  12
ATOM     12  C   UNL     1      35.264 -16.573 -22.065  0.00  0.00    -0.003 C 
ATOM     13  C   UNL     1      35.034 -15.730 -23.148  0.00  0.00    -0.003 C 
ATOM     14  C   UNL     1      34.996 -16.150 -20.768  0.00  0.00    -0.003 C 
ATOM     15  C   UNL     1      34.530 -14.448 -22.929  0.00  0.00    -0.000 C 
ATOM     16  C   UNL     1      34.490 -14.869 -20.550  0.00  0.00    -0.000 C 
ATOM     17  C   UNL     1      34.257 -14.018 -21.630  0.00  0.00    -0.000 C 
ENDBRANCH  11  12
ENDBRANCH   8  11
ENDBRANCH   4   9
BRANCH   1  18
ATOM     18  O   UNL     1      35.647 -23.012 -16.990  0.00  0.00    -0.451 OA
BRANCH  18  24
ATOM     19  O   UNL     1      34.702 -22.536 -14.873  0.00  0.00    -0.316 OA
ATOM     20  C   UNL     1      35.583 -24.549 -13.802  0.00  0.00    +0.169 C 
ATOM     21  C   UNL     1      36.859 -24.426 -14.640  0.00  0.00    +0.173 C 
ATOM     22  C   UNL     1      34.402 -23.899 -14.536  0.00  0.00    +0.177 C 
ATOM     23  C   UNL     1      37.090 -22.970 -15.041  0.00  0.00    +0.210 C 
ATOM     24  C   UNL     1      35.846 -22.393 -15.720  0.00  0.00    +0.318 C 
BRANCH  21  25
ATOM     25  O   UNL     1      37.979 -24.891 -13.892  0.00  0.00    -0.379 OA
ATOM     26  H   UNL     1      38.724 -24.281 -14.010  0.00  0.00    +0.211 HD
ENDBRANCH  21  25
BRANCH  20  27
ATOM     27  O   UNL     1      35.769 -23.888 -12.548  0.00  0.00    -0.379 OA
ATOM     28  H   UNL     1      35.843 -22.932 -12.695  0.00  0.00    +0.211 HD
ENDBRANCH  20  27
BRANCH  23  29
ATOM     29  O   UNL     1      38.199 -22.870 -15.928  0.00  0.00    -0.377 OA
ATOM     30  H   UNL     1      37.911 -22.466 -16.762  0.00  0.00    +0.211 HD
ENDBRANCH  23  29
BRANCH  22  31
ATOM     31  C   UNL     1      33.131 -23.886 -13.693  0.00  0.00    +0.169 C 
BRANCH  31  32
ATOM     32  O   UNL     1      33.135 -25.025 -12.851  0.00  0.00    -0.379 OA
ATOM     33  H   UNL     1      33.138 -24.742 -11.924  0.00  0.00    +0.211 HD
ENDBRANCH  31  32
ENDBRANCH  22  31
ENDBRANCH  18  24
ENDBRANCH   1  18
TORSDOF 10
ENDMDL
MODEL 4
REMARK VINA RESULT:     -11.1      1.728      2.379
REMARK  Name = 445579
REMARK  10 active torsions:
REMARK  status: ('A' for Active; 'I' for Inactive)
REMARK    1  A    between atoms: C_1  and  O_18
REMARK    2  A    between atoms: C_4  and  C_9
REMARK    3  A    between atoms: N_8  and  C_11
REMARK    4  A    between atoms: C_11  and  C_12
REMARK    5  A    between atoms: O_18  and  C_24
REMARK    6  A    between atoms: C_20  and  O_27
REMARK    7  A    between atoms: C_21  and  O_25
REMARK    8  A    between atoms: C_22  and  C_31
REMARK    9  A    between atoms: C_23  and  O_29
REMARK   10  A    between atoms: C_31  and  O_32
REMARK                            x       y       z     vdW  Elec       q    Type
REMARK                         _______ _______ _______ _____ _____    ______ ____
ROOT
ATOM      1  C   UNL     1      33.238 -24.643 -13.854  0.00  0.00    +0.142 C 
ATOM      2  C   UNL     1      33.045 -23.861 -14.989  0.00  0.00    +0.042 C 
ATOM      3  C   UNL     1      32.149 -25.123 -13.133  0.00  0.00    +0.037 C 
ATOM      4  C   UNL     1      31.749 -23.555 -15.406  0.00  0.00    +0.056 C 
ATOM      5  C   UNL     1      30.854 -24.817 -13.551  0.00  0.00    +0.003 C 
ATOM      6  C   UNL     1      30.654 -24.034 -14.687  0.00  0.00    +0.005 C 
ENDROOT
BRANCH   4   9
ATOM      7  O   UNL     1      30.467 -22.161 -16.808  0.00  0.00    -0.270 OA
ATOM      8  N   UNL     1      32.632 -22.619 -17.454  0.00  0.00    -0.297 N 
ATOM      9  C   UNL     1      31.541 -22.739 -16.592  0.00  0.00    +0.246 C 
ATOM     10  H   UNL     1      33.464 -23.100 -17.234  0.00  0.00    +0.150 HD
BRANCH   8  11
ATOM     11  C   UNL     1      32.593 -21.818 -18.656  0.00  0.00    +0.117 C 
BRANCH  11  12
ATOM     12  C   UNL     1      33.962 -21.373 -19.080  0.00  0.00    -0.003 C 
ATOM     13  C   UNL     1      35.084 -21.918 -18.465  0.00  0.00    -0.003 C 
ATOM     14  C   UNL     1      34.096 -20.420 -20.084  0.00  0.00    -0.003 C 
ATOM     15  C   UNL     1      36.357 -21.503 -18.858  0.00  0.00    -0.000 C 
ATOM     16  C   UNL     1      35.369 -20.007 -20.477  0.00  0.00    -0.000 C 
ATOM     17  C   UNL     1      36.499 -20.548 -19.864  0.00  0.00    -0.000 C 
ENDBRANCH  11  12
ENDBRANCH   8  11
ENDBRANCH   4   9
BRANCH   1  18
ATOM     18  O   UNL     1      34.509 -24.942 -13.444  0.00  0.00    -0.451 OA
BRANCH  18  24
ATOM     19  O   UNL     1      36.290 -23.384 -13.416  0.00  0.00    -0.316 OA
ATOM     20  C   UNL     1      37.965 -25.006 -12.685  0.00  0.00    +0.169 C 
ATOM     21  C   UNL     1      37.281 -26.083 -13.532  0.00  0.00    +0.173 C 
ATOM     22  C   UNL     1      36.950 -23.935 -12.266  0.00  0.00    +0.177 C 
ATOM     23  C   UNL     1      36.527 -25.439 -14.695  0.00  0.00    +0.210 C 
ATOM     24  C   UNL     1      35.575 -24.354 -14.187  0.00  0.00    +0.318 C 
BRANCH  21  25
ATOM     25  O   UNL     1      38.253 -26.990 -14.046  0.00  0.00    -0.379 OA
ATOM     26  H   UNL     1      37.840 -27.566 -14.708  0.00  0.00    +0.211 HD
ENDBRANCH  21  25
BRANCH  20  27
ATOM     27  O   UNL     1      39.003 -24.386 -13.447  0.00  0.00    -0.379 OA
ATOM     28  H   UNL     1      38.960 -24.697 -14.365  0.00  0.00    +0.211 HD
ENDBRANCH  20  27
BRANCH  23  29
ATOM     29  O   UNL     1      35.782 -26.422 -15.407  0.00  0.00    -0.377 OA
ATOM     30  H   UNL     1      36.384 -26.953 -15.952  0.00  0.00    +0.211 HD
ENDBRANCH  23  29
BRANCH  22  31
ATOM     31  C   UNL     1      37.602 -22.776 -11.521  0.00  0.00    +0.169 C 
BRANCH  31  32
ATOM     32  O   UNL     1      38.829 -23.224 -10.972  0.00  0.00    -0.379 OA
ATOM     33  H   UNL     1      38.673 -23.596 -10.091  0.00  0.00    +0.211 HD
ENDBRANCH  31  32
ENDBRANCH  22  31
ENDBRANCH  18  24
ENDBRANCH   1  18
TORSDOF 10
ENDMDL
MODEL 5
REMARK VINA RESULT:     -10.9      2.091      3.649
REMARK  Name = 445579
REMARK  10 active torsions:
REMARK  status: ('A' for Active; 'I' for Inactive)
REMARK    1  A    between atoms: C_1  and  O_18
REMARK    2  A    between atoms: C_4  and  C_9
REMARK    3  A    between atoms: N_8  and  C_11
REMARK    4  A    between atoms: C_11  and  C_12
REMARK    5  A    between atoms: O_18  and  C_24
REMARK    6  A    between atoms: C_20  and  O_27
REMARK    7  A    between atoms: C_21  and  O_25
REMARK    8  A    between atoms: C_22  and  C_31
REMARK    9  A    between atoms: C_23  and  O_29
REMARK   10  A    between atoms: C_31  and  O_32
REMARK                            x       y       z     vdW  Elec       q    Type
REMARK                         _______ _______ _______ _____ _____    ______ ____
ROOT
ATOM      1  C   UNL     1      35.028 -22.702 -16.524  0.00  0.00    +0.142 C 
ATOM      2  C   UNL     1      35.857 -21.984 -17.380  0.00  0.00    +0.042 C 
ATOM      3  C   UNL     1      33.733 -23.037 -16.910  0.00  0.00    +0.037 C 
ATOM      4  C   UNL     1      35.386 -21.595 -18.635  0.00  0.00    +0.056 C 
ATOM      5  C   UNL     1      33.264 -22.649 -18.164  0.00  0.00    +0.003 C 
ATOM      6  C   UNL     1      34.089 -21.929 -19.027  0.00  0.00    +0.005 C 
ENDROOT
BRANCH   4   9
ATOM      7  O   UNL     1      37.379 -21.244 -19.842  0.00  0.00    -0.270 OA
ATOM      8  N   UNL     1      35.714 -19.665 -20.055  0.00  0.00    -0.297 N 
ATOM      9  C   UNL     1      36.248 -20.845 -19.534  0.00  0.00    +0.246 C 
ATOM     10  H   UNL     1      34.808 -19.393 -19.778  0.00  0.00    +0.150 HD
BRANCH   8  11
ATOM     11  C   UNL     1      36.434 -18.826 -20.986  0.00  0.00    +0.117 C 
BRANCH  11  12
ATOM     12  C   UNL     1      35.614 -18.500 -22.200  0.00  0.00    -0.003 C 
ATOM     13  C   UNL     1      35.520 -17.182 -22.633  0.00  0.00    -0.003 C 
ATOM     14  C   UNL     1      34.955 -19.519 -22.879  0.00  0.00    -0.003 C 
ATOM     15  C   UNL     1      34.756 -16.879 -23.761  0.00  0.00    -0.000 C 
ATOM     16  C   UNL     1      34.193 -19.216 -24.008  0.00  0.00    -0.000 C 
ATOM     17  C   UNL     1      34.094 -17.896 -24.448  0.00  0.00    -0.000 C 
ENDBRANCH  11  12
ENDBRANCH   8  11
ENDBRANCH   4   9
BRANCH   1  18
ATOM     18  O   UNL     1      35.489 -23.083 -15.293  0.00  0.00    -0.451 OA
BRANCH  18  24
ATOM     19  O   UNL     1      36.254 -25.291 -14.923  0.00  0.00    -0.316 OA
ATOM     20  C   UNL     1      36.871 -24.902 -12.590  0.00  0.00    +0.169 C 
ATOM     21  C   UNL     1      35.665 -23.971 -12.435  0.00  0.00    +0.173 C 
ATOM     22  C   UNL     1      37.337 -24.928 -14.052  0.00  0.00    +0.177 C 
ATOM     23  C   UNL     1      34.575 -24.348 -13.437  0.00  0.00    +0.210 C 
ATOM     24  C   UNL     1      35.141 -24.396 -14.858  0.00  0.00    +0.318 C 
BRANCH  21  25
ATOM     25  O   UNL     1      35.142 -24.068 -11.113  0.00  0.00    -0.379 OA
ATOM     26  H   UNL     1      35.615 -24.762 -10.627  0.00  0.00    +0.211 HD
ENDBRANCH  21  25
BRANCH  20  27
ATOM     27  O   UNL     1      36.507 -26.227 -12.197  0.00  0.00    -0.379 OA
ATOM     28  H   UNL     1      35.705 -26.496 -12.672  0.00  0.00    +0.211 HD
ENDBRANCH  20  27
BRANCH  23  29
ATOM     29  O   UNL     1      33.509 -23.406 -13.387  0.00  0.00    -0.377 OA
ATOM     30  H   UNL     1      33.719 -22.714 -12.739  0.00  0.00    +0.211 HD
ENDBRANCH  23  29
BRANCH  22  31
ATOM     31  C   UNL     1      38.460 -25.932 -14.286  0.00  0.00    +0.169 C 
BRANCH  31  32
ATOM     32  O   UNL     1      37.892 -27.221 -14.431  0.00  0.00    -0.379 OA
ATOM     33  H   UNL     1      37.553 -27.524 -13.575  0.00  0.00    +0.211 HD
ENDBRANCH  31  32
ENDBRANCH  22  31
ENDBRANCH  18  24
ENDBRANCH   1  18
TORSDOF 10
ENDMDL
MODEL 6
REMARK VINA RESULT:     -10.3      7.847     12.981
REMARK  Name = 445579
REMARK  10 active torsions:
REMARK  status: ('A' for Active; 'I' for Inactive)
REMARK    1  A    between atoms: C_1  and  O_18
REMARK    2  A    between atoms: C_4  and  C_9
REMARK    3  A    between atoms: N_8  and  C_11
REMARK    4  A    between atoms: C_11  and  C_12
REMARK    5  A    between atoms: O_18  and  C_24
REMARK    6  A    between atoms: C_20  and  O_27
REMARK    7  A    between atoms: C_21  and  O_25
REMARK    8  A    between atoms: C_22  and  C_31
REMARK    9  A    between atoms: C_23  and  O_29
REMARK   10  A    between atoms: C_31  and  O_32
REMARK                            x       y       z     vdW  Elec       q    Type
REMARK                         _______ _______ _______ _____ _____    ______ ____
ROOT
ATOM      1  C   UNL     1      33.372 -14.280 -23.610  0.00  0.00    +0.142 C 
ATOM      2  C   UNL     1      34.008 -14.924 -22.554  0.00  0.00    +0.042 C 
ATOM      3  C   UNL     1      33.431 -14.807 -24.897  0.00  0.00    +0.037 C 
ATOM      4  C   UNL     1      34.712 -16.106 -22.786  0.00  0.00    +0.056 C 
ATOM      5  C   UNL     1      34.134 -15.989 -25.129  0.00  0.00    +0.003 C 
ATOM      6  C   UNL     1      34.774 -16.639 -24.074  0.00  0.00    +0.005 C 
ENDROOT
BRANCH   4   9
ATOM      7  O   UNL     1      35.347 -16.341 -20.529  0.00  0.00    -0.270 OA
ATOM      8  N   UNL     1      36.026 -17.979 -22.002  0.00  0.00    -0.297 N 
ATOM      9  C   UNL     1      35.378 -16.784 -21.685  0.00  0.00    +0.246 C 
ATOM     10  H   UNL     1      36.020 -18.287 -22.938  0.00  0.00    +0.150 HD
BRANCH   8  11
ATOM     11  C   UNL     1      36.706 -18.784 -21.013  0.00  0.00    +0.117 C 
BRANCH  11  12
ATOM     12  C   UNL     1      35.789 -19.789 -20.379  0.00  0.00    -0.003 C 
ATOM     13  C   UNL     1      34.422 -19.724 -20.625  0.00  0.00    -0.003 C 
ATOM     14  C   UNL     1      36.314 -20.775 -19.550  0.00  0.00    -0.003 C 
ATOM     15  C   UNL     1      33.569 -20.657 -20.035  0.00  0.00    -0.000 C 
ATOM     16  C   UNL     1      35.461 -21.708 -18.962  0.00  0.00    -0.000 C 
ATOM     17  C   UNL     1      34.089 -21.649 -19.204  0.00  0.00    -0.000 C 
ENDBRANCH  11  12
ENDBRANCH   8  11
ENDBRANCH   4   9
BRANCH   1  18
ATOM     18  O   UNL     1      32.682 -13.120 -23.382  0.00  0.00    -0.451 OA
BRANCH  18  24
ATOM     19  O   UNL     1      33.543 -11.013 -22.737  0.00  0.00    -0.316 OA
ATOM     20  C   UNL     1      31.352 -10.027 -22.295  0.00  0.00    +0.169 C 
ATOM     21  C   UNL     1      30.861 -11.376 -21.760  0.00  0.00    +0.173 C 
ATOM     22  C   UNL     1      32.480 -10.237 -23.312  0.00  0.00    +0.177 C 
ATOM     23  C   UNL     1      32.040 -12.195 -21.235  0.00  0.00    +0.210 C 
ATOM     24  C   UNL     1      33.134 -12.311 -22.298  0.00  0.00    +0.318 C 
BRANCH  21  25
ATOM     25  O   UNL     1      29.924 -11.171 -20.707  0.00  0.00    -0.379 OA
ATOM     26  H   UNL     1      29.663 -10.237 -20.682  0.00  0.00    +0.211 HD
ENDBRANCH  21  25
BRANCH  20  27
ATOM     27  O   UNL     1      31.846  -9.235 -21.212  0.00  0.00    -0.379 OA
ATOM     28  H   UNL     1      31.544  -8.319 -21.317  0.00  0.00    +0.211 HD
ENDBRANCH  20  27
BRANCH  23  29
ATOM     29  O   UNL     1      31.608 -13.499 -20.860  0.00  0.00    -0.377 OA
ATOM     30  H   UNL     1      31.050 -13.869 -21.563  0.00  0.00    +0.211 HD
ENDBRANCH  23  29
BRANCH  22  31
ATOM     31  C   UNL     1      33.087  -8.922 -23.786  0.00  0.00    +0.169 C 
BRANCH  31  32
ATOM     32  O   UNL     1      34.088  -8.527 -22.865  0.00  0.00    -0.379 OA
ATOM     33  H   UNL     1      34.893  -8.283 -23.346  0.00  0.00    +0.211 HD
ENDBRANCH  31  32
ENDBRANCH  22  31
ENDBRANCH  18  24
ENDBRANCH   1  18
TORSDOF 10
ENDMDL
MODEL 7
REMARK VINA RESULT:     -10.0      1.945      2.840
REMARK  Name = 445579
REMARK  10 active torsions:
REMARK  status: ('A' for Active; 'I' for Inactive)
REMARK    1  A    between atoms: C_1  and  O_18
REMARK    2  A    between atoms: C_4  and  C_9
REMARK    3  A    between atoms: N_8  and  C_11
REMARK    4  A    between atoms: C_11  and  C_12
REMARK    5  A    between atoms: O_18  and  C_24
REMARK    6  A    between atoms: C_20  and  O_27
REMARK    7  A    between atoms: C_21  and  O_25
REMARK    8  A    between atoms: C_22  and  C_31
REMARK    9  A    between atoms: C_23  and  O_29
REMARK   10  A    between atoms: C_31  and  O_32
REMARK                            x       y       z     vdW  Elec       q    Type
REMARK                         _______ _______ _______ _____ _____    ______ ____
ROOT
ATOM      1  C   UNL     1      34.883 -23.105 -16.114  0.00  0.00    +0.142 C 
ATOM      2  C   UNL     1      35.772 -22.459 -16.968  0.00  0.00    +0.042 C 
ATOM      3  C   UNL     1      33.538 -23.224 -16.454  0.00  0.00    +0.037 C 
ATOM      4  C   UNL     1      35.311 -21.926 -18.173  0.00  0.00    +0.056 C 
ATOM      5  C   UNL     1      33.079 -22.692 -17.658  0.00  0.00    +0.003 C 
ATOM      6  C   UNL     1      33.965 -22.044 -18.518  0.00  0.00    +0.005 C 
ENDROOT
BRANCH   4   9
ATOM      7  O   UNL     1      37.316 -21.760 -19.402  0.00  0.00    -0.270 OA
ATOM      8  N   UNL     1      35.823 -20.011 -19.559  0.00  0.00    -0.297 N 
ATOM      9  C   UNL     1      36.236 -21.251 -19.069  0.00  0.00    +0.246 C 
ATOM     10  H   UNL     1      34.954 -19.652 -19.263  0.00  0.00    +0.150 HD
BRANCH   8  11
ATOM     11  C   UNL     1      36.615 -19.232 -20.483  0.00  0.00    +0.117 C 
BRANCH  11  12
ATOM     12  C   UNL     1      35.821 -18.802 -21.681  0.00  0.00    -0.003 C 
ATOM     13  C   UNL     1      35.091 -19.744 -22.397  0.00  0.00    -0.003 C 
ATOM     14  C   UNL     1      35.822 -17.465 -22.065  0.00  0.00    -0.003 C 
ATOM     15  C   UNL     1      34.353 -19.345 -23.512  0.00  0.00    -0.000 C 
ATOM     16  C   UNL     1      35.083 -17.066 -23.178  0.00  0.00    -0.000 C 
ATOM     17  C   UNL     1      34.349 -18.006 -23.902  0.00  0.00    -0.000 C 
ENDBRANCH  11  12
ENDBRANCH   8  11
ENDBRANCH   4   9
BRANCH   1  18
ATOM     18  O   UNL     1      35.334 -23.626 -14.933  0.00  0.00    -0.451 OA
BRANCH  18  24
ATOM     19  O   UNL     1      37.376 -23.126 -13.848  0.00  0.00    -0.316 OA
ATOM     20  C   UNL     1      37.129 -24.860 -12.144  0.00  0.00    +0.169 C 
ATOM     21  C   UNL     1      36.476 -25.777 -13.182  0.00  0.00    +0.173 C 
ATOM     22  C   UNL     1      36.904 -23.389 -12.517  0.00  0.00    +0.177 C 
ATOM     23  C   UNL     1      36.948 -25.403 -14.587  0.00  0.00    +0.210 C 
ATOM     24  C   UNL     1      36.729 -23.912 -14.852  0.00  0.00    +0.318 C 
BRANCH  21  25
ATOM     25  O   UNL     1      36.816 -27.135 -12.917  0.00  0.00    -0.379 OA
ATOM     26  H   UNL     1      36.163 -27.520 -12.311  0.00  0.00    +0.211 HD
ENDBRANCH  21  25
BRANCH  20  27
ATOM     27  O   UNL     1      38.534 -25.116 -12.097  0.00  0.00    -0.379 OA
ATOM     28  H   UNL     1      38.718 -25.984 -12.490  0.00  0.00    +0.211 HD
ENDBRANCH  20  27
BRANCH  23  29
ATOM     29  O   UNL     1      36.244 -26.163 -15.564  0.00  0.00    -0.377 OA
ATOM     30  H   UNL     1      35.594 -26.733 -15.124  0.00  0.00    +0.211 HD
ENDBRANCH  23  29
BRANCH  22  31
ATOM     31  C   UNL     1      37.636 -22.434 -11.581  0.00  0.00    +0.169 C 
BRANCH  31  32
ATOM     32  O   UNL     1      37.355 -22.807 -10.244  0.00  0.00    -0.379 OA
ATOM     33  H   UNL     1      37.953 -22.335  -9.644  0.00  0.00    +0.211 HD
ENDBRANCH  31  32
ENDBRANCH  22  31
ENDBRANCH  18  24
ENDBRANCH   1  18
TORSDOF 10
ENDMDL
MODEL 8
REMARK VINA RESULT:     -10.0      2.808      5.832
REMARK  Name = 445579
REMARK  10 active torsions:
REMARK  status: ('A' for Active; 'I' for Inactive)
REMARK    1  A    between atoms: C_1  and  O_18
REMARK    2  A    between atoms: C_4  and  C_9
REMARK    3  A    between atoms: N_8  and  C_11
REMARK    4  A    between atoms: C_11  and  C_12
REMARK    5  A    between atoms: O_18  and  C_24
REMARK    6  A    between atoms: C_20  and  O_27
REMARK    7  A    between atoms: C_21  and  O_25
REMARK    8  A    between atoms: C_22  and  C_31
REMARK    9  A    between atoms: C_23  and  O_29
REMARK   10  A    between atoms: C_31  and  O_32
REMARK                            x       y       z     vdW  Elec       q    Type
REMARK                         _______ _______ _______ _____ _____    ______ ____
ROOT
ATOM      1  C   UNL     1      34.231 -24.199 -13.661  0.00  0.00    +0.142 C 
ATOM      2  C   UNL     1      34.859 -23.642 -14.771  0.00  0.00    +0.042 C 
ATOM      3  C   UNL     1      34.868 -24.219 -12.424  0.00  0.00    +0.037 C 
ATOM      4  C   UNL     1      36.138 -23.101 -14.642  0.00  0.00    +0.056 C 
ATOM      5  C   UNL     1      36.147 -23.676 -12.296  0.00  0.00    +0.003 C 
ATOM      6  C   UNL     1      36.782 -23.117 -13.405  0.00  0.00    +0.005 C 
ENDROOT
BRANCH   4   9
ATOM      7  O   UNL     1      38.005 -22.233 -15.790  0.00  0.00    -0.270 OA
ATOM      8  N   UNL     1      36.003 -22.325 -16.929  0.00  0.00    -0.297 N 
ATOM      9  C   UNL     1      36.799 -22.517 -15.799  0.00  0.00    +0.246 C 
ATOM     10  H   UNL     1      35.050 -22.569 -16.883  0.00  0.00    +0.150 HD
BRANCH   8  11
ATOM     11  C   UNL     1      36.521 -21.785 -18.166  0.00  0.00    +0.117 C 
BRANCH  11  12
ATOM     12  C   UNL     1      35.433 -21.216 -19.030  0.00  0.00    -0.003 C 
ATOM     13  C   UNL     1      34.111 -21.584 -18.802  0.00  0.00    -0.003 C 
ATOM     14  C   UNL     1      35.757 -20.327 -20.049  0.00  0.00    -0.003 C 
ATOM     15  C   UNL     1      33.100 -21.056 -19.606  0.00  0.00    -0.000 C 
ATOM     16  C   UNL     1      34.745 -19.799 -20.850  0.00  0.00    -0.000 C 
ATOM     17  C   UNL     1      33.417 -20.163 -20.629  0.00  0.00    -0.000 C 
ENDBRANCH  11  12
ENDBRANCH   8  11
ENDBRANCH   4   9
BRANCH   1  18
ATOM     18  O   UNL     1      32.976 -24.731 -13.786  0.00  0.00    -0.451 OA
BRANCH  18  24
ATOM     19  O   UNL     1      31.524 -22.957 -14.373  0.00  0.00    -0.316 OA
ATOM     20  C   UNL     1      29.799 -24.411 -15.312  0.00  0.00    +0.169 C 
ATOM     21  C   UNL     1      30.100 -25.453 -14.230  0.00  0.00    +0.173 C 
ATOM     22  C   UNL     1      31.043 -23.556 -15.587  0.00  0.00    +0.177 C 
ATOM     23  C   UNL     1      30.685 -24.774 -12.992  0.00  0.00    +0.210 C 
ATOM     24  C   UNL     1      31.888 -23.908 -13.369  0.00  0.00    +0.318 C 
BRANCH  21  25
ATOM     25  O   UNL     1      28.905 -26.140 -13.870  0.00  0.00    -0.379 OA
ATOM     26  H   UNL     1      28.731 -26.847 -14.512  0.00  0.00    +0.211 HD
ENDBRANCH  21  25
BRANCH  20  27
ATOM     27  O   UNL     1      28.739 -23.558 -14.872  0.00  0.00    -0.379 OA
ATOM     28  H   UNL     1      29.112 -22.739 -14.512  0.00  0.00    +0.211 HD
ENDBRANCH  20  27
BRANCH  23  29
ATOM     29  O   UNL     1      31.089 -25.751 -12.038  0.00  0.00    -0.377 OA
ATOM     30  H   UNL     1      30.719 -26.614 -12.282  0.00  0.00    +0.211 HD
ENDBRANCH  23  29
BRANCH  22  31
ATOM     31  C   UNL     1      30.764 -22.424 -16.569  0.00  0.00    +0.169 C 
BRANCH  31  32
ATOM     32  O   UNL     1      29.374 -22.392 -16.840  0.00  0.00    -0.379 OA
ATOM     33  H   UNL     1      29.229 -22.090 -17.750  0.00  0.00    +0.211 HD
ENDBRANCH  31  32
ENDBRANCH  22  31
ENDBRANCH  18  24
ENDBRANCH   1  18
TORSDOF 10
ENDMDL
MODEL 9
REMARK VINA RESULT:      -9.9      1.513      3.044
REMARK  Name = 445579
REMARK  10 active torsions:
REMARK  status: ('A' for Active; 'I' for Inactive)
REMARK    1  A    between atoms: C_1  and  O_18
REMARK    2  A    between atoms: C_4  and  C_9
REMARK    3  A    between atoms: N_8  and  C_11
REMARK    4  A    between atoms: C_11  and  C_12
REMARK    5  A    between atoms: O_18  and  C_24
REMARK    6  A    between atoms: C_20  and  O_27
REMARK    7  A    between atoms: C_21  and  O_25
REMARK    8  A    between atoms: C_22  and  C_31
REMARK    9  A    between atoms: C_23  and  O_29
REMARK   10  A    between atoms: C_31  and  O_32
REMARK                            x       y       z     vdW  Elec       q    Type
REMARK                         _______ _______ _______ _____ _____    ______ ____
ROOT
ATOM      1  C   UNL     1      33.307 -24.058 -13.635  0.00  0.00    +0.142 C 
ATOM      2  C   UNL     1      33.044 -23.316 -14.783  0.00  0.00    +0.042 C 
ATOM      3  C   UNL     1      32.343 -24.915 -13.112  0.00  0.00    +0.037 C 
ATOM      4  C   UNL     1      31.804 -23.430 -15.412  0.00  0.00    +0.056 C 
ATOM      5  C   UNL     1      31.104 -25.029 -13.742  0.00  0.00    +0.003 C 
ATOM      6  C   UNL     1      30.834 -24.287 -14.892  0.00  0.00    +0.005 C 
ENDROOT
BRANCH   4   9
ATOM      7  O   UNL     1      30.415 -22.144 -16.816  0.00  0.00    -0.270 OA
ATOM      8  N   UNL     1      32.587 -22.498 -17.502  0.00  0.00    -0.297 N 
ATOM      9  C   UNL     1      31.524 -22.656 -16.611  0.00  0.00    +0.246 C 
ATOM     10  H   UNL     1      33.449 -22.926 -17.291  0.00  0.00    +0.150 HD
BRANCH   8  11
ATOM     11  C   UNL     1      32.476 -21.731 -18.722  0.00  0.00    +0.117 C 
BRANCH  11  12
ATOM     12  C   UNL     1      33.813 -21.250 -19.207  0.00  0.00    -0.003 C 
ATOM     13  C   UNL     1      34.974 -21.835 -18.715  0.00  0.00    -0.003 C 
ATOM     14  C   UNL     1      33.877 -20.224 -20.144  0.00  0.00    -0.003 C 
ATOM     15  C   UNL     1      36.217 -21.388 -19.165  0.00  0.00    -0.000 C 
ATOM     16  C   UNL     1      35.119 -19.779 -20.595  0.00  0.00    -0.000 C 
ATOM     17  C   UNL     1      36.289 -20.360 -20.105  0.00  0.00    -0.000 C 
ENDBRANCH  11  12
ENDBRANCH   8  11
ENDBRANCH   4   9
BRANCH   1  18
ATOM     18  O   UNL     1      34.523 -23.946 -13.018  0.00  0.00    -0.451 OA
BRANCH  18  24
ATOM     19  O   UNL     1      36.255 -25.200 -14.031  0.00  0.00    -0.316 OA
ATOM     20  C   UNL     1      38.042 -24.170 -12.721  0.00  0.00    +0.169 C 
ATOM     21  C   UNL     1      37.109 -24.111 -11.508  0.00  0.00    +0.173 C 
ATOM     22  C   UNL     1      37.228 -24.144 -14.021  0.00  0.00    +0.177 C 
ATOM     23  C   UNL     1      36.044 -25.204 -11.608  0.00  0.00    +0.210 C 
ATOM     24  C   UNL     1      35.318 -25.129 -12.953  0.00  0.00    +0.318 C 
BRANCH  21  25
ATOM     25  O   UNL     1      37.856 -24.291 -10.309  0.00  0.00    -0.379 OA
ATOM     26  H   UNL     1      37.248 -24.417  -9.564  0.00  0.00    +0.211 HD
ENDBRANCH  21  25
BRANCH  20  27
ATOM     27  O   UNL     1      38.806 -25.378 -12.678  0.00  0.00    -0.379 OA
ATOM     28  H   UNL     1      38.474 -25.945 -11.964  0.00  0.00    +0.211 HD
ENDBRANCH  20  27
BRANCH  23  29
ATOM     29  O   UNL     1      35.097 -25.069 -10.554  0.00  0.00    -0.377 OA
ATOM     30  H   UNL     1      35.490 -25.381  -9.724  0.00  0.00    +0.211 HD
ENDBRANCH  23  29
BRANCH  22  31
ATOM     31  C   UNL     1      38.101 -24.322 -15.258  0.00  0.00    +0.169 C 
BRANCH  31  32
ATOM     32  O   UNL     1      39.438 -24.003 -14.917  0.00  0.00    -0.379 OA
ATOM     33  H   UNL     1      39.588 -23.054 -15.047  0.00  0.00    +0.211 HD
ENDBRANCH  31  32
ENDBRANCH  22  31
ENDBRANCH  18  24
ENDBRANCH   1  18
TORSDOF 10
ENDMDL
