MODEL 1
REMARK VINA RESULT:     -11.9      0.000      0.000
REMARK  Name = 56842109
REMARK  7 active torsions:
REMARK  status: ('A' for Active; 'I' for Inactive)
REMARK    1  A    between atoms: C_1  and  C_24
REMARK    2  A    between atoms: C_3  and  C_9
REMARK    3  A    between atoms: C_5  and  O_22
REMARK    4  A    between atoms: N_8  and  C_11
REMARK    5  A    between atoms: C_11  and  C_12
REMARK    6  A    between atoms: C_15  and  C_21
REMARK    7  A    between atoms: C_24  and  C_29
REMARK                            x       y       z     vdW  Elec       q    Type
REMARK                         _______ _______ _______ _____ _____    ______ ____
ROOT
ATOM      1  C   UNL     1      35.583 -23.615 -13.776  0.00  0.00    -0.018 C 
ATOM      2  C   UNL     1      34.894 -23.240 -14.930  0.00  0.00    +0.003 C 
ATOM      3  C   UNL     1      33.508 -23.385 -14.993  0.00  0.00    +0.087 C 
ATOM      4  C   UNL     1      34.885 -24.133 -12.686  0.00  0.00    -0.001 C 
ATOM      5  C   UNL     1      32.810 -23.903 -13.903  0.00  0.00    +0.143 C 
ATOM      6  C   UNL     1      33.499 -24.277 -12.749  0.00  0.00    +0.037 C 
ENDROOT
BRANCH   3   9
ATOM      7  O   UNL     1      31.591 -22.742 -16.180  0.00  0.00    -0.270 OA
ATOM      8  N   UNL     1      33.575 -22.872 -17.372  0.00  0.00    -0.297 N 
ATOM      9  C   UNL     1      32.809 -22.985 -16.207  0.00  0.00    +0.249 C 
ATOM     10  H   UNL     1      34.536 -23.082 -17.321  0.00  0.00    +0.150 HD
BRANCH   8  11
ATOM     11  C   UNL     1      33.031 -22.465 -18.648  0.00  0.00    +0.117 C 
BRANCH  11  12
ATOM     12  C   UNL     1      33.913 -21.469 -19.342  0.00  0.00    -0.003 C 
ATOM     13  C   UNL     1      35.296 -21.519 -19.165  0.00  0.00    -0.003 C 
ATOM     14  C   UNL     1      33.351 -20.493 -20.165  0.00  0.00    -0.003 C 
ATOM     15  C   UNL     1      35.554 -19.619 -20.633  0.00  0.00    +0.071 C 
ATOM     16  C   UNL     1      36.117 -20.594 -19.810  0.00  0.00    +0.004 C 
ATOM     17  C   UNL     1      34.171 -19.568 -20.810  0.00  0.00    +0.004 C 
BRANCH  15  21
ATOM     18  F   UNL     1      36.101 -17.339 -21.032  0.00  0.00    -0.166 F 
ATOM     19  F   UNL     1      37.753 -18.753 -21.003  0.00  0.00    -0.166 F 
ATOM     20  F   UNL     1      36.388 -18.720 -22.687  0.00  0.00    -0.166 F 
ATOM     21  C   UNL     1      36.431 -18.631 -21.325  0.00  0.00    +0.419 C 
ENDBRANCH  15  21
ENDBRANCH  11  12
ENDBRANCH   8  11
ENDBRANCH   3   9
BRANCH   5  22
ATOM     22  O   UNL     1      31.456 -24.048 -13.944  0.00  0.00    -0.471 OA
ATOM     23  C   UNL     1      30.885 -25.034 -13.087  0.00  0.00    +0.252 C 
ENDBRANCH   5  22
BRANCH   1  24
ATOM     24  C   UNL     1      37.082 -23.458 -13.708  0.00  0.00    +0.080 C 
BRANCH  24  29
ATOM     25  O   UNL     1      39.177 -24.523 -13.151  0.00  0.00    -0.428 OA
ATOM     26  O   UNL     1      36.758 -26.193 -15.036  0.00  0.00    -0.271 OA
ATOM     27  O   UNL     1      41.128 -25.255 -14.091  0.00  0.00    -0.226 OA
ATOM     28  N   UNL     1      39.060 -25.971 -14.831  0.00  0.00    -0.218 N 
ATOM     29  C   UNL     1      37.775 -24.759 -13.362  0.00  0.00    +0.250 C 
ATOM     30  C   UNL     1      37.758 -25.731 -14.509  0.00  0.00    +0.271 C 
ATOM     31  C   UNL     1      39.906 -25.260 -14.042  0.00  0.00    +0.408 C 
ATOM     32  H   UNL     1      39.351 -26.582 -15.546  0.00  0.00    +0.161 HD
ENDBRANCH  24  29
ENDBRANCH   1  24
TORSDOF 7
ENDMDL
MODEL 2
REMARK VINA RESULT:     -11.8      7.666     12.317
REMARK  Name = 56842109
REMARK  7 active torsions:
REMARK  status: ('A' for Active; 'I' for Inactive)
REMARK    1  A    between atoms: C_1  and  C_24
REMARK    2  A    between atoms: C_3  and  C_9
REMARK    3  A    between atoms: C_5  and  O_22
REMARK    4  A    between atoms: N_8  and  C_11
REMARK    5  A    between atoms: C_11  and  C_12
REMARK    6  A    between atoms: C_15  and  C_21
REMARK    7  A    between atoms: C_24  and  C_29
REMARK                            x       y       z     vdW  Elec       q    Type
REMARK                         _______ _______ _______ _____ _____    ______ ____
ROOT
ATOM      1  C   UNL     1      33.417 -13.675 -23.088  0.00  0.00    -0.018 C 
ATOM      2  C   UNL     1      34.161 -14.471 -22.217  0.00  0.00    +0.003 C 
ATOM      3  C   UNL     1      34.636 -15.712 -22.640  0.00  0.00    +0.087 C 
ATOM      4  C   UNL     1      33.150 -14.120 -24.382  0.00  0.00    -0.001 C 
ATOM      5  C   UNL     1      34.369 -16.158 -23.934  0.00  0.00    +0.143 C 
ATOM      6  C   UNL     1      33.625 -15.362 -24.805  0.00  0.00    +0.037 C 
ENDROOT
BRANCH   3   9
ATOM      7  O   UNL     1      35.344 -16.325 -20.490  0.00  0.00    -0.270 OA
ATOM      8  N   UNL     1      36.202 -17.539 -22.269  0.00  0.00    -0.297 N 
ATOM      9  C   UNL     1      35.412 -16.527 -21.714  0.00  0.00    +0.249 C 
ATOM     10  H   UNL     1      36.208 -17.641 -23.249  0.00  0.00    +0.150 HD
BRANCH   8  11
ATOM     11  C   UNL     1      37.009 -18.443 -21.482  0.00  0.00    +0.117 C 
BRANCH  11  12
ATOM     12  C   UNL     1      36.170 -19.427 -20.720  0.00  0.00    -0.003 C 
ATOM     13  C   UNL     1      36.758 -20.247 -19.757  0.00  0.00    -0.003 C 
ATOM     14  C   UNL     1      34.802 -19.524 -20.975  0.00  0.00    -0.003 C 
ATOM     15  C   UNL     1      34.612 -21.257 -19.303  0.00  0.00    +0.071 C 
ATOM     16  C   UNL     1      35.980 -21.162 -19.048  0.00  0.00    +0.004 C 
ATOM     17  C   UNL     1      34.023 -20.438 -20.268  0.00  0.00    +0.004 C 
BRANCH  15  21
ATOM     18  F   UNL     1      32.469 -21.855 -18.465  0.00  0.00    -0.166 F 
ATOM     19  F   UNL     1      33.766 -23.485 -19.092  0.00  0.00    -0.166 F 
ATOM     20  F   UNL     1      34.187 -22.414 -17.254  0.00  0.00    -0.166 F 
ATOM     21  C   UNL     1      33.779 -22.233 -18.544  0.00  0.00    +0.419 C 
ENDBRANCH  15  21
ENDBRANCH  11  12
ENDBRANCH   8  11
ENDBRANCH   3   9
BRANCH   5  22
ATOM     22  O   UNL     1      34.827 -17.366 -24.366  0.00  0.00    -0.471 OA
ATOM     23  C   UNL     1      33.859 -18.397 -24.551  0.00  0.00    +0.252 C 
ENDBRANCH   5  22
BRANCH   1  24
ATOM     24  C   UNL     1      32.904 -12.332 -22.631  0.00  0.00    +0.080 C 
BRANCH  24  29
ATOM     25  O   UNL     1      34.482 -10.956 -23.836  0.00  0.00    -0.428 OA
ATOM     26  O   UNL     1      31.307  -9.754 -23.017  0.00  0.00    -0.271 OA
ATOM     27  O   UNL     1      35.790  -9.095 -23.605  0.00  0.00    -0.226 OA
ATOM     28  N   UNL     1      33.510  -9.052 -23.234  0.00  0.00    -0.218 N 
ATOM     29  C   UNL     1      33.085 -11.263 -23.688  0.00  0.00    +0.250 C 
ATOM     30  C   UNL     1      32.485  -9.950 -23.273  0.00  0.00    +0.271 C 
ATOM     31  C   UNL     1      34.693  -9.634 -23.558  0.00  0.00    +0.408 C 
ATOM     32  H   UNL     1      33.406  -8.101 -23.000  0.00  0.00    +0.161 HD
ENDBRANCH  24  29
ENDBRANCH   1  24
TORSDOF 7
ENDMDL
MODEL 3
REMARK VINA RESULT:     -11.4      5.451      9.446
REMARK  Name = 56842109
REMARK  7 active torsions:
REMARK  status: ('A' for Active; 'I' for Inactive)
REMARK    1  A    between atoms: C_1  and  C_24
REMARK    2  A    between atoms: C_3  and  C_9
REMARK    3  A    between atoms: C_5  and  O_22
REMARK    4  A    between atoms: N_8  and  C_11
REMARK    5  A    between atoms: C_11  and  C_12
REMARK    6  A    between atoms: C_15  and  C_21
REMARK    7  A    between atoms: C_24  and  C_29
REMARK                            x       y       z     vdW  Elec       q    Type
REMARK                         _______ _______ _______ _____ _____    ______ ____
ROOT
ATOM      1  C   UNL     1      34.901 -19.963 -20.716  0.00  0.00    -0.018 C 
ATOM      2  C   UNL     1      34.235 -20.988 -20.044  0.00  0.00    +0.003 C 
ATOM      3  C   UNL     1      34.887 -21.701 -19.038  0.00  0.00    +0.087 C 
ATOM      4  C   UNL     1      36.219 -19.652 -20.383  0.00  0.00    -0.001 C 
ATOM      5  C   UNL     1      36.205 -21.390 -18.704  0.00  0.00    +0.143 C 
ATOM      6  C   UNL     1      36.871 -20.365 -19.377  0.00  0.00    +0.037 C 
ENDROOT
BRANCH   3   9
ATOM      7  O   UNL     1      33.821 -23.788 -18.961  0.00  0.00    -0.270 OA
ATOM      8  N   UNL     1      33.932 -22.586 -16.981  0.00  0.00    -0.297 N 
ATOM      9  C   UNL     1      34.172 -22.766 -18.347  0.00  0.00    +0.249 C 
ATOM     10  H   UNL     1      34.239 -21.750 -16.560  0.00  0.00    +0.150 HD
BRANCH   8  11
ATOM     11  C   UNL     1      33.257 -23.560 -16.155  0.00  0.00    +0.117 C 
BRANCH  11  12
ATOM     12  C   UNL     1      34.063 -23.926 -14.944  0.00  0.00    -0.003 C 
ATOM     13  C   UNL     1      35.413 -24.252 -15.078  0.00  0.00    -0.003 C 
ATOM     14  C   UNL     1      33.465 -23.941 -13.684  0.00  0.00    -0.003 C 
ATOM     15  C   UNL     1      35.566 -24.606 -12.694  0.00  0.00    +0.071 C 
ATOM     16  C   UNL     1      36.165 -24.592 -13.953  0.00  0.00    +0.004 C 
ATOM     17  C   UNL     1      34.216 -24.281 -12.559  0.00  0.00    +0.004 C 
BRANCH  15  21
ATOM     18  F   UNL     1      37.378 -24.080 -11.247  0.00  0.00    -0.166 F 
ATOM     19  F   UNL     1      35.637 -25.013 -10.337  0.00  0.00    -0.166 F 
ATOM     20  F   UNL     1      36.970 -26.190 -11.580  0.00  0.00    -0.166 F 
ATOM     21  C   UNL     1      36.369 -24.967 -11.490  0.00  0.00    +0.419 C 
ENDBRANCH  15  21
ENDBRANCH  11  12
ENDBRANCH   8  11
ENDBRANCH   3   9
BRANCH   5  22
ATOM     22  O   UNL     1      36.858 -22.074 -17.723  0.00  0.00    -0.471 OA
ATOM     23  C   UNL     1      37.212 -21.342 -16.550  0.00  0.00    +0.252 C 
ENDBRANCH   5  22
BRANCH   1  24
ATOM     24  C   UNL     1      34.195 -19.191 -21.803  0.00  0.00    +0.080 C 
BRANCH  24  29
ATOM     25  O   UNL     1      35.439 -17.130 -22.000  0.00  0.00    -0.428 OA
ATOM     26  O   UNL     1      34.145 -18.724 -24.824  0.00  0.00    -0.271 OA
ATOM     27  O   UNL     1      35.187 -14.919 -22.521  0.00  0.00    -0.226 OA
ATOM     28  N   UNL     1      34.549 -16.605 -23.966  0.00  0.00    -0.218 N 
ATOM     29  C   UNL     1      35.160 -18.384 -22.646  0.00  0.00    +0.250 C 
ATOM     30  C   UNL     1      34.554 -17.968 -23.957  0.00  0.00    +0.271 C 
ATOM     31  C   UNL     1      35.064 -16.099 -22.816  0.00  0.00    +0.408 C 
ATOM     32  H   UNL     1      34.216 -16.056 -24.712  0.00  0.00    +0.161 HD
ENDBRANCH  24  29
ENDBRANCH   1  24
TORSDOF 7
ENDMDL
MODEL 4
REMARK VINA RESULT:     -11.4      7.330     10.808
REMARK  Name = 56842109
REMARK  7 active torsions:
REMARK  status: ('A' for Active; 'I' for Inactive)
REMARK    1  A    between atoms: C_1  and  C_24
REMARK    2  A    between atoms: C_3  and  C_9
REMARK    3  A    between atoms: C_5  and  O_22
REMARK    4  A    between atoms: N_8  and  C_11
REMARK    5  A    between atoms: C_11  and  C_12
REMARK    6  A    between atoms: C_15  and  C_21
REMARK    7  A    between atoms: C_24  and  C_29
REMARK                            x       y       z     vdW  Elec       q    Type
REMARK                         _______ _______ _______ _____ _____    ______ ____
ROOT
ATOM      1  C   UNL     1      35.598 -17.743 -21.644  0.00  0.00    -0.018 C 
ATOM      2  C   UNL     1      35.151 -16.603 -20.977  0.00  0.00    +0.003 C 
ATOM      3  C   UNL     1      34.587 -15.549 -21.697  0.00  0.00    +0.087 C 
ATOM      4  C   UNL     1      35.481 -17.830 -23.030  0.00  0.00    -0.001 C 
ATOM      5  C   UNL     1      34.470 -15.636 -23.084  0.00  0.00    +0.143 C 
ATOM      6  C   UNL     1      34.917 -16.777 -23.751  0.00  0.00    +0.037 C 
ENDROOT
BRANCH   3   9
ATOM      7  O   UNL     1      34.902 -13.733 -20.249  0.00  0.00    -0.270 OA
ATOM      8  N   UNL     1      32.793 -13.988 -21.179  0.00  0.00    -0.297 N 
ATOM      9  C   UNL     1      34.124 -14.368 -20.981  0.00  0.00    +0.249 C 
ATOM     10  H   UNL     1      32.234 -14.539 -21.773  0.00  0.00    +0.150 HD
BRANCH   8  11
ATOM     11  C   UNL     1      32.194 -12.829 -20.557  0.00  0.00    +0.117 C 
BRANCH  11  12
ATOM     12  C   UNL     1      32.117 -11.663 -21.499  0.00  0.00    -0.003 C 
ATOM     13  C   UNL     1      32.761 -11.721 -22.735  0.00  0.00    -0.003 C 
ATOM     14  C   UNL     1      31.400 -10.521 -21.141  0.00  0.00    -0.003 C 
ATOM     15  C   UNL     1      31.973  -9.498 -23.253  0.00  0.00    +0.071 C 
ATOM     16  C   UNL     1      32.690 -10.639 -23.612  0.00  0.00    +0.004 C 
ATOM     17  C   UNL     1      31.329  -9.439 -22.017  0.00  0.00    +0.004 C 
BRANCH  15  21
ATOM     18  F   UNL     1      30.769  -7.590 -24.004  0.00  0.00    -0.166 F 
ATOM     19  F   UNL     1      32.940  -7.469 -24.075  0.00  0.00    -0.166 F 
ATOM     20  F   UNL     1      31.878  -8.704 -25.507  0.00  0.00    -0.166 F 
ATOM     21  C   UNL     1      31.894  -8.341 -24.191  0.00  0.00    +0.419 C 
ENDBRANCH  15  21
ENDBRANCH  11  12
ENDBRANCH   8  11
ENDBRANCH   3   9
BRANCH   5  22
ATOM     22  O   UNL     1      33.919 -14.619 -23.805  0.00  0.00    -0.471 OA
ATOM     23  C   UNL     1      33.429 -14.940 -25.105  0.00  0.00    +0.252 C 
ENDBRANCH   5  22
BRANCH   1  24
ATOM     24  C   UNL     1      36.207 -18.882 -20.864  0.00  0.00    +0.080 C 
BRANCH  24  29
ATOM     25  O   UNL     1      33.991 -19.842 -20.901  0.00  0.00    -0.428 OA
ATOM     26  O   UNL     1      36.676 -21.574 -19.494  0.00  0.00    -0.271 OA
ATOM     27  O   UNL     1      32.257 -20.418 -19.528  0.00  0.00    -0.226 OA
ATOM     28  N   UNL     1      34.399 -21.224 -19.211  0.00  0.00    -0.218 N 
ATOM     29  C   UNL     1      35.392 -20.153 -20.984  0.00  0.00    +0.250 C 
ATOM     30  C   UNL     1      35.610 -21.076 -19.818  0.00  0.00    +0.271 C 
ATOM     31  C   UNL     1      33.437 -20.498 -19.837  0.00  0.00    +0.408 C 
ATOM     32  H   UNL     1      34.240 -21.788 -18.419  0.00  0.00    +0.161 HD
ENDBRANCH  24  29
ENDBRANCH   1  24
TORSDOF 7
ENDMDL
MODEL 5
REMARK VINA RESULT:     -11.3      2.350      5.908
REMARK  Name = 56842109
REMARK  7 active torsions:
REMARK  status: ('A' for Active; 'I' for Inactive)
REMARK    1  A    between atoms: C_1  and  C_24
REMARK    2  A    between atoms: C_3  and  C_9
REMARK    3  A    between atoms: C_5  and  O_22
REMARK    4  A    between atoms: N_8  and  C_11
REMARK    5  A    between atoms: C_11  and  C_12
REMARK    6  A    between atoms: C_15  and  C_21
REMARK    7  A    between atoms: C_24  and  C_29
REMARK                            x       y       z     vdW  Elec       q    Type
REMARK                         _______ _______ _______ _____ _____    ______ ____
ROOT
ATOM      1  C   UNL     1      32.305 -23.319 -14.341  0.00  0.00    -0.018 C 
ATOM      2  C   UNL     1      33.424 -22.739 -14.939  0.00  0.00    +0.003 C 
ATOM      3  C   UNL     1      34.682 -23.318 -14.772  0.00  0.00    +0.087 C 
ATOM      4  C   UNL     1      32.445 -24.477 -13.577  0.00  0.00    -0.001 C 
ATOM      5  C   UNL     1      34.822 -24.476 -14.008  0.00  0.00    +0.143 C 
ATOM      6  C   UNL     1      33.703 -25.056 -13.410  0.00  0.00    +0.037 C 
ENDROOT
BRANCH   3   9
ATOM      7  O   UNL     1      36.879 -22.500 -14.760  0.00  0.00    -0.270 OA
ATOM      8  N   UNL     1      35.715 -22.366 -16.761  0.00  0.00    -0.297 N 
ATOM      9  C   UNL     1      35.837 -22.697 -15.407  0.00  0.00    +0.249 C 
ATOM     10  H   UNL     1      34.859 -22.551 -17.210  0.00  0.00    +0.150 HD
BRANCH   8  11
ATOM     11  C   UNL     1      36.778 -21.767 -17.534  0.00  0.00    +0.117 C 
BRANCH  11  12
ATOM     12  C   UNL     1      36.261 -21.083 -18.766  0.00  0.00    -0.003 C 
ATOM     13  C   UNL     1      37.084 -20.208 -19.475  0.00  0.00    -0.003 C 
ATOM     14  C   UNL     1      34.958 -21.322 -19.202  0.00  0.00    -0.003 C 
ATOM     15  C   UNL     1      35.302 -19.812 -21.056  0.00  0.00    +0.071 C 
ATOM     16  C   UNL     1      36.605 -19.572 -20.621  0.00  0.00    +0.004 C 
ATOM     17  C   UNL     1      34.478 -20.686 -20.347  0.00  0.00    +0.004 C 
BRANCH  15  21
ATOM     18  F   UNL     1      35.465 -19.506 -23.409  0.00  0.00    -0.166 F 
ATOM     19  F   UNL     1      33.474 -19.395 -22.543  0.00  0.00    -0.166 F 
ATOM     20  F   UNL     1      34.880 -17.773 -22.234  0.00  0.00    -0.166 F 
ATOM     21  C   UNL     1      34.790 -19.135 -22.282  0.00  0.00    +0.419 C 
ENDBRANCH  15  21
ENDBRANCH  11  12
ENDBRANCH   8  11
ENDBRANCH   3   9
BRANCH   5  22
ATOM     22  O   UNL     1      36.043 -25.058 -13.836  0.00  0.00    -0.471 OA
ATOM     23  C   UNL     1      36.335 -26.198 -14.641  0.00  0.00    +0.252 C 
ENDBRANCH   5  22
BRANCH   1  24
ATOM     24  C   UNL     1      30.944 -22.694 -14.522  0.00  0.00    +0.080 C 
BRANCH  24  29
ATOM     25  O   UNL     1      29.504 -22.372 -16.434  0.00  0.00    -0.428 OA
ATOM     26  O   UNL     1      29.095 -25.120 -14.318  0.00  0.00    -0.271 OA
ATOM     27  O   UNL     1      27.349 -21.857 -16.997  0.00  0.00    -0.226 OA
ATOM     28  N   UNL     1      27.868 -23.623 -15.601  0.00  0.00    -0.218 N 
ATOM     29  C   UNL     1      30.151 -23.367 -15.623  0.00  0.00    +0.250 C 
ATOM     30  C   UNL     1      29.003 -24.171 -15.081  0.00  0.00    +0.271 C 
ATOM     31  C   UNL     1      28.150 -22.559 -16.396  0.00  0.00    +0.408 C 
ATOM     32  H   UNL     1      26.959 -23.957 -15.423  0.00  0.00    +0.161 HD
ENDBRANCH  24  29
ENDBRANCH   1  24
TORSDOF 7
ENDMDL
MODEL 6
REMARK VINA RESULT:     -11.1     10.439     14.875
REMARK  Name = 56842109
REMARK  7 active torsions:
REMARK  status: ('A' for Active; 'I' for Inactive)
REMARK    1  A    between atoms: C_1  and  C_24
REMARK    2  A    between atoms: C_3  and  C_9
REMARK    3  A    between atoms: C_5  and  O_22
REMARK    4  A    between atoms: N_8  and  C_11
REMARK    5  A    between atoms: C_11  and  C_12
REMARK    6  A    between atoms: C_15  and  C_21
REMARK    7  A    between atoms: C_24  and  C_29
REMARK                            x       y       z     vdW  Elec       q    Type
REMARK                         _______ _______ _______ _____ _____    ______ ____
ROOT
ATOM      1  C   UNL     1      31.876  -9.141 -22.445  0.00  0.00    -0.018 C 
ATOM      2  C   UNL     1      32.613  -9.999 -23.262  0.00  0.00    +0.003 C 
ATOM      3  C   UNL     1      32.665 -11.363 -22.975  0.00  0.00    +0.087 C 
ATOM      4  C   UNL     1      31.190  -9.649 -21.342  0.00  0.00    -0.001 C 
ATOM      5  C   UNL     1      31.979 -11.870 -21.872  0.00  0.00    +0.143 C 
ATOM      6  C   UNL     1      31.242 -11.013 -21.055  0.00  0.00    +0.037 C 
ENDROOT
BRANCH   3   9
ATOM      7  O   UNL     1      34.591 -11.927 -24.187  0.00  0.00    -0.270 OA
ATOM      8  N   UNL     1      32.832 -13.438 -24.237  0.00  0.00    -0.297 N 
ATOM      9  C   UNL     1      33.439 -12.241 -23.843  0.00  0.00    +0.249 C 
ATOM     10  H   UNL     1      31.916 -13.621 -23.927  0.00  0.00    +0.150 HD
BRANCH   8  11
ATOM     11  C   UNL     1      33.479 -14.421 -25.076  0.00  0.00    +0.117 C 
BRANCH  11  12
ATOM     12  C   UNL     1      34.073 -15.542 -24.273  0.00  0.00    -0.003 C 
ATOM     13  C   UNL     1      34.013 -16.850 -24.753  0.00  0.00    -0.003 C 
ATOM     14  C   UNL     1      34.684 -15.276 -23.048  0.00  0.00    -0.003 C 
ATOM     15  C   UNL     1      35.176 -17.626 -22.784  0.00  0.00    +0.071 C 
ATOM     16  C   UNL     1      34.564 -17.893 -24.008  0.00  0.00    +0.004 C 
ATOM     17  C   UNL     1      35.235 -16.318 -22.303  0.00  0.00    +0.004 C 
BRANCH  15  21
ATOM     18  F   UNL     1      37.133 -18.709 -21.976  0.00  0.00    -0.166 F 
ATOM     19  F   UNL     1      35.391 -18.736 -20.675  0.00  0.00    -0.166 F 
ATOM     20  F   UNL     1      35.434 -19.981 -22.450  0.00  0.00    -0.166 F 
ATOM     21  C   UNL     1      35.768 -18.740 -21.988  0.00  0.00    +0.419 C 
ENDBRANCH  15  21
ENDBRANCH  11  12
ENDBRANCH   8  11
ENDBRANCH   3   9
BRANCH   5  22
ATOM     22  O   UNL     1      32.014 -13.201 -21.578  0.00  0.00    -0.471 OA
ATOM     23  C   UNL     1      32.375 -13.559 -20.245  0.00  0.00    +0.252 C 
ENDBRANCH   5  22
BRANCH   1  24
ATOM     24  C   UNL     1      31.820  -7.666 -22.756  0.00  0.00    +0.080 C 
BRANCH  24  29
ATOM     25  O   UNL     1      30.346  -5.850 -22.155  0.00  0.00    -0.428 OA
ATOM     26  O   UNL     1      33.192  -6.556 -20.259  0.00  0.00    -0.271 OA
ATOM     27  O   UNL     1      30.247  -3.567 -22.067  0.00  0.00    -0.226 OA
ATOM     28  N   UNL     1      31.903  -4.771 -20.995  0.00  0.00    -0.218 N 
ATOM     29  C   UNL     1      31.209  -6.869 -21.623  0.00  0.00    +0.250 C 
ATOM     30  C   UNL     1      32.241  -6.085 -20.862  0.00  0.00    +0.271 C 
ATOM     31  C   UNL     1      30.791  -4.619 -21.760  0.00  0.00    +0.408 C 
ATOM     32  H   UNL     1      32.402  -4.026 -20.588  0.00  0.00    +0.161 HD
ENDBRANCH  24  29
ENDBRANCH   1  24
TORSDOF 7
ENDMDL
MODEL 7
REMARK VINA RESULT:     -11.1      9.441     13.895
REMARK  Name = 56842109
REMARK  7 active torsions:
REMARK  status: ('A' for Active; 'I' for Inactive)
REMARK    1  A    between atoms: C_1  and  C_24
REMARK    2  A    between atoms: C_3  and  C_9
REMARK    3  A    between atoms: C_5  and  O_22
REMARK    4  A    between atoms: N_8  and  C_11
REMARK    5  A    between atoms: C_11  and  C_12
REMARK    6  A    between atoms: C_15  and  C_21
REMARK    7  A    between atoms: C_24  and  C_29
REMARK                            x       y       z     vdW  Elec       q    Type
REMARK                         _______ _______ _______ _____ _____    ______ ____
ROOT
ATOM      1  C   UNL     1      32.709 -10.598 -23.303  0.00  0.00    -0.018 C 
ATOM      2  C   UNL     1      33.101 -11.761 -23.967  0.00  0.00    +0.003 C 
ATOM      3  C   UNL     1      33.025 -12.994 -23.319  0.00  0.00    +0.087 C 
ATOM      4  C   UNL     1      32.241 -10.670 -21.991  0.00  0.00    -0.001 C 
ATOM      5  C   UNL     1      32.557 -13.065 -22.008  0.00  0.00    +0.143 C 
ATOM      6  C   UNL     1      32.166 -11.903 -21.343  0.00  0.00    +0.037 C 
ENDROOT
BRANCH   3   9
ATOM      7  O   UNL     1      32.977 -14.447 -25.158  0.00  0.00    -0.270 OA
ATOM      8  N   UNL     1      34.377 -15.017 -23.400  0.00  0.00    -0.297 N 
ATOM      9  C   UNL     1      33.438 -14.195 -24.032  0.00  0.00    +0.249 C 
ATOM     10  H   UNL     1      34.698 -14.756 -22.507  0.00  0.00    +0.150 HD
BRANCH   8  11
ATOM     11  C   UNL     1      34.901 -16.228 -23.988  0.00  0.00    +0.117 C 
BRANCH  11  12
ATOM     12  C   UNL     1      35.049 -17.326 -22.975  0.00  0.00    -0.003 C 
ATOM     13  C   UNL     1      35.538 -17.038 -21.701  0.00  0.00    -0.003 C 
ATOM     14  C   UNL     1      34.699 -18.635 -23.307  0.00  0.00    -0.003 C 
ATOM     15  C   UNL     1      35.325 -19.364 -21.091  0.00  0.00    +0.071 C 
ATOM     16  C   UNL     1      35.677 -18.056 -20.759  0.00  0.00    +0.004 C 
ATOM     17  C   UNL     1      34.837 -19.654 -22.366  0.00  0.00    +0.004 C 
BRANCH  15  21
ATOM     18  F   UNL     1      36.450 -20.196 -19.169  0.00  0.00    -0.166 F 
ATOM     19  F   UNL     1      34.338 -20.678 -19.352  0.00  0.00    -0.166 F 
ATOM     20  F   UNL     1      35.787 -21.666 -20.628  0.00  0.00    -0.166 F 
ATOM     21  C   UNL     1      35.470 -20.454 -20.083  0.00  0.00    +0.419 C 
ENDBRANCH  15  21
ENDBRANCH  11  12
ENDBRANCH   8  11
ENDBRANCH   3   9
BRANCH   5  22
ATOM     22  O   UNL     1      32.473 -14.261 -21.359  0.00  0.00    -0.471 OA
ATOM     23  C   UNL     1      32.530 -14.229 -19.934  0.00  0.00    +0.252 C 
ENDBRANCH   5  22
BRANCH   1  24
ATOM     24  C   UNL     1      32.791  -9.265 -24.004  0.00  0.00    +0.080 C 
BRANCH  24  29
ATOM     25  O   UNL     1      32.580  -6.960 -23.315  0.00  0.00    -0.428 OA
ATOM     26  O   UNL     1      35.697  -8.531 -23.402  0.00  0.00    -0.271 OA
ATOM     27  O   UNL     1      33.081  -4.831 -23.979  0.00  0.00    -0.226 OA
ATOM     28  N   UNL     1      34.696  -6.471 -23.780  0.00  0.00    -0.218 N 
ATOM     29  C   UNL     1      33.316  -8.175 -23.095  0.00  0.00    +0.250 C 
ATOM     30  C   UNL     1      34.728  -7.788 -23.432  0.00  0.00    +0.271 C 
ATOM     31  C   UNL     1      33.434  -5.972 -23.720  0.00  0.00    +0.408 C 
ATOM     32  H   UNL     1      35.487  -5.946 -24.041  0.00  0.00    +0.161 HD
ENDBRANCH  24  29
ENDBRANCH   1  24
TORSDOF 7
ENDMDL
MODEL 8
REMARK VINA RESULT:     -11.1      7.443     10.801
REMARK  Name = 56842109
REMARK  7 active torsions:
REMARK  status: ('A' for Active; 'I' for Inactive)
REMARK    1  A    between atoms: C_1  and  C_24
REMARK    2  A    between atoms: C_3  and  C_9
REMARK    3  A    between atoms: C_5  and  O_22
REMARK    4  A    between atoms: N_8  and  C_11
REMARK    5  A    between atoms: C_11  and  C_12
REMARK    6  A    between atoms: C_15  and  C_21
REMARK    7  A    between atoms: C_24  and  C_29
REMARK                            x       y       z     vdW  Elec       q    Type
REMARK                         _______ _______ _______ _____ _____    ______ ____
ROOT
ATOM      1  C   UNL     1      35.298 -17.712 -22.296  0.00  0.00    -0.018 C 
ATOM      2  C   UNL     1      34.967 -16.702 -21.393  0.00  0.00    +0.003 C 
ATOM      3  C   UNL     1      34.491 -15.477 -21.861  0.00  0.00    +0.087 C 
ATOM      4  C   UNL     1      35.153 -17.497 -23.666  0.00  0.00    -0.001 C 
ATOM      5  C   UNL     1      34.346 -15.262 -23.231  0.00  0.00    +0.143 C 
ATOM      6  C   UNL     1      34.677 -16.272 -24.134  0.00  0.00    +0.037 C 
ENDROOT
BRANCH   3   9
ATOM      7  O   UNL     1      35.041 -13.857 -20.257  0.00  0.00    -0.270 OA
ATOM      8  N   UNL     1      32.794 -14.117 -20.766  0.00  0.00    -0.297 N 
ATOM      9  C   UNL     1      34.150 -14.436 -20.901  0.00  0.00    +0.249 C 
ATOM     10  H   UNL     1      32.142 -14.618 -21.308  0.00  0.00    +0.150 HD
BRANCH   8  11
ATOM     11  C   UNL     1      32.300 -13.094 -19.874  0.00  0.00    +0.117 C 
BRANCH  11  12
ATOM     12  C   UNL     1      32.041 -11.801 -20.590  0.00  0.00    -0.003 C 
ATOM     13  C   UNL     1      31.785 -10.639 -19.861  0.00  0.00    -0.003 C 
ATOM     14  C   UNL     1      32.054 -11.760 -21.984  0.00  0.00    -0.003 C 
ATOM     15  C   UNL     1      31.558  -9.397 -21.919  0.00  0.00    +0.071 C 
ATOM     16  C   UNL     1      31.544  -9.437 -20.525  0.00  0.00    +0.004 C 
ATOM     17  C   UNL     1      31.812 -10.558 -22.649  0.00  0.00    +0.004 C 
BRANCH  15  21
ATOM     18  F   UNL     1      32.333  -7.751 -23.450  0.00  0.00    -0.166 F 
ATOM     19  F   UNL     1      30.193  -8.137 -23.427  0.00  0.00    -0.166 F 
ATOM     20  F   UNL     1      31.114  -7.050 -21.792  0.00  0.00    -0.166 F 
ATOM     21  C   UNL     1      31.303  -8.111 -22.630  0.00  0.00    +0.419 C 
ENDBRANCH  15  21
ENDBRANCH  11  12
ENDBRANCH   8  11
ENDBRANCH   3   9
BRANCH   5  22
ATOM     22  O   UNL     1      33.880 -14.073 -23.707  0.00  0.00    -0.471 OA
ATOM     23  C   UNL     1      33.189 -14.102 -24.955  0.00  0.00    +0.252 C 
ENDBRANCH   5  22
BRANCH   1  24
ATOM     24  C   UNL     1      35.812 -19.037 -21.790  0.00  0.00    +0.080 C 
BRANCH  24  29
ATOM     25  O   UNL     1      36.494 -19.879 -19.631  0.00  0.00    -0.428 OA
ATOM     26  O   UNL     1      33.213 -20.274 -20.759  0.00  0.00    -0.271 OA
ATOM     27  O   UNL     1      36.864 -21.829 -18.496  0.00  0.00    -0.226 OA
ATOM     28  N   UNL     1      34.848 -21.366 -19.524  0.00  0.00    -0.218 N 
ATOM     29  C   UNL     1      35.398 -19.297 -20.357  0.00  0.00    +0.250 C 
ATOM     30  C   UNL     1      34.325 -20.345 -20.260  0.00  0.00    +0.271 C 
ATOM     31  C   UNL     1      36.128 -21.107 -19.152  0.00  0.00    +0.408 C 
ATOM     32  H   UNL     1      34.359 -22.189 -19.291  0.00  0.00    +0.161 HD
ENDBRANCH  24  29
ENDBRANCH   1  24
TORSDOF 7
ENDMDL
MODEL 9
REMARK VINA RESULT:     -11.0      3.123      4.949
REMARK  Name = 56842109
REMARK  7 active torsions:
REMARK  status: ('A' for Active; 'I' for Inactive)
REMARK    1  A    between atoms: C_1  and  C_24
REMARK    2  A    between atoms: C_3  and  C_9
REMARK    3  A    between atoms: C_5  and  O_22
REMARK    4  A    between atoms: N_8  and  C_11
REMARK    5  A    between atoms: C_11  and  C_12
REMARK    6  A    between atoms: C_15  and  C_21
REMARK    7  A    between atoms: C_24  and  C_29
REMARK                            x       y       z     vdW  Elec       q    Type
REMARK                         _______ _______ _______ _____ _____    ______ ____
ROOT
ATOM      1  C   UNL     1      35.249 -22.642 -16.305  0.00  0.00    -0.018 C 
ATOM      2  C   UNL     1      36.048 -22.032 -17.272  0.00  0.00    +0.003 C 
ATOM      3  C   UNL     1      35.498 -21.662 -18.499  0.00  0.00    +0.087 C 
ATOM      4  C   UNL     1      33.900 -22.881 -16.565  0.00  0.00    -0.001 C 
ATOM      5  C   UNL     1      34.149 -21.901 -18.760  0.00  0.00    +0.143 C 
ATOM      6  C   UNL     1      33.350 -22.511 -17.793  0.00  0.00    +0.037 C 
ENDROOT
BRANCH   3   9
ATOM      7  O   UNL     1      37.395 -21.578 -19.874  0.00  0.00    -0.270 OA
ATOM      8  N   UNL     1      35.921 -19.793 -20.001  0.00  0.00    -0.297 N 
ATOM      9  C   UNL     1      36.350 -21.024 -19.494  0.00  0.00    +0.249 C 
ATOM     10  H   UNL     1      35.082 -19.412 -19.653  0.00  0.00    +0.150 HD
BRANCH   8  11
ATOM     11  C   UNL     1      36.644 -19.050 -21.008  0.00  0.00    +0.117 C 
BRANCH  11  12
ATOM     12  C   UNL     1      35.883 -17.841 -21.469  0.00  0.00    -0.003 C 
ATOM     13  C   UNL     1      35.443 -16.898 -20.539  0.00  0.00    -0.003 C 
ATOM     14  C   UNL     1      35.616 -17.659 -22.826  0.00  0.00    -0.003 C 
ATOM     15  C   UNL     1      34.470 -15.593 -22.323  0.00  0.00    +0.071 C 
ATOM     16  C   UNL     1      34.736 -15.774 -20.966  0.00  0.00    +0.004 C 
ATOM     17  C   UNL     1      34.909 -16.536 -23.253  0.00  0.00    +0.004 C 
BRANCH  15  21
ATOM     18  F   UNL     1      33.079 -14.591 -23.971  0.00  0.00    -0.166 F 
ATOM     19  F   UNL     1      32.743 -13.989 -21.908  0.00  0.00    -0.166 F 
ATOM     20  F   UNL     1      34.503 -13.289 -22.966  0.00  0.00    -0.166 F 
ATOM     21  C   UNL     1      33.716 -14.390 -22.780  0.00  0.00    +0.419 C 
ENDBRANCH  15  21
ENDBRANCH  11  12
ENDBRANCH   8  11
ENDBRANCH   3   9
BRANCH   5  22
ATOM     22  O   UNL     1      33.593 -21.543 -19.952  0.00  0.00    -0.471 OA
ATOM     23  C   UNL     1      32.658 -20.466 -19.932  0.00  0.00    +0.252 C 
ENDBRANCH   5  22
BRANCH   1  24
ATOM     24  C   UNL     1      35.844 -23.041 -14.977  0.00  0.00    +0.080 C 
BRANCH  24  29
ATOM     25  O   UNL     1      34.767 -23.941 -13.012  0.00  0.00    -0.428 OA
ATOM     26  O   UNL     1      36.605 -25.997 -15.153  0.00  0.00    -0.271 OA
ATOM     27  O   UNL     1      35.226 -24.831 -10.957  0.00  0.00    -0.226 OA
ATOM     28  N   UNL     1      36.105 -25.710 -12.904  0.00  0.00    -0.218 N 
ATOM     29  C   UNL     1      35.133 -24.233 -14.371  0.00  0.00    +0.250 C 
ATOM     30  C   UNL     1      36.041 -25.423 -14.235  0.00  0.00    +0.271 C 
ATOM     31  C   UNL     1      35.363 -24.840 -12.172  0.00  0.00    +0.408 C 
ATOM     32  H   UNL     1      36.624 -26.454 -12.521  0.00  0.00    +0.161 HD
ENDBRANCH  24  29
ENDBRANCH   1  24
TORSDOF 7
ENDMDL
