MODEL 1
REMARK VINA RESULT:     -11.6      0.000      0.000
REMARK  Name = 6323454
REMARK  1 active torsions:
REMARK  status: ('A' for Active; 'I' for Inactive)
REMARK    1  A    between atoms: C_18  and  O_22
REMARK                            x       y       z     vdW  Elec       q    Type
REMARK                         _______ _______ _______ _____ _____    ______ ____
ROOT
ATOM      1  O   UNL     1      34.357 -24.648 -12.924  0.00  0.00    -0.350 OA
ATOM      2  O   UNL     1      37.422 -22.912 -13.108  0.00  0.00    -0.445 OA
ATOM      3  O   UNL     1      37.818 -22.456 -15.832  0.00  0.00    -0.287 OA
ATOM      4  O   UNL     1      38.306 -22.821 -10.980  0.00  0.00    -0.250 OA
ATOM      5  O   UNL     1      32.680 -23.579 -16.705  0.00  0.00    -0.287 OA
ATOM      6  C   UNL     1      35.343 -23.694 -12.590  0.00  0.00    +0.171 C 
ATOM      7  C   UNL     1      36.391 -23.712 -13.673  0.00  0.00    +0.221 C 
ATOM      8  C   UNL     1      35.768 -23.257 -14.957  0.00  0.00    +0.060 C 
ATOM      9  C   UNL     1      33.606 -24.229 -14.095  0.00  0.00    +0.141 C 
ATOM     10  C   UNL     1      34.463 -23.526 -15.157  0.00  0.00    +0.046 C 
ATOM     11  C   UNL     1      36.204 -23.983 -11.385  0.00  0.00    +0.143 C 
ATOM     12  C   UNL     1      37.431 -23.180 -11.753  0.00  0.00    +0.320 C 
ATOM     13  C   UNL     1      36.613 -22.610 -15.989  0.00  0.00    +0.195 C 
ATOM     14  C   UNL     1      33.820 -23.201 -16.462  0.00  0.00    +0.197 C 
ATOM     15  C   UNL     1      32.434 -23.370 -13.609  0.00  0.00    +0.037 C 
ATOM     16  C   UNL     1      35.951 -22.155 -17.225  0.00  0.00    +0.045 C 
ATOM     17  C   UNL     1      34.605 -22.441 -17.452  0.00  0.00    +0.075 C 
ATOM     18  C   UNL     1      33.993 -22.012 -18.636  0.00  0.00    +0.137 C 
ATOM     19  C   UNL     1      36.687 -21.443 -18.180  0.00  0.00    +0.003 C 
ATOM     20  C   UNL     1      34.727 -21.299 -19.585  0.00  0.00    +0.037 C 
ATOM     21  C   UNL     1      36.071 -21.016 -19.357  0.00  0.00    +0.003 C 
ENDROOT
BRANCH  18  22
ATOM     22  O   UNL     1      32.680 -22.250 -18.917  0.00  0.00    -0.505 OA
ATOM     23  H   UNL     1      32.011 -21.752 -18.490  0.00  0.00    +0.292 HD
ENDBRANCH  18  22
TORSDOF 1
ENDMDL
MODEL 2
REMARK VINA RESULT:     -11.0      1.109      1.369
REMARK  Name = 6323454
REMARK  1 active torsions:
REMARK  status: ('A' for Active; 'I' for Inactive)
REMARK    1  A    between atoms: C_18  and  O_22
REMARK                            x       y       z     vdW  Elec       q    Type
REMARK                         _______ _______ _______ _____ _____    ______ ____
ROOT
ATOM      1  O   UNL     1      33.819 -24.391 -14.322  0.00  0.00    -0.350 OA
ATOM      2  O   UNL     1      37.022 -22.912 -14.287  0.00  0.00    -0.445 OA
ATOM      3  O   UNL     1      37.485 -22.160 -16.934  0.00  0.00    -0.287 OA
ATOM      4  O   UNL     1      37.886 -23.159 -12.163  0.00  0.00    -0.250 OA
ATOM      5  O   UNL     1      32.281 -22.728 -17.943  0.00  0.00    -0.287 OA
ATOM      6  C   UNL     1      34.878 -23.573 -13.871  0.00  0.00    +0.171 C 
ATOM      7  C   UNL     1      35.933 -23.546 -14.948  0.00  0.00    +0.221 C 
ATOM      8  C   UNL     1      35.365 -22.886 -16.166  0.00  0.00    +0.060 C 
ATOM      9  C   UNL     1      33.119 -23.770 -15.433  0.00  0.00    +0.141 C 
ATOM     10  C   UNL     1      34.044 -23.017 -16.399  0.00  0.00    +0.046 C 
ATOM     11  C   UNL     1      35.698 -24.079 -12.711  0.00  0.00    +0.143 C 
ATOM     12  C   UNL     1      36.993 -23.344 -12.975  0.00  0.00    +0.320 C 
ATOM     13  C   UNL     1      36.274 -22.191 -17.110  0.00  0.00    +0.195 C 
ATOM     14  C   UNL     1      33.446 -22.481 -17.655  0.00  0.00    +0.197 C 
ATOM     15  C   UNL     1      32.019 -22.881 -14.845  0.00  0.00    +0.037 C 
ATOM     16  C   UNL     1      35.666 -21.533 -18.281  0.00  0.00    +0.045 C 
ATOM     17  C   UNL     1      34.304 -21.674 -18.542  0.00  0.00    +0.075 C 
ATOM     18  C   UNL     1      33.743 -21.052 -19.665  0.00  0.00    +0.137 C 
ATOM     19  C   UNL     1      36.470 -20.774 -19.140  0.00  0.00    +0.003 C 
ATOM     20  C   UNL     1      34.545 -20.293 -20.518  0.00  0.00    +0.037 C 
ATOM     21  C   UNL     1      35.906 -20.155 -20.256  0.00  0.00    +0.003 C 
ENDROOT
BRANCH  18  22
ATOM     22  O   UNL     1      32.418 -21.142 -19.975  0.00  0.00    -0.505 OA
ATOM     23  H   UNL     1      31.822 -21.539 -19.370  0.00  0.00    +0.292 HD
ENDBRANCH  18  22
TORSDOF 1
ENDMDL
MODEL 3
REMARK VINA RESULT:     -10.6      2.006      5.721
REMARK  Name = 6323454
REMARK  1 active torsions:
REMARK  status: ('A' for Active; 'I' for Inactive)
REMARK    1  A    between atoms: C_18  and  O_22
REMARK                            x       y       z     vdW  Elec       q    Type
REMARK                         _______ _______ _______ _____ _____    ______ ____
ROOT
ATOM      1  O   UNL     1      32.048 -23.003 -14.514  0.00  0.00    -0.350 OA
ATOM      2  O   UNL     1      34.301 -22.889 -17.226  0.00  0.00    -0.445 OA
ATOM      3  O   UNL     1      36.825 -23.145 -16.064  0.00  0.00    -0.287 OA
ATOM      4  O   UNL     1      33.083 -22.448 -19.133  0.00  0.00    -0.250 OA
ATOM      5  O   UNL     1      34.519 -24.891 -11.585  0.00  0.00    -0.287 OA
ATOM      6  C   UNL     1      32.573 -23.293 -15.792  0.00  0.00    +0.171 C 
ATOM      7  C   UNL     1      33.983 -22.760 -15.846  0.00  0.00    +0.221 C 
ATOM      8  C   UNL     1      34.821 -23.508 -14.855  0.00  0.00    +0.060 C 
ATOM      9  C   UNL     1      32.719 -23.783 -13.488  0.00  0.00    +0.141 C 
ATOM     10  C   UNL     1      34.223 -23.965 -13.737  0.00  0.00    +0.046 C 
ATOM     11  C   UNL     1      31.972 -22.565 -16.968  0.00  0.00    +0.143 C 
ATOM     12  C   UNL     1      33.141 -22.619 -17.926  0.00  0.00    +0.320 C 
ATOM     13  C   UNL     1      36.278 -23.646 -15.089  0.00  0.00    +0.195 C 
ATOM     14  C   UNL     1      35.029 -24.612 -12.664  0.00  0.00    +0.197 C 
ATOM     15  C   UNL     1      31.970 -25.114 -13.358  0.00  0.00    +0.037 C 
ATOM     16  C   UNL     1      37.057 -24.413 -14.100  0.00  0.00    +0.045 C 
ATOM     17  C   UNL     1      36.455 -24.877 -12.932  0.00  0.00    +0.075 C 
ATOM     18  C   UNL     1      37.211 -25.595 -11.997  0.00  0.00    +0.137 C 
ATOM     19  C   UNL     1      38.415 -24.662 -14.335  0.00  0.00    +0.003 C 
ATOM     20  C   UNL     1      38.563 -25.845 -12.234  0.00  0.00    +0.037 C 
ATOM     21  C   UNL     1      39.164 -25.379 -13.401  0.00  0.00    +0.003 C 
ENDROOT
BRANCH  18  22
ATOM     22  O   UNL     1      36.683 -26.084 -10.839  0.00  0.00    -0.505 OA
ATOM     23  H   UNL     1      36.984 -25.758 -10.013  0.00  0.00    +0.292 HD
ENDBRANCH  18  22
TORSDOF 1
ENDMDL
MODEL 4
REMARK VINA RESULT:     -10.3      1.824      4.498
REMARK  Name = 6323454
REMARK  1 active torsions:
REMARK  status: ('A' for Active; 'I' for Inactive)
REMARK    1  A    between atoms: C_18  and  O_22
REMARK                            x       y       z     vdW  Elec       q    Type
REMARK                         _______ _______ _______ _____ _____    ______ ____
ROOT
ATOM      1  O   UNL     1      33.145 -24.147 -12.725  0.00  0.00    -0.350 OA
ATOM      2  O   UNL     1      30.581 -24.372 -15.138  0.00  0.00    -0.445 OA
ATOM      3  O   UNL     1      31.377 -22.648 -17.183  0.00  0.00    -0.287 OA
ATOM      4  O   UNL     1      28.913 -25.705 -14.269  0.00  0.00    -0.250 OA
ATOM      5  O   UNL     1      36.307 -22.617 -15.155  0.00  0.00    -0.287 OA
ATOM      6  C   UNL     1      32.192 -24.758 -13.569  0.00  0.00    +0.171 C 
ATOM      7  C   UNL     1      31.683 -23.711 -14.527  0.00  0.00    +0.221 C 
ATOM      8  C   UNL     1      32.813 -23.266 -15.404  0.00  0.00    +0.060 C 
ATOM      9  C   UNL     1      34.342 -23.790 -13.467  0.00  0.00    +0.141 C 
ATOM     10  C   UNL     1      34.058 -23.284 -14.888  0.00  0.00    +0.046 C 
ATOM     11  C   UNL     1      30.892 -25.195 -12.942  0.00  0.00    +0.143 C 
ATOM     12  C   UNL     1      29.994 -25.149 -14.159  0.00  0.00    +0.320 C 
ATOM     13  C   UNL     1      32.523 -22.747 -16.762  0.00  0.00    +0.195 C 
ATOM     14  C   UNL     1      35.204 -22.743 -15.673  0.00  0.00    +0.197 C 
ATOM     15  C   UNL     1      35.279 -25.003 -13.441  0.00  0.00    +0.037 C 
ATOM     16  C   UNL     1      33.669 -22.345 -17.597  0.00  0.00    +0.045 C 
ATOM     17  C   UNL     1      34.961 -22.344 -17.071  0.00  0.00    +0.075 C 
ATOM     18  C   UNL     1      36.039 -21.949 -17.873  0.00  0.00    +0.137 C 
ATOM     19  C   UNL     1      33.453 -21.951 -18.922  0.00  0.00    +0.003 C 
ATOM     20  C   UNL     1      35.821 -21.560 -19.196  0.00  0.00    +0.037 C 
ATOM     21  C   UNL     1      34.530 -21.561 -19.719  0.00  0.00    +0.003 C 
ENDROOT
BRANCH  18  22
ATOM     22  O   UNL     1      37.326 -21.932 -17.425  0.00  0.00    -0.505 OA
ATOM     23  H   UNL     1      37.505 -22.034 -16.511  0.00  0.00    +0.292 HD
ENDBRANCH  18  22
TORSDOF 1
ENDMDL
MODEL 5
REMARK VINA RESULT:     -10.2      1.910      6.163
REMARK  Name = 6323454
REMARK  1 active torsions:
REMARK  status: ('A' for Active; 'I' for Inactive)
REMARK    1  A    between atoms: C_18  and  O_22
REMARK                            x       y       z     vdW  Elec       q    Type
REMARK                         _______ _______ _______ _____ _____    ______ ____
ROOT
ATOM      1  O   UNL     1      37.074 -22.307 -17.659  0.00  0.00    -0.350 OA
ATOM      2  O   UNL     1      34.102 -21.204 -19.206  0.00  0.00    -0.445 OA
ATOM      3  O   UNL     1      32.064 -22.590 -17.897  0.00  0.00    -0.287 OA
ATOM      4  O   UNL     1      34.691 -19.825 -20.957  0.00  0.00    -0.250 OA
ATOM      5  O   UNL     1      35.481 -23.803 -13.989  0.00  0.00    -0.287 OA
ATOM      6  C   UNL     1      36.145 -21.398 -18.210  0.00  0.00    +0.171 C 
ATOM      7  C   UNL     1      34.853 -22.139 -18.441  0.00  0.00    +0.221 C 
ATOM      8  C   UNL     1      34.300 -22.574 -17.118  0.00  0.00    +0.060 C 
ATOM      9  C   UNL     1      36.688 -22.693 -16.313  0.00  0.00    +0.141 C 
ATOM     10  C   UNL     1      35.173 -22.855 -16.130  0.00  0.00    +0.046 C 
ATOM     11  C   UNL     1      36.413 -20.894 -19.606  0.00  0.00    +0.143 C 
ATOM     12  C   UNL     1      35.002 -20.555 -20.029  0.00  0.00    +0.320 C 
ATOM     13  C   UNL     1      32.838 -22.759 -16.963  0.00  0.00    +0.195 C 
ATOM     14  C   UNL     1      34.686 -23.403 -14.832  0.00  0.00    +0.197 C 
ATOM     15  C   UNL     1      37.301 -21.674 -15.347  0.00  0.00    +0.037 C 
ATOM     16  C   UNL     1      32.338 -23.162 -15.636  0.00  0.00    +0.045 C 
ATOM     17  C   UNL     1      33.230 -23.472 -14.610  0.00  0.00    +0.075 C 
ATOM     18  C   UNL     1      32.741 -23.864 -13.358  0.00  0.00    +0.137 C 
ATOM     19  C   UNL     1      30.959 -23.245 -15.414  0.00  0.00    +0.003 C 
ATOM     20  C   UNL     1      31.365 -23.942 -13.137  0.00  0.00    +0.037 C 
ATOM     21  C   UNL     1      30.476 -23.634 -14.164  0.00  0.00    +0.003 C 
ENDROOT
BRANCH  18  22
ATOM     22  O   UNL     1      33.557 -24.173 -12.310  0.00  0.00    -0.505 OA
ATOM     23  H   UNL     1      34.487 -24.108 -12.405  0.00  0.00    +0.292 HD
ENDBRANCH  18  22
TORSDOF 1
ENDMDL
MODEL 6
REMARK VINA RESULT:     -10.1      2.133      5.341
REMARK  Name = 6323454
REMARK  1 active torsions:
REMARK  status: ('A' for Active; 'I' for Inactive)
REMARK    1  A    between atoms: C_18  and  O_22
REMARK                            x       y       z     vdW  Elec       q    Type
REMARK                         _______ _______ _______ _____ _____    ______ ____
ROOT
ATOM      1  O   UNL     1      36.542 -23.793 -15.026  0.00  0.00    -0.350 OA
ATOM      2  O   UNL     1      35.062 -21.817 -17.545  0.00  0.00    -0.445 OA
ATOM      3  O   UNL     1      32.397 -22.640 -17.619  0.00  0.00    -0.287 OA
ATOM      4  O   UNL     1      36.732 -20.568 -18.529  0.00  0.00    -0.250 OA
ATOM      5  O   UNL     1      33.048 -24.973 -12.870  0.00  0.00    -0.287 OA
ATOM      6  C   UNL     1      36.236 -22.631 -15.766  0.00  0.00    +0.171 C 
ATOM      7  C   UNL     1      35.105 -22.965 -16.706  0.00  0.00    +0.221 C 
ATOM      8  C   UNL     1      33.887 -23.296 -15.899  0.00  0.00    +0.060 C 
ATOM      9  C   UNL     1      35.462 -24.126 -14.112  0.00  0.00    +0.141 C 
ATOM     10  C   UNL     1      34.064 -23.864 -14.690  0.00  0.00    +0.046 C 
ATOM     11  C   UNL     1      37.267 -22.150 -16.756  0.00  0.00    +0.143 C 
ATOM     12  C   UNL     1      36.369 -21.405 -17.717  0.00  0.00    +0.320 C 
ATOM     13  C   UNL     1      32.543 -23.070 -16.482  0.00  0.00    +0.195 C 
ATOM     14  C   UNL     1      32.889 -24.321 -13.896  0.00  0.00    +0.197 C 
ATOM     15  C   UNL     1      35.717 -23.374 -12.803  0.00  0.00    +0.037 C 
ATOM     16  C   UNL     1      31.374 -23.386 -15.641  0.00  0.00    +0.045 C 
ATOM     17  C   UNL     1      31.542 -23.989 -14.395  0.00  0.00    +0.075 C 
ATOM     18  C   UNL     1      30.422 -24.293 -13.612  0.00  0.00    +0.137 C 
ATOM     19  C   UNL     1      30.088 -23.088 -16.107  0.00  0.00    +0.003 C 
ATOM     20  C   UNL     1      29.141 -23.992 -14.077  0.00  0.00    +0.037 C 
ATOM     21  C   UNL     1      28.974 -23.392 -15.323  0.00  0.00    +0.003 C 
ENDROOT
BRANCH  18  22
ATOM     22  O   UNL     1      30.515 -24.875 -12.383  0.00  0.00    -0.505 OA
ATOM     23  H   UNL     1      31.206 -25.482 -12.204  0.00  0.00    +0.292 HD
ENDBRANCH  18  22
TORSDOF 1
ENDMDL
MODEL 7
REMARK VINA RESULT:     -10.0      8.077     11.484
REMARK  Name = 6323454
REMARK  1 active torsions:
REMARK  status: ('A' for Active; 'I' for Inactive)
REMARK    1  A    between atoms: C_18  and  O_22
REMARK                            x       y       z     vdW  Elec       q    Type
REMARK                         _______ _______ _______ _____ _____    ______ ____
ROOT
ATOM      1  O   UNL     1      35.325 -16.419 -24.261  0.00  0.00    -0.350 OA
ATOM      2  O   UNL     1      34.952 -17.381 -20.888  0.00  0.00    -0.445 OA
ATOM      3  O   UNL     1      34.358 -15.013 -19.536  0.00  0.00    -0.287 OA
ATOM      4  O   UNL     1      35.486 -19.619 -20.732  0.00  0.00    -0.250 OA
ATOM      5  O   UNL     1      33.216 -12.705 -24.204  0.00  0.00    -0.287 OA
ATOM      6  C   UNL     1      34.895 -17.192 -23.161  0.00  0.00    +0.171 C 
ATOM      7  C   UNL     1      35.196 -16.416 -21.904  0.00  0.00    +0.221 C 
ATOM      8  C   UNL     1      34.374 -15.163 -21.900  0.00  0.00    +0.060 C 
ATOM      9  C   UNL     1      34.499 -15.234 -24.418  0.00  0.00    +0.141 C 
ATOM     10  C   UNL     1      34.072 -14.601 -23.086  0.00  0.00    +0.046 C 
ATOM     11  C   UNL     1      35.650 -18.465 -22.872  0.00  0.00    +0.143 C 
ATOM     12  C   UNL     1      35.367 -18.598 -21.392  0.00  0.00    +0.320 C 
ATOM     13  C   UNL     1      33.997 -14.542 -20.607  0.00  0.00    +0.195 C 
ATOM     14  C   UNL     1      33.358 -13.293 -23.138  0.00  0.00    +0.197 C 
ATOM     15  C   UNL     1      33.311 -15.614 -25.307  0.00  0.00    +0.037 C 
ATOM     16  C   UNL     1      33.166 -13.326 -20.653  0.00  0.00    +0.045 C 
ATOM     17  C   UNL     1      32.859 -12.725 -21.873  0.00  0.00    +0.075 C 
ATOM     18  C   UNL     1      32.078 -11.563 -21.899  0.00  0.00    +0.137 C 
ATOM     19  C   UNL     1      32.696 -12.767 -19.459  0.00  0.00    +0.003 C 
ATOM     20  C   UNL     1      31.607 -11.009 -20.708  0.00  0.00    +0.037 C 
ATOM     21  C   UNL     1      31.916 -11.610 -19.490  0.00  0.00    +0.003 C 
ENDROOT
BRANCH  18  22
ATOM     22  O   UNL     1      31.735 -10.929 -23.057  0.00  0.00    -0.505 OA
ATOM     23  H   UNL     1      30.943 -10.430 -23.100  0.00  0.00    +0.292 HD
ENDBRANCH  18  22
TORSDOF 1
ENDMDL
MODEL 8
REMARK VINA RESULT:      -9.8      2.428      5.481
REMARK  Name = 6323454
REMARK  1 active torsions:
REMARK  status: ('A' for Active; 'I' for Inactive)
REMARK    1  A    between atoms: C_18  and  O_22
REMARK                            x       y       z     vdW  Elec       q    Type
REMARK                         _______ _______ _______ _____ _____    ______ ____
ROOT
ATOM      1  O   UNL     1      30.550 -23.841 -13.510  0.00  0.00    -0.350 OA
ATOM      2  O   UNL     1      29.727 -23.429 -16.915  0.00  0.00    -0.445 OA
ATOM      3  O   UNL     1      31.888 -22.039 -18.005  0.00  0.00    -0.287 OA
ATOM      4  O   UNL     1      27.590 -24.238 -17.225  0.00  0.00    -0.250 OA
ATOM      5  O   UNL     1      34.781 -23.288 -13.705  0.00  0.00    -0.287 OA
ATOM      6  C   UNL     1      30.088 -24.194 -14.797  0.00  0.00    +0.171 C 
ATOM      7  C   UNL     1      30.447 -23.074 -15.741  0.00  0.00    +0.221 C 
ATOM      8  C   UNL     1      31.939 -22.975 -15.830  0.00  0.00    +0.060 C 
ATOM      9  C   UNL     1      32.003 -23.842 -13.461  0.00  0.00    +0.141 C 
ATOM     10  C   UNL     1      32.661 -23.315 -14.744  0.00  0.00    +0.046 C 
ATOM     11  C   UNL     1      28.596 -24.247 -15.006  0.00  0.00    +0.143 C 
ATOM     12  C   UNL     1      28.538 -23.992 -16.495  0.00  0.00    +0.320 C 
ATOM     13  C   UNL     1      32.562 -22.432 -17.061  0.00  0.00    +0.195 C 
ATOM     14  C   UNL     1      34.140 -23.125 -14.736  0.00  0.00    +0.197 C 
ATOM     15  C   UNL     1      32.451 -25.261 -13.099  0.00  0.00    +0.037 C 
ATOM     16  C   UNL     1      34.034 -22.378 -17.112  0.00  0.00    +0.045 C 
ATOM     17  C   UNL     1      34.793 -22.712 -15.991  0.00  0.00    +0.075 C 
ATOM     18  C   UNL     1      36.191 -22.645 -16.052  0.00  0.00    +0.137 C 
ATOM     19  C   UNL     1      34.668 -21.975 -18.293  0.00  0.00    +0.003 C 
ATOM     20  C   UNL     1      36.821 -22.247 -17.232  0.00  0.00    +0.037 C 
ATOM     21  C   UNL     1      36.061 -21.912 -18.350  0.00  0.00    +0.003 C 
ENDROOT
BRANCH  18  22
ATOM     22  O   UNL     1      36.992 -22.964 -14.997  0.00  0.00    -0.505 OA
ATOM     23  H   UNL     1      36.673 -23.529 -14.320  0.00  0.00    +0.292 HD
ENDBRANCH  18  22
TORSDOF 1
ENDMDL
MODEL 9
REMARK VINA RESULT:      -9.8      2.148      4.837
REMARK  Name = 6323454
REMARK  1 active torsions:
REMARK  status: ('A' for Active; 'I' for Inactive)
REMARK    1  A    between atoms: C_18  and  O_22
REMARK                            x       y       z     vdW  Elec       q    Type
REMARK                         _______ _______ _______ _____ _____    ______ ____
ROOT
ATOM      1  O   UNL     1      35.760 -22.329 -16.235  0.00  0.00    -0.350 OA
ATOM      2  O   UNL     1      35.787 -24.708 -13.630  0.00  0.00    -0.445 OA
ATOM      3  O   UNL     1      33.151 -24.792 -12.718  0.00  0.00    -0.287 OA
ATOM      4  O   UNL     1      37.973 -25.362 -13.299  0.00  0.00    -0.250 OA
ATOM      5  O   UNL     1      31.593 -22.317 -17.175  0.00  0.00    -0.287 OA
ATOM      6  C   UNL     1      36.062 -23.537 -15.569  0.00  0.00    +0.171 C 
ATOM      7  C   UNL     1      35.223 -23.598 -14.318  0.00  0.00    +0.221 C 
ATOM      8  C   UNL     1      33.778 -23.669 -14.707  0.00  0.00    +0.060 C 
ATOM      9  C   UNL     1      34.407 -22.352 -16.764  0.00  0.00    +0.141 C 
ATOM     10  C   UNL     1      33.399 -23.059 -15.847  0.00  0.00    +0.046 C 
ATOM     11  C   UNL     1      37.439 -23.671 -14.969  0.00  0.00    +0.143 C 
ATOM     12  C   UNL     1      37.145 -24.678 -13.880  0.00  0.00    +0.320 C 
ATOM     13  C   UNL     1      32.808 -24.324 -13.796  0.00  0.00    +0.195 C 
ATOM     14  C   UNL     1      31.958 -22.997 -16.223  0.00  0.00    +0.197 C 
ATOM     15  C   UNL     1      34.471 -22.966 -18.167  0.00  0.00    +0.037 C 
ATOM     16  C   UNL     1      31.402 -24.393 -14.233  0.00  0.00    +0.045 C 
ATOM     17  C   UNL     1      30.994 -23.753 -15.403  0.00  0.00    +0.075 C 
ATOM     18  C   UNL     1      29.652 -23.818 -15.800  0.00  0.00    +0.137 C 
ATOM     19  C   UNL     1      30.472 -25.096 -13.458  0.00  0.00    +0.003 C 
ATOM     20  C   UNL     1      28.728 -24.522 -15.027  0.00  0.00    +0.037 C 
ATOM     21  C   UNL     1      29.137 -25.159 -13.859  0.00  0.00    +0.003 C 
ENDROOT
BRANCH  18  22
ATOM     22  O   UNL     1      29.188 -23.222 -16.935  0.00  0.00    -0.505 OA
ATOM     23  H   UNL     1      29.016 -22.301 -16.943  0.00  0.00    +0.292 HD
ENDBRANCH  18  22
TORSDOF 1
ENDMDL
