MODEL 1
REMARK VINA RESULT:     -11.7      0.000      0.000
REMARK  Name = 6918151
REMARK  4 active torsions:
REMARK  status: ('A' for Active; 'I' for Inactive)
REMARK    1  A    between atoms: C_2  and  C_11
REMARK    2  A    between atoms: C_7  and  C_18
REMARK    3  A    between atoms: C_11  and  C_12
REMARK    4  A    between atoms: C_18  and  C_23
REMARK                            x       y       z     vdW  Elec       q    Type
REMARK                         _______ _______ _______ _____ _____    ______ ____
ROOT
ATOM      1  O   UNL     1      36.062 -19.682 -20.322  0.00  0.00    -0.479 OA
ATOM      2  C   UNL     1      35.190 -18.776 -21.014  0.00  0.00    +0.171 C 
ATOM      3  C   UNL     1      34.058 -19.522 -21.718  0.00  0.00    +0.049 C 
ATOM      4  C   UNL     1      33.201 -20.227 -20.674  0.00  0.00    +0.033 C 
ATOM      5  C   UNL     1      34.068 -20.936 -19.674  0.00  0.00    +0.012 C 
ATOM      6  C   UNL     1      35.427 -20.619 -19.547  0.00  0.00    +0.134 C 
ATOM      7  C   UNL     1      34.309 -22.575 -17.901  0.00  0.00    -0.021 C 
ATOM      8  C   UNL     1      33.513 -21.909 -18.833  0.00  0.00    -0.006 C 
ATOM      9  C   UNL     1      36.226 -21.296 -18.622  0.00  0.00    +0.036 C 
ATOM     10  C   UNL     1      35.665 -22.271 -17.797  0.00  0.00    -0.001 C 
ENDROOT
BRANCH   2  11
ATOM     11  C   UNL     1      36.042 -18.011 -22.021  0.00  0.00    +0.070 C 
BRANCH  11  12
ATOM     12  C   UNL     1      35.283 -16.866 -22.636  0.00  0.00    -0.019 C 
ATOM     13  C   UNL     1      34.994 -15.746 -21.867  0.00  0.00    -0.004 C 
ATOM     14  C   UNL     1      34.883 -16.944 -23.963  0.00  0.00    -0.004 C 
ATOM     15  C   UNL     1      34.291 -14.685 -22.437  0.00  0.00    -0.000 C 
ATOM     16  C   UNL     1      34.180 -15.882 -24.532  0.00  0.00    -0.000 C 
ATOM     17  C   UNL     1      33.884 -14.753 -23.770  0.00  0.00    -0.000 C 
ENDBRANCH  11  12
ENDBRANCH   2  11
BRANCH   7  18
ATOM     18  C   UNL     1      33.709 -23.614 -17.015  0.00  0.00    +0.047 C 
BRANCH  18  23
ATOM     19  S   UNL     1      33.685 -23.923 -14.272  0.00  0.00    -0.048 S 
ATOM     20  O   UNL     1      30.886 -22.661 -16.611  0.00  0.00    -0.274 OA
ATOM     21  O   UNL     1      31.832 -24.922 -12.697  0.00  0.00    -0.263 OA
ATOM     22  N   UNL     1      31.156 -23.804 -14.618  0.00  0.00    -0.246 N 
ATOM     23  C   UNL     1      33.113 -23.017 -15.742  0.00  0.00    +0.137 C 
ATOM     24  C   UNL     1      31.605 -23.126 -15.733  0.00  0.00    +0.239 C 
ATOM     25  C   UNL     1      32.067 -24.302 -13.723  0.00  0.00    +0.279 C 
ATOM     26  H   UNL     1      30.192 -23.929 -14.468  0.00  0.00    +0.158 HD
ENDBRANCH  18  23
ENDBRANCH   7  18
TORSDOF 4
ENDMDL
MODEL 2
REMARK VINA RESULT:     -11.0      5.841     10.146
REMARK  Name = 6918151
REMARK  4 active torsions:
REMARK  status: ('A' for Active; 'I' for Inactive)
REMARK    1  A    between atoms: C_2  and  C_11
REMARK    2  A    between atoms: C_7  and  C_18
REMARK    3  A    between atoms: C_11  and  C_12
REMARK    4  A    between atoms: C_18  and  C_23
REMARK                            x       y       z     vdW  Elec       q    Type
REMARK                         _______ _______ _______ _____ _____    ______ ____
ROOT
ATOM      1  O   UNL     1      35.670 -17.246 -20.726  0.00  0.00    -0.479 OA
ATOM      2  C   UNL     1      36.369 -18.206 -21.531  0.00  0.00    +0.171 C 
ATOM      3  C   UNL     1      35.493 -18.716 -22.674  0.00  0.00    +0.049 C 
ATOM      4  C   UNL     1      35.150 -17.551 -23.597  0.00  0.00    +0.033 C 
ATOM      5  C   UNL     1      34.730 -16.353 -22.796  0.00  0.00    +0.012 C 
ATOM      6  C   UNL     1      35.020 -16.263 -21.428  0.00  0.00    +0.134 C 
ATOM      7  C   UNL     1      33.665 -14.174 -22.689  0.00  0.00    -0.021 C 
ATOM      8  C   UNL     1      34.062 -15.293 -23.423  0.00  0.00    -0.006 C 
ATOM      9  C   UNL     1      34.611 -15.148 -20.692  0.00  0.00    +0.036 C 
ATOM     10  C   UNL     1      33.937 -14.103 -21.324  0.00  0.00    -0.001 C 
ENDROOT
BRANCH   2  11
ATOM     11  C   UNL     1      36.779 -19.352 -20.613  0.00  0.00    +0.070 C 
BRANCH  11  12
ATOM     12  C   UNL     1      35.586 -20.132 -20.129  0.00  0.00    -0.019 C 
ATOM     13  C   UNL     1      35.780 -21.254 -19.333  0.00  0.00    -0.004 C 
ATOM     14  C   UNL     1      34.309 -19.720 -20.484  0.00  0.00    -0.004 C 
ATOM     15  C   UNL     1      34.675 -21.977 -18.884  0.00  0.00    -0.000 C 
ATOM     16  C   UNL     1      33.204 -20.443 -20.034  0.00  0.00    -0.000 C 
ATOM     17  C   UNL     1      33.387 -21.571 -19.236  0.00  0.00    -0.000 C 
ENDBRANCH  11  12
ENDBRANCH   2  11
BRANCH   7  18
ATOM     18  C   UNL     1      32.949 -13.055 -23.366  0.00  0.00    +0.047 C 
BRANCH  18  23
ATOM     19  S   UNL     1      31.469 -11.087 -22.119  0.00  0.00    -0.048 S 
ATOM     20  O   UNL     1      34.807 -10.787 -24.033  0.00  0.00    -0.274 OA
ATOM     21  O   UNL     1      30.861  -8.659 -22.923  0.00  0.00    -0.263 OA
ATOM     22  N   UNL     1      32.903  -9.555 -23.576  0.00  0.00    -0.246 N 
ATOM     23  C   UNL     1      33.095 -11.734 -22.614  0.00  0.00    +0.137 C 
ATOM     24  C   UNL     1      33.716 -10.667 -23.485  0.00  0.00    +0.239 C 
ATOM     25  C   UNL     1      31.690  -9.556 -22.939  0.00  0.00    +0.279 C 
ATOM     26  H   UNL     1      33.192  -8.769 -24.093  0.00  0.00    +0.158 HD
ENDBRANCH  18  23
ENDBRANCH   7  18
TORSDOF 4
ENDMDL
MODEL 3
REMARK VINA RESULT:     -10.9      3.623      9.223
REMARK  Name = 6918151
REMARK  4 active torsions:
REMARK  status: ('A' for Active; 'I' for Inactive)
REMARK    1  A    between atoms: C_2  and  C_11
REMARK    2  A    between atoms: C_7  and  C_18
REMARK    3  A    between atoms: C_11  and  C_12
REMARK    4  A    between atoms: C_18  and  C_23
REMARK                            x       y       z     vdW  Elec       q    Type
REMARK                         _______ _______ _______ _____ _____    ______ ____
ROOT
ATOM      1  O   UNL     1      34.399 -23.065 -16.862  0.00  0.00    -0.479 OA
ATOM      2  C   UNL     1      35.095 -22.994 -15.609  0.00  0.00    +0.171 C 
ATOM      3  C   UNL     1      36.609 -23.033 -15.812  0.00  0.00    +0.049 C 
ATOM      4  C   UNL     1      37.036 -21.806 -16.609  0.00  0.00    +0.033 C 
ATOM      5  C   UNL     1      36.121 -21.595 -17.780  0.00  0.00    +0.012 C 
ATOM      6  C   UNL     1      34.866 -22.217 -17.834  0.00  0.00    +0.134 C 
ATOM      7  C   UNL     1      35.664 -20.541 -19.918  0.00  0.00    -0.021 C 
ATOM      8  C   UNL     1      36.507 -20.745 -18.824  0.00  0.00    -0.006 C 
ATOM      9  C   UNL     1      34.030 -22.023 -18.936  0.00  0.00    +0.036 C 
ATOM     10  C   UNL     1      34.428 -21.183 -19.975  0.00  0.00    -0.001 C 
ENDROOT
BRANCH   2  11
ATOM     11  C   UNL     1      34.632 -24.178 -14.768  0.00  0.00    +0.070 C 
BRANCH  11  12
ATOM     12  C   UNL     1      33.208 -24.012 -14.310  0.00  0.00    -0.019 C 
ATOM     13  C   UNL     1      32.518 -22.849 -14.628  0.00  0.00    -0.004 C 
ATOM     14  C   UNL     1      32.603 -25.024 -13.577  0.00  0.00    -0.004 C 
ATOM     15  C   UNL     1      31.199 -22.696 -14.204  0.00  0.00    -0.000 C 
ATOM     16  C   UNL     1      31.283 -24.870 -13.153  0.00  0.00    -0.000 C 
ATOM     17  C   UNL     1      30.581 -23.706 -13.466  0.00  0.00    -0.000 C 
ENDBRANCH  11  12
ENDBRANCH   2  11
BRANCH   7  18
ATOM     18  C   UNL     1      36.088 -19.639 -21.027  0.00  0.00    +0.047 C 
BRANCH  18  23
ATOM     19  S   UNL     1      34.675 -19.086 -23.333  0.00  0.00    -0.048 S 
ATOM     20  O   UNL     1      35.495 -16.768 -20.357  0.00  0.00    -0.274 OA
ATOM     21  O   UNL     1      34.767 -16.986 -24.913  0.00  0.00    -0.263 OA
ATOM     22  N   UNL     1      35.148 -16.672 -22.642  0.00  0.00    -0.246 N 
ATOM     23  C   UNL     1      34.934 -18.791 -21.557  0.00  0.00    +0.137 C 
ATOM     24  C   UNL     1      35.227 -17.314 -21.423  0.00  0.00    +0.239 C 
ATOM     25  C   UNL     1      34.868 -17.402 -23.769  0.00  0.00    +0.279 C 
ATOM     26  H   UNL     1      35.291 -15.700 -22.702  0.00  0.00    +0.158 HD
ENDBRANCH  18  23
ENDBRANCH   7  18
TORSDOF 4
ENDMDL
MODEL 4
REMARK VINA RESULT:     -10.9      1.050      2.057
REMARK  Name = 6918151
REMARK  4 active torsions:
REMARK  status: ('A' for Active; 'I' for Inactive)
REMARK    1  A    between atoms: C_2  and  C_11
REMARK    2  A    between atoms: C_7  and  C_18
REMARK    3  A    between atoms: C_11  and  C_12
REMARK    4  A    between atoms: C_18  and  C_23
REMARK                            x       y       z     vdW  Elec       q    Type
REMARK                         _______ _______ _______ _____ _____    ______ ____
ROOT
ATOM      1  O   UNL     1      34.676 -19.427 -20.543  0.00  0.00    -0.479 OA
ATOM      2  C   UNL     1      36.023 -19.458 -21.039  0.00  0.00    +0.171 C 
ATOM      3  C   UNL     1      37.024 -19.714 -19.914  0.00  0.00    +0.049 C 
ATOM      4  C   UNL     1      36.757 -21.089 -19.313  0.00  0.00    +0.033 C 
ATOM      5  C   UNL     1      35.288 -21.283 -19.077  0.00  0.00    +0.012 C 
ATOM      6  C   UNL     1      34.343 -20.461 -19.706  0.00  0.00    +0.134 C 
ATOM      7  C   UNL     1      33.481 -22.505 -18.012  0.00  0.00    -0.021 C 
ATOM      8  C   UNL     1      34.845 -22.315 -18.239  0.00  0.00    -0.006 C 
ATOM      9  C   UNL     1      32.979 -20.645 -19.467  0.00  0.00    +0.036 C 
ATOM     10  C   UNL     1      32.549 -21.668 -18.623  0.00  0.00    -0.001 C 
ENDROOT
BRANCH   2  11
ATOM     11  C   UNL     1      36.289 -18.113 -21.705  0.00  0.00    +0.070 C 
BRANCH  11  12
ATOM     12  C   UNL     1      35.349 -17.864 -22.854  0.00  0.00    -0.019 C 
ATOM     13  C   UNL     1      34.702 -18.937 -23.452  0.00  0.00    -0.004 C 
ATOM     14  C   UNL     1      35.142 -16.566 -23.299  0.00  0.00    -0.004 C 
ATOM     15  C   UNL     1      33.830 -18.707 -24.517  0.00  0.00    -0.000 C 
ATOM     16  C   UNL     1      34.270 -16.336 -24.364  0.00  0.00    -0.000 C 
ATOM     17  C   UNL     1      33.615 -17.406 -24.972  0.00  0.00    -0.000 C 
ENDBRANCH  11  12
ENDBRANCH   2  11
BRANCH   7  18
ATOM     18  C   UNL     1      33.021 -23.602 -17.114  0.00  0.00    +0.047 C 
BRANCH  18  23
ATOM     19  S   UNL     1      33.282 -23.985 -14.392  0.00  0.00    -0.048 S 
ATOM     20  O   UNL     1      30.196 -22.847 -16.413  0.00  0.00    -0.274 OA
ATOM     21  O   UNL     1      31.656 -25.144 -12.682  0.00  0.00    -0.263 OA
ATOM     22  N   UNL     1      30.729 -24.022 -14.493  0.00  0.00    -0.246 N 
ATOM     23  C   UNL     1      32.515 -23.080 -15.771  0.00  0.00    +0.137 C 
ATOM     24  C   UNL     1      31.025 -23.287 -15.623  0.00  0.00    +0.239 C 
ATOM     25  C   UNL     1      31.751 -24.483 -13.705  0.00  0.00    +0.279 C 
ATOM     26  H   UNL     1      29.793 -24.214 -14.257  0.00  0.00    +0.158 HD
ENDBRANCH  18  23
ENDBRANCH   7  18
TORSDOF 4
ENDMDL
MODEL 5
REMARK VINA RESULT:     -10.8      4.341      9.733
REMARK  Name = 6918151
REMARK  4 active torsions:
REMARK  status: ('A' for Active; 'I' for Inactive)
REMARK    1  A    between atoms: C_2  and  C_11
REMARK    2  A    between atoms: C_7  and  C_18
REMARK    3  A    between atoms: C_11  and  C_12
REMARK    4  A    between atoms: C_18  and  C_23
REMARK                            x       y       z     vdW  Elec       q    Type
REMARK                         _______ _______ _______ _____ _____    ______ ____
ROOT
ATOM      1  O   UNL     1      34.642 -23.049 -16.812  0.00  0.00    -0.479 OA
ATOM      2  C   UNL     1      35.362 -22.950 -15.574  0.00  0.00    +0.171 C 
ATOM      3  C   UNL     1      36.872 -22.941 -15.807  0.00  0.00    +0.049 C 
ATOM      4  C   UNL     1      37.243 -21.706 -16.619  0.00  0.00    +0.033 C 
ATOM      5  C   UNL     1      36.297 -21.529 -17.771  0.00  0.00    +0.012 C 
ATOM      6  C   UNL     1      35.063 -22.192 -17.797  0.00  0.00    +0.134 C 
ATOM      7  C   UNL     1      35.763 -20.501 -19.904  0.00  0.00    -0.021 C 
ATOM      8  C   UNL     1      36.634 -20.672 -18.827  0.00  0.00    -0.006 C 
ATOM      9  C   UNL     1      34.198 -22.029 -18.882  0.00  0.00    +0.036 C 
ATOM     10  C   UNL     1      34.547 -21.182 -19.933  0.00  0.00    -0.001 C 
ENDROOT
BRANCH   2  11
ATOM     11  C   UNL     1      34.954 -24.145 -14.719  0.00  0.00    +0.070 C 
BRANCH  11  12
ATOM     12  C   UNL     1      35.907 -24.361 -13.574  0.00  0.00    -0.019 C 
ATOM     13  C   UNL     1      36.748 -25.466 -13.584  0.00  0.00    -0.004 C 
ATOM     14  C   UNL     1      35.932 -23.454 -12.524  0.00  0.00    -0.004 C 
ATOM     15  C   UNL     1      37.631 -25.667 -12.524  0.00  0.00    -0.000 C 
ATOM     16  C   UNL     1      36.816 -23.655 -11.464  0.00  0.00    -0.000 C 
ATOM     17  C   UNL     1      37.665 -24.761 -11.463  0.00  0.00    -0.000 C 
ENDBRANCH  11  12
ENDBRANCH   2  11
BRANCH   7  18
ATOM     18  C   UNL     1      36.135 -19.591 -21.025  0.00  0.00    +0.047 C 
BRANCH  18  23
ATOM     19  S   UNL     1      34.691 -19.105 -23.327  0.00  0.00    -0.048 S 
ATOM     20  O   UNL     1      35.400 -16.755 -20.348  0.00  0.00    -0.274 OA
ATOM     21  O   UNL     1      34.674 -17.000 -24.902  0.00  0.00    -0.263 OA
ATOM     22  N   UNL     1      35.043 -16.672 -22.632  0.00  0.00    -0.246 N 
ATOM     23  C   UNL     1      34.939 -18.801 -21.551  0.00  0.00    +0.137 C 
ATOM     24  C   UNL     1      35.157 -17.311 -21.414  0.00  0.00    +0.239 C 
ATOM     25  C   UNL     1      34.798 -17.412 -23.759  0.00  0.00    +0.279 C 
ATOM     26  H   UNL     1      35.138 -15.694 -22.690  0.00  0.00    +0.158 HD
ENDBRANCH  18  23
ENDBRANCH   7  18
TORSDOF 4
ENDMDL
MODEL 6
REMARK VINA RESULT:     -10.8      6.095     10.680
REMARK  Name = 6918151
REMARK  4 active torsions:
REMARK  status: ('A' for Active; 'I' for Inactive)
REMARK    1  A    between atoms: C_2  and  C_11
REMARK    2  A    between atoms: C_7  and  C_18
REMARK    3  A    between atoms: C_11  and  C_12
REMARK    4  A    between atoms: C_18  and  C_23
REMARK                            x       y       z     vdW  Elec       q    Type
REMARK                         _______ _______ _______ _____ _____    ______ ____
ROOT
ATOM      1  O   UNL     1      34.782 -17.403 -23.221  0.00  0.00    -0.479 OA
ATOM      2  C   UNL     1      34.812 -17.857 -21.860  0.00  0.00    +0.171 C 
ATOM      3  C   UNL     1      35.555 -16.870 -20.961  0.00  0.00    +0.049 C 
ATOM      4  C   UNL     1      34.807 -15.543 -20.953  0.00  0.00    +0.033 C 
ATOM      5  C   UNL     1      34.417 -15.150 -22.349  0.00  0.00    +0.012 C 
ATOM      6  C   UNL     1      34.415 -16.091 -23.387  0.00  0.00    +0.134 C 
ATOM      7  C   UNL     1      33.661 -13.457 -23.914  0.00  0.00    -0.021 C 
ATOM      8  C   UNL     1      34.024 -13.833 -22.620  0.00  0.00    -0.006 C 
ATOM      9  C   UNL     1      34.063 -15.710 -24.684  0.00  0.00    +0.036 C 
ATOM     10  C   UNL     1      33.684 -14.394 -24.945  0.00  0.00    -0.001 C 
ENDROOT
BRANCH   2  11
ATOM     11  C   UNL     1      35.499 -19.218 -21.854  0.00  0.00    +0.070 C 
BRANCH  11  12
ATOM     12  C   UNL     1      34.971 -20.104 -20.758  0.00  0.00    -0.019 C 
ATOM     13  C   UNL     1      35.856 -20.874 -20.014  0.00  0.00    -0.004 C 
ATOM     14  C   UNL     1      33.606 -20.139 -20.505  0.00  0.00    -0.004 C 
ATOM     15  C   UNL     1      35.366 -21.695 -18.999  0.00  0.00    -0.000 C 
ATOM     16  C   UNL     1      33.117 -20.960 -19.488  0.00  0.00    -0.000 C 
ATOM     17  C   UNL     1      33.997 -21.738 -18.736  0.00  0.00    -0.000 C 
ENDBRANCH  11  12
ENDBRANCH   2  11
BRANCH   7  18
ATOM     18  C   UNL     1      33.250 -12.051 -24.193  0.00  0.00    +0.047 C 
BRANCH  18  23
ATOM     19  S   UNL     1      31.683 -10.722 -22.350  0.00  0.00    -0.048 S 
ATOM     20  O   UNL     1      35.160  -9.775 -23.733  0.00  0.00    -0.274 OA
ATOM     21  O   UNL     1      31.146  -8.159 -22.119  0.00  0.00    -0.263 OA
ATOM     22  N   UNL     1      33.230  -8.776 -22.940  0.00  0.00    -0.246 N 
ATOM     23  C   UNL     1      33.340 -11.163 -22.954  0.00  0.00    +0.137 C 
ATOM     24  C   UNL     1      34.030  -9.853 -23.262  0.00  0.00    +0.239 C 
ATOM     25  C   UNL     1      31.971  -8.998 -22.446  0.00  0.00    +0.279 C 
ATOM     26  H   UNL     1      33.560  -7.857 -23.066  0.00  0.00    +0.158 HD
ENDBRANCH  18  23
ENDBRANCH   7  18
TORSDOF 4
ENDMDL
MODEL 7
REMARK VINA RESULT:     -10.7      4.141      9.599
REMARK  Name = 6918151
REMARK  4 active torsions:
REMARK  status: ('A' for Active; 'I' for Inactive)
REMARK    1  A    between atoms: C_2  and  C_11
REMARK    2  A    between atoms: C_7  and  C_18
REMARK    3  A    between atoms: C_11  and  C_12
REMARK    4  A    between atoms: C_18  and  C_23
REMARK                            x       y       z     vdW  Elec       q    Type
REMARK                         _______ _______ _______ _____ _____    ______ ____
ROOT
ATOM      1  O   UNL     1      35.406 -23.008 -15.042  0.00  0.00    -0.479 OA
ATOM      2  C   UNL     1      34.353 -23.927 -14.714  0.00  0.00    +0.171 C 
ATOM      3  C   UNL     1      33.007 -23.446 -15.252  0.00  0.00    +0.049 C 
ATOM      4  C   UNL     1      33.070 -23.393 -16.774  0.00  0.00    +0.033 C 
ATOM      5  C   UNL     1      34.344 -22.739 -17.225  0.00  0.00    +0.012 C 
ATOM      6  C   UNL     1      35.429 -22.596 -16.351  0.00  0.00    +0.134 C 
ATOM      7  C   UNL     1      35.646 -21.676 -18.976  0.00  0.00    -0.021 C 
ATOM      8  C   UNL     1      34.467 -22.286 -18.546  0.00  0.00    -0.006 C 
ATOM      9  C   UNL     1      36.604 -21.974 -16.780  0.00  0.00    +0.036 C 
ATOM     10  C   UNL     1      36.712 -21.517 -18.093  0.00  0.00    -0.001 C 
ENDROOT
BRANCH   2  11
ATOM     11  C   UNL     1      34.316 -24.045 -13.194  0.00  0.00    +0.070 C 
BRANCH  11  12
ATOM     12  C   UNL     1      35.696 -24.205 -12.614  0.00  0.00    -0.019 C 
ATOM     13  C   UNL     1      36.458 -25.314 -12.957  0.00  0.00    -0.004 C 
ATOM     14  C   UNL     1      36.189 -23.241 -11.745  0.00  0.00    -0.004 C 
ATOM     15  C   UNL     1      37.736 -25.462 -12.420  0.00  0.00    -0.000 C 
ATOM     16  C   UNL     1      37.468 -23.389 -11.209  0.00  0.00    -0.000 C 
ATOM     17  C   UNL     1      38.241 -24.499 -11.546  0.00  0.00    -0.000 C 
ENDBRANCH  11  12
ENDBRANCH   2  11
BRANCH   7  18
ATOM     18  C   UNL     1      35.764 -21.192 -20.382  0.00  0.00    +0.047 C 
BRANCH  18  23
ATOM     19  S   UNL     1      34.242 -19.411 -21.840  0.00  0.00    -0.048 S 
ATOM     20  O   UNL     1      37.715 -18.909 -20.233  0.00  0.00    -0.274 OA
ATOM     21  O   UNL     1      34.949 -17.738 -23.741  0.00  0.00    -0.263 OA
ATOM     22  N   UNL     1      36.477 -18.192 -22.050  0.00  0.00    -0.246 N 
ATOM     23  C   UNL     1      35.449 -19.704 -20.512  0.00  0.00    +0.137 C 
ATOM     24  C   UNL     1      36.678 -18.909 -20.889  0.00  0.00    +0.239 C 
ATOM     25  C   UNL     1      35.280 -18.301 -22.709  0.00  0.00    +0.279 C 
ATOM     26  H   UNL     1      37.187 -17.608 -22.403  0.00  0.00    +0.158 HD
ENDBRANCH  18  23
ENDBRANCH   7  18
TORSDOF 4
ENDMDL
MODEL 8
REMARK VINA RESULT:     -10.6      2.344      3.094
REMARK  Name = 6918151
REMARK  4 active torsions:
REMARK  status: ('A' for Active; 'I' for Inactive)
REMARK    1  A    between atoms: C_2  and  C_11
REMARK    2  A    between atoms: C_7  and  C_18
REMARK    3  A    between atoms: C_11  and  C_12
REMARK    4  A    between atoms: C_18  and  C_23
REMARK                            x       y       z     vdW  Elec       q    Type
REMARK                         _______ _______ _______ _____ _____    ______ ____
ROOT
ATOM      1  O   UNL     1      34.435 -19.078 -21.563  0.00  0.00    -0.479 OA
ATOM      2  C   UNL     1      35.622 -18.711 -22.282  0.00  0.00    +0.171 C 
ATOM      3  C   UNL     1      36.767 -18.375 -21.327  0.00  0.00    +0.049 C 
ATOM      4  C   UNL     1      37.122 -19.617 -20.519  0.00  0.00    +0.033 C 
ATOM      5  C   UNL     1      35.879 -20.283 -20.005  0.00  0.00    +0.012 C 
ATOM      6  C   UNL     1      34.624 -19.989 -20.556  0.00  0.00    +0.134 C 
ATOM      7  C   UNL     1      34.818 -21.857 -18.492  0.00  0.00    -0.021 C 
ATOM      8  C   UNL     1      35.967 -21.232 -18.978  0.00  0.00    -0.006 C 
ATOM      9  C   UNL     1      33.474 -20.606 -20.060  0.00  0.00    +0.036 C 
ATOM     10  C   UNL     1      33.572 -21.542 -19.030  0.00  0.00    -0.001 C 
ENDROOT
BRANCH   2  11
ATOM     11  C   UNL     1      35.271 -17.507 -23.149  0.00  0.00    +0.070 C 
BRANCH  11  12
ATOM     12  C   UNL     1      34.966 -16.291 -22.317  0.00  0.00    -0.019 C 
ATOM     13  C   UNL     1      34.734 -15.074 -22.944  0.00  0.00    -0.004 C 
ATOM     14  C   UNL     1      34.922 -16.402 -20.934  0.00  0.00    -0.004 C 
ATOM     15  C   UNL     1      34.452 -13.947 -22.174  0.00  0.00    -0.000 C 
ATOM     16  C   UNL     1      34.639 -15.274 -20.163  0.00  0.00    -0.000 C 
ATOM     17  C   UNL     1      34.404 -14.047 -20.783  0.00  0.00    -0.000 C 
ENDBRANCH  11  12
ENDBRANCH   2  11
BRANCH   7  18
ATOM     18  C   UNL     1      34.923 -22.861 -17.394  0.00  0.00    +0.047 C 
BRANCH  18  23
ATOM     19  S   UNL     1      37.197 -22.474 -15.878  0.00  0.00    -0.048 S 
ATOM     20  O   UNL     1      33.549 -22.978 -14.723  0.00  0.00    -0.274 OA
ATOM     21  O   UNL     1      37.994 -23.679 -13.682  0.00  0.00    -0.263 OA
ATOM     22  N   UNL     1      35.711 -23.407 -14.022  0.00  0.00    -0.246 N 
ATOM     23  C   UNL     1      35.406 -22.241 -16.085  0.00  0.00    +0.137 C 
ATOM     24  C   UNL     1      34.762 -22.905 -14.889  0.00  0.00    +0.239 C 
ATOM     25  C   UNL     1      37.040 -23.288 -14.337  0.00  0.00    +0.279 C 
ATOM     26  H   UNL     1      35.436 -23.847 -13.185  0.00  0.00    +0.158 HD
ENDBRANCH  18  23
ENDBRANCH   7  18
TORSDOF 4
ENDMDL
MODEL 9
REMARK VINA RESULT:     -10.6      2.070      2.353
REMARK  Name = 6918151
REMARK  4 active torsions:
REMARK  status: ('A' for Active; 'I' for Inactive)
REMARK    1  A    between atoms: C_2  and  C_11
REMARK    2  A    between atoms: C_7  and  C_18
REMARK    3  A    between atoms: C_11  and  C_12
REMARK    4  A    between atoms: C_18  and  C_23
REMARK                            x       y       z     vdW  Elec       q    Type
REMARK                         _______ _______ _______ _____ _____    ______ ____
ROOT
ATOM      1  O   UNL     1      36.052 -20.174 -19.849  0.00  0.00    -0.479 OA
ATOM      2  C   UNL     1      35.054 -19.417 -20.550  0.00  0.00    +0.171 C 
ATOM      3  C   UNL     1      33.905 -20.309 -21.016  0.00  0.00    +0.049 C 
ATOM      4  C   UNL     1      33.212 -20.907 -19.798  0.00  0.00    +0.033 C 
ATOM      5  C   UNL     1      34.225 -21.426 -18.819  0.00  0.00    +0.012 C 
ATOM      6  C   UNL     1      35.566 -21.027 -18.891  0.00  0.00    +0.134 C 
ATOM      7  C   UNL     1      34.760 -22.793 -16.886  0.00  0.00    -0.021 C 
ATOM      8  C   UNL     1      33.827 -22.302 -17.800  0.00  0.00    -0.006 C 
ATOM      9  C   UNL     1      36.501 -21.529 -17.982  0.00  0.00    +0.036 C 
ATOM     10  C   UNL     1      36.097 -22.409 -16.979  0.00  0.00    -0.001 C 
ENDROOT
BRANCH   2  11
ATOM     11  C   UNL     1      35.742 -18.755 -21.738  0.00  0.00    +0.070 C 
BRANCH  11  12
ATOM     12  C   UNL     1      35.304 -17.325 -21.909  0.00  0.00    -0.019 C 
ATOM     13  C   UNL     1      35.087 -16.537 -20.786  0.00  0.00    -0.004 C 
ATOM     14  C   UNL     1      35.124 -16.813 -23.187  0.00  0.00    -0.004 C 
ATOM     15  C   UNL     1      34.682 -15.212 -20.944  0.00  0.00    -0.000 C 
ATOM     16  C   UNL     1      34.719 -15.487 -23.344  0.00  0.00    -0.000 C 
ATOM     17  C   UNL     1      34.497 -14.688 -22.224  0.00  0.00    -0.000 C 
ENDBRANCH  11  12
ENDBRANCH   2  11
BRANCH   7  18
ATOM     18  C   UNL     1      34.327 -23.729 -15.809  0.00  0.00    +0.047 C 
BRANCH  18  23
ATOM     19  S   UNL     1      36.660 -24.415 -14.503  0.00  0.00    -0.048 S 
ATOM     20  O   UNL     1      33.173 -23.653 -13.034  0.00  0.00    -0.274 OA
ATOM     21  O   UNL     1      37.059 -26.094 -12.519  0.00  0.00    -0.263 OA
ATOM     22  N   UNL     1      35.041 -24.946 -12.599  0.00  0.00    -0.246 N 
ATOM     23  C   UNL     1      35.086 -23.503 -14.504  0.00  0.00    +0.137 C 
ATOM     24  C   UNL     1      34.309 -24.021 -13.315  0.00  0.00    +0.239 C 
ATOM     25  C   UNL     1      36.292 -25.296 -13.035  0.00  0.00    +0.279 C 
ATOM     26  H   UNL     1      34.667 -25.350 -11.783  0.00  0.00    +0.158 HD
ENDBRANCH  18  23
ENDBRANCH   7  18
TORSDOF 4
ENDMDL
