MODEL 1
REMARK VINA RESULT:     -11.6      0.000      0.000
REMARK  Name = 56640146
REMARK  6 active torsions:
REMARK  status: ('A' for Active; 'I' for Inactive)
REMARK    1  A    between atoms: C_1  and  C_32
REMARK    2  A    between atoms: C_2  and  O_36
REMARK    3  A    between atoms: C_3  and  C_7
REMARK    4  A    between atoms: C_5  and  N_25
REMARK    5  A    between atoms: C_15  and  N_17
REMARK    6  A    between atoms: N_17  and  S_19
REMARK                            x       y       z     vdW  Elec       q    Type
REMARK                         _______ _______ _______ _____ _____    ______ ____
ROOT
ATOM      1  C   UNL     1      35.617 -23.740 -14.997  0.00  0.00    +0.012 C 
ATOM      2  C   UNL     1      35.728 -22.969 -16.154  0.00  0.00    +0.135 C 
ATOM      3  C   UNL     1      34.586 -22.645 -16.889  0.00  0.00    +0.035 C 
ATOM      4  C   UNL     1      34.367 -24.190 -14.575  0.00  0.00    +0.014 C 
ATOM      5  C   UNL     1      33.225 -23.868 -15.310  0.00  0.00    +0.059 C 
ATOM      6  C   UNL     1      33.336 -23.095 -16.467  0.00  0.00    +0.018 C 
ENDROOT
BRANCH   3   7
ATOM      7  C   UNL     1      34.678 -21.846 -18.091  0.00  0.00    +0.003 C 
ATOM      8  C   UNL     1      35.876 -21.212 -18.418  0.00  0.00    +0.000 C 
ATOM      9  C   UNL     1      35.979 -20.432 -19.582  0.00  0.00    +0.000 C 
ATOM     10  C   UNL     1      33.568 -21.710 -18.920  0.00  0.00    +0.000 C 
ATOM     11  C   UNL     1      34.852 -20.293 -20.425  0.00  0.00    +0.001 C 
ATOM     12  C   UNL     1      33.653 -20.939 -20.080  0.00  0.00    +0.000 C 
ATOM     13  C   UNL     1      37.179 -19.786 -19.927  0.00  0.00    +0.001 C 
ATOM     14  C   UNL     1      34.956 -19.514 -21.589  0.00  0.00    +0.016 C 
ATOM     15  C   UNL     1      36.155 -18.879 -21.915  0.00  0.00    +0.064 C 
ATOM     16  C   UNL     1      37.264 -19.016 -21.086  0.00  0.00    +0.016 C 
BRANCH  15  17
ATOM     17  N   UNL     1      36.243 -18.089 -23.101  0.00  0.00    -0.219 N 
ATOM     18  H   UNL     1      37.098 -17.989 -23.579  0.00  0.00    +0.173 HD
BRANCH  17  19
ATOM     19  S   UNL     1      34.813 -17.317 -23.673  0.00  0.00    +0.056 S 
ATOM     20  O   UNL     1      35.153 -16.533 -24.845  0.00  0.00    -0.154 OA
ATOM     21  O   UNL     1      33.700 -18.245 -23.704  0.00  0.00    -0.154 OA
ATOM     22  C   UNL     1      34.527 -16.166 -22.348  0.00  0.00    +0.200 C 
ENDBRANCH  17  19
ENDBRANCH  15  17
ENDBRANCH   3   7
BRANCH   5  25
ATOM     23  O   UNL     1      32.646 -24.946 -12.701  0.00  0.00    -0.251 OA
ATOM     24  O   UNL     1      28.234 -25.640 -13.742  0.00  0.00    -0.270 OA
ATOM     25  N   UNL     1      31.925 -24.334 -14.871  0.00  0.00    -0.220 N 
ATOM     26  N   UNL     1      30.479 -25.341 -13.273  0.00  0.00    -0.235 N 
ATOM     27  C   UNL     1      31.771 -24.886 -13.570  0.00  0.00    +0.318 C 
ATOM     28  C   UNL     1      30.816 -24.229 -15.705  0.00  0.00    +0.078 C 
ATOM     29  C   UNL     1      29.588 -24.638 -15.383  0.00  0.00    +0.075 C 
ATOM     30  C   UNL     1      29.352 -25.253 -14.069  0.00  0.00    +0.254 C 
ATOM     31  H   UNL     1      30.359 -25.774 -12.397  0.00  0.00    +0.159 HD
ENDBRANCH   5  25
BRANCH   1  32
ATOM     32  C   UNL     1      36.827 -24.095 -14.197  0.00  0.00    +0.022 C 
ATOM     33  C   UNL     1      36.680 -25.506 -13.549  0.00  0.00    +0.004 C 
ATOM     34  C   UNL     1      38.171 -24.141 -14.997  0.00  0.00    +0.004 C 
ATOM     35  C   UNL     1      37.063 -23.070 -13.045  0.00  0.00    +0.004 C 
ENDBRANCH   1  32
BRANCH   2  36
ATOM     36  O   UNL     1      36.957 -22.533 -16.558  0.00  0.00    -0.472 OA
ATOM     37  C   UNL     1      37.372 -21.252 -16.090  0.00  0.00    +0.252 C 
ENDBRANCH   2  36
TORSDOF 6
ENDMDL
MODEL 2
REMARK VINA RESULT:     -11.4     10.726     14.903
REMARK  Name = 56640146
REMARK  6 active torsions:
REMARK  status: ('A' for Active; 'I' for Inactive)
REMARK    1  A    between atoms: C_1  and  C_32
REMARK    2  A    between atoms: C_2  and  O_36
REMARK    3  A    between atoms: C_3  and  C_7
REMARK    4  A    between atoms: C_5  and  N_25
REMARK    5  A    between atoms: C_15  and  N_17
REMARK    6  A    between atoms: N_17  and  S_19
REMARK                            x       y       z     vdW  Elec       q    Type
REMARK                         _______ _______ _______ _____ _____    ______ ____
ROOT
ATOM      1  C   UNL     1      32.218 -10.775 -20.845  0.00  0.00    +0.012 C 
ATOM      2  C   UNL     1      32.246  -9.604 -21.603  0.00  0.00    +0.135 C 
ATOM      3  C   UNL     1      32.670  -9.643 -22.932  0.00  0.00    +0.035 C 
ATOM      4  C   UNL     1      32.615 -11.984 -21.414  0.00  0.00    +0.014 C 
ATOM      5  C   UNL     1      33.040 -12.024 -22.742  0.00  0.00    +0.059 C 
ATOM      6  C   UNL     1      33.068 -10.853 -23.501  0.00  0.00    +0.018 C 
ENDROOT
BRANCH   3   7
ATOM      7  C   UNL     1      32.706  -8.441 -23.736  0.00  0.00    +0.003 C 
ATOM      8  C   UNL     1      33.924  -7.817 -24.004  0.00  0.00    +0.000 C 
ATOM      9  C   UNL     1      33.974  -6.649 -24.783  0.00  0.00    +0.000 C 
ATOM     10  C   UNL     1      31.523  -7.909 -24.243  0.00  0.00    +0.000 C 
ATOM     11  C   UNL     1      32.772  -6.108 -25.297  0.00  0.00    +0.001 C 
ATOM     12  C   UNL     1      31.555  -6.750 -25.018  0.00  0.00    +0.000 C 
ATOM     13  C   UNL     1      35.192  -6.007 -25.062  0.00  0.00    +0.001 C 
ATOM     14  C   UNL     1      32.823  -4.940 -26.077  0.00  0.00    +0.016 C 
ATOM     15  C   UNL     1      34.042  -4.315 -26.343  0.00  0.00    +0.064 C 
ATOM     16  C   UNL     1      35.224  -4.848 -25.838  0.00  0.00    +0.016 C 
BRANCH  15  17
ATOM     17  N   UNL     1      34.076  -3.129 -27.136  0.00  0.00    -0.219 N 
ATOM     18  H   UNL     1      34.287  -2.256 -26.732  0.00  0.00    +0.173 HD
BRANCH  17  19
ATOM     19  S   UNL     1      33.738  -3.265 -28.820  0.00  0.00    +0.056 S 
ATOM     20  O   UNL     1      34.344  -4.488 -29.312  0.00  0.00    -0.154 OA
ATOM     21  O   UNL     1      32.347  -2.970 -29.095  0.00  0.00    -0.154 OA
ATOM     22  C   UNL     1      34.717  -1.918 -29.446  0.00  0.00    +0.200 C 
ENDBRANCH  17  19
ENDBRANCH  15  17
ENDBRANCH   3   7
BRANCH   5  25
ATOM     23  O   UNL     1      34.779 -13.953 -21.492  0.00  0.00    -0.251 OA
ATOM     24  O   UNL     1      34.571 -16.782 -25.096  0.00  0.00    -0.270 OA
ATOM     25  N   UNL     1      33.453 -13.281 -23.335  0.00  0.00    -0.220 N 
ATOM     26  N   UNL     1      34.710 -15.301 -23.325  0.00  0.00    -0.235 N 
ATOM     27  C   UNL     1      34.350 -14.134 -22.635  0.00  0.00    +0.318 C 
ATOM     28  C   UNL     1      32.962 -13.674 -24.576  0.00  0.00    +0.078 C 
ATOM     29  C   UNL     1      33.294 -14.808 -25.194  0.00  0.00    +0.075 C 
ATOM     30  C   UNL     1      34.245 -15.729 -24.554  0.00  0.00    +0.254 C 
ATOM     31  H   UNL     1      35.370 -15.883 -22.883  0.00  0.00    +0.159 HD
ENDBRANCH   5  25
BRANCH   1  32
ATOM     32  C   UNL     1      31.766 -10.753 -19.422  0.00  0.00    +0.022 C 
ATOM     33  C   UNL     1      31.921 -12.157 -18.761  0.00  0.00    +0.004 C 
ATOM     34  C   UNL     1      32.538  -9.764 -18.488  0.00  0.00    +0.004 C 
ATOM     35  C   UNL     1      30.265 -10.343 -19.312  0.00  0.00    +0.004 C 
ENDBRANCH   1  32
BRANCH   2  36
ATOM     36  O   UNL     1      31.855  -8.425 -21.036  0.00  0.00    -0.472 OA
ATOM     37  C   UNL     1      32.887  -7.518 -20.660  0.00  0.00    +0.252 C 
ENDBRANCH   2  36
TORSDOF 6
ENDMDL
MODEL 3
REMARK VINA RESULT:     -11.1      0.957      1.637
REMARK  Name = 56640146
REMARK  6 active torsions:
REMARK  status: ('A' for Active; 'I' for Inactive)
REMARK    1  A    between atoms: C_1  and  C_32
REMARK    2  A    between atoms: C_2  and  O_36
REMARK    3  A    between atoms: C_3  and  C_7
REMARK    4  A    between atoms: C_5  and  N_25
REMARK    5  A    between atoms: C_15  and  N_17
REMARK    6  A    between atoms: N_17  and  S_19
REMARK                            x       y       z     vdW  Elec       q    Type
REMARK                         _______ _______ _______ _____ _____    ______ ____
ROOT
ATOM      1  C   UNL     1      35.795 -23.962 -14.602  0.00  0.00    +0.012 C 
ATOM      2  C   UNL     1      36.030 -23.192 -15.740  0.00  0.00    +0.135 C 
ATOM      3  C   UNL     1      34.964 -22.805 -16.554  0.00  0.00    +0.035 C 
ATOM      4  C   UNL     1      34.495 -24.350 -14.278  0.00  0.00    +0.014 C 
ATOM      5  C   UNL     1      33.429 -23.965 -15.092  0.00  0.00    +0.059 C 
ATOM      6  C   UNL     1      33.664 -23.193 -16.230  0.00  0.00    +0.018 C 
ENDROOT
BRANCH   3   7
ATOM      7  C   UNL     1      35.185 -22.005 -17.739  0.00  0.00    +0.003 C 
ATOM      8  C   UNL     1      34.101 -21.585 -18.509  0.00  0.00    +0.000 C 
ATOM      9  C   UNL     1      34.301 -20.809 -19.663  0.00  0.00    +0.000 C 
ATOM     10  C   UNL     1      36.481 -21.655 -18.108  0.00  0.00    +0.000 C 
ATOM     11  C   UNL     1      35.617 -20.453 -20.039  0.00  0.00    +0.001 C 
ATOM     12  C   UNL     1      36.697 -20.884 -19.251  0.00  0.00    +0.000 C 
ATOM     13  C   UNL     1      33.220 -20.377 -20.451  0.00  0.00    +0.001 C 
ATOM     14  C   UNL     1      35.816 -19.675 -21.192  0.00  0.00    +0.016 C 
ATOM     15  C   UNL     1      34.732 -19.256 -21.963  0.00  0.00    +0.064 C 
ATOM     16  C   UNL     1      33.436 -19.605 -21.593  0.00  0.00    +0.016 C 
BRANCH  15  17
ATOM     17  N   UNL     1      34.951 -18.468 -23.132  0.00  0.00    -0.219 N 
ATOM     18  H   UNL     1      35.064 -18.891 -24.014  0.00  0.00    +0.173 HD
BRANCH  17  19
ATOM     19  S   UNL     1      35.012 -16.754 -22.959  0.00  0.00    +0.056 S 
ATOM     20  O   UNL     1      34.301 -16.390 -21.748  0.00  0.00    -0.154 OA
ATOM     21  O   UNL     1      36.350 -16.256 -23.206  0.00  0.00    -0.154 OA
ATOM     22  C   UNL     1      33.986 -16.264 -24.327  0.00  0.00    +0.200 C 
ENDBRANCH  17  19
ENDBRANCH  15  17
ENDBRANCH   3   7
BRANCH   5  25
ATOM     23  O   UNL     1      32.625 -25.136 -12.584  0.00  0.00    -0.251 OA
ATOM     24  O   UNL     1      28.249 -25.481 -13.912  0.00  0.00    -0.270 OA
ATOM     25  N   UNL     1      32.077 -24.366 -14.754  0.00  0.00    -0.220 N 
ATOM     26  N   UNL     1      30.476 -25.356 -13.300  0.00  0.00    -0.235 N 
ATOM     27  C   UNL     1      31.811 -24.973 -13.497  0.00  0.00    +0.318 C 
ATOM     28  C   UNL     1      31.030 -24.144 -15.643  0.00  0.00    +0.078 C 
ATOM     29  C   UNL     1      29.762 -24.487 -15.415  0.00  0.00    +0.075 C 
ATOM     30  C   UNL     1      29.408 -25.153 -14.152  0.00  0.00    +0.254 C 
ATOM     31  H   UNL     1      30.277 -25.825 -12.457  0.00  0.00    +0.159 HD
ENDBRANCH   5  25
BRANCH   1  32
ATOM     32  C   UNL     1      36.922 -24.384 -13.718  0.00  0.00    +0.022 C 
ATOM     33  C   UNL     1      36.529 -25.623 -12.856  0.00  0.00    +0.004 C 
ATOM     34  C   UNL     1      38.238 -24.791 -14.458  0.00  0.00    +0.004 C 
ATOM     35  C   UNL     1      37.331 -23.240 -12.740  0.00  0.00    +0.004 C 
ENDBRANCH   1  32
BRANCH   2  36
ATOM     36  O   UNL     1      37.306 -22.818 -16.049  0.00  0.00    -0.472 OA
ATOM     37  C   UNL     1      37.712 -21.515 -15.638  0.00  0.00    +0.252 C 
ENDBRANCH   2  36
TORSDOF 6
ENDMDL
MODEL 4
REMARK VINA RESULT:      -9.6      7.578     14.293
REMARK  Name = 56640146
REMARK  6 active torsions:
REMARK  status: ('A' for Active; 'I' for Inactive)
REMARK    1  A    between atoms: C_1  and  C_32
REMARK    2  A    between atoms: C_2  and  O_36
REMARK    3  A    between atoms: C_3  and  C_7
REMARK    4  A    between atoms: C_5  and  N_25
REMARK    5  A    between atoms: C_15  and  N_17
REMARK    6  A    between atoms: N_17  and  S_19
REMARK                            x       y       z     vdW  Elec       q    Type
REMARK                         _______ _______ _______ _____ _____    ______ ____
ROOT
ATOM      1  C   UNL     1      32.134  -9.588 -20.660  0.00  0.00    +0.012 C 
ATOM      2  C   UNL     1      32.502 -10.854 -21.115  0.00  0.00    +0.135 C 
ATOM      3  C   UNL     1      32.995 -11.014 -22.411  0.00  0.00    +0.035 C 
ATOM      4  C   UNL     1      32.257  -8.481 -21.500  0.00  0.00    +0.014 C 
ATOM      5  C   UNL     1      32.750  -8.641 -22.796  0.00  0.00    +0.059 C 
ATOM      6  C   UNL     1      33.119  -9.907 -23.250  0.00  0.00    +0.018 C 
ENDROOT
BRANCH   3   7
ATOM      7  C   UNL     1      33.384 -12.318 -22.903  0.00  0.00    +0.003 C 
ATOM      8  C   UNL     1      34.016 -13.224 -22.052  0.00  0.00    +0.000 C 
ATOM      9  C   UNL     1      34.400 -14.494 -22.516  0.00  0.00    +0.000 C 
ATOM     10  C   UNL     1      33.126 -12.665 -24.226  0.00  0.00    +0.000 C 
ATOM     11  C   UNL     1      34.138 -14.847 -23.861  0.00  0.00    +0.001 C 
ATOM     12  C   UNL     1      33.500 -13.921 -24.703  0.00  0.00    +0.000 C 
ATOM     13  C   UNL     1      35.037 -15.420 -21.674  0.00  0.00    +0.001 C 
ATOM     14  C   UNL     1      34.521 -16.117 -24.324  0.00  0.00    +0.016 C 
ATOM     15  C   UNL     1      35.154 -17.023 -23.474  0.00  0.00    +0.064 C 
ATOM     16  C   UNL     1      35.411 -16.676 -22.151  0.00  0.00    +0.016 C 
BRANCH  15  17
ATOM     17  N   UNL     1      35.538 -18.309 -23.961  0.00  0.00    -0.219 N 
ATOM     18  H   UNL     1      36.439 -18.464 -24.325  0.00  0.00    +0.173 HD
BRANCH  17  19
ATOM     19  S   UNL     1      34.381 -19.584 -23.893  0.00  0.00    +0.056 S 
ATOM     20  O   UNL     1      33.100 -19.065 -24.336  0.00  0.00    -0.154 OA
ATOM     21  O   UNL     1      34.919 -20.803 -24.463  0.00  0.00    -0.154 OA
ATOM     22  C   UNL     1      34.265 -19.809 -22.132  0.00  0.00    +0.200 C 
ENDBRANCH  17  19
ENDBRANCH  15  17
ENDBRANCH   3   7
BRANCH   5  25
ATOM     23  O   UNL     1      30.598  -7.451 -24.299  0.00  0.00    -0.251 OA
ATOM     24  O   UNL     1      33.353  -4.266 -26.115  0.00  0.00    -0.270 OA
ATOM     25  N   UNL     1      32.880  -7.491 -23.669  0.00  0.00    -0.220 N 
ATOM     26  N   UNL     1      32.006  -5.928 -25.235  0.00  0.00    -0.235 N 
ATOM     27  C   UNL     1      31.751  -7.019 -24.392  0.00  0.00    +0.318 C 
ATOM     28  C   UNL     1      34.097  -6.827 -23.791  0.00  0.00    +0.078 C 
ATOM     29  C   UNL     1      34.304  -5.768 -24.574  0.00  0.00    +0.075 C 
ATOM     30  C   UNL     1      33.196  -5.240 -25.384  0.00  0.00    +0.254 C 
ATOM     31  H   UNL     1      31.252  -5.615 -25.786  0.00  0.00    +0.159 HD
ENDBRANCH   5  25
BRANCH   1  32
ATOM     32  C   UNL     1      31.605  -9.396 -19.277  0.00  0.00    +0.022 C 
ATOM     33  C   UNL     1      30.187 -10.028 -19.123  0.00  0.00    +0.004 C 
ATOM     34  C   UNL     1      32.469 -10.026 -18.135  0.00  0.00    +0.004 C 
ATOM     35  C   UNL     1      31.486  -7.882 -18.923  0.00  0.00    +0.004 C 
ENDBRANCH   1  32
BRANCH   2  36
ATOM     36  O   UNL     1      32.377 -11.930 -20.285  0.00  0.00    -0.472 OA
ATOM     37  C   UNL     1      31.345 -12.864 -20.593  0.00  0.00    +0.252 C 
ENDBRANCH   2  36
TORSDOF 6
ENDMDL
MODEL 5
REMARK VINA RESULT:      -9.4     10.480     18.533
REMARK  Name = 56640146
REMARK  6 active torsions:
REMARK  status: ('A' for Active; 'I' for Inactive)
REMARK    1  A    between atoms: C_1  and  C_32
REMARK    2  A    between atoms: C_2  and  O_36
REMARK    3  A    between atoms: C_3  and  C_7
REMARK    4  A    between atoms: C_5  and  N_25
REMARK    5  A    between atoms: C_15  and  N_17
REMARK    6  A    between atoms: N_17  and  S_19
REMARK                            x       y       z     vdW  Elec       q    Type
REMARK                         _______ _______ _______ _____ _____    ______ ____
ROOT
ATOM      1  C   UNL     1      31.755  -4.190 -23.583  0.00  0.00    +0.012 C 
ATOM      2  C   UNL     1      31.705  -5.512 -23.143  0.00  0.00    +0.135 C 
ATOM      3  C   UNL     1      32.362  -6.512 -23.861  0.00  0.00    +0.035 C 
ATOM      4  C   UNL     1      32.461  -3.866 -24.742  0.00  0.00    +0.014 C 
ATOM      5  C   UNL     1      33.117  -4.866 -25.460  0.00  0.00    +0.059 C 
ATOM      6  C   UNL     1      33.067  -6.189 -25.020  0.00  0.00    +0.018 C 
ENDROOT
BRANCH   3   7
ATOM      7  C   UNL     1      32.323  -7.890 -23.422  0.00  0.00    +0.003 C 
ATOM      8  C   UNL     1      33.319  -8.779 -23.825  0.00  0.00    +0.000 C 
ATOM      9  C   UNL     1      33.295 -10.120 -23.407  0.00  0.00    +0.000 C 
ATOM     10  C   UNL     1      31.289  -8.328 -22.598  0.00  0.00    +0.000 C 
ATOM     11  C   UNL     1      32.245 -10.565 -22.570  0.00  0.00    +0.001 C 
ATOM     12  C   UNL     1      31.249  -9.656 -22.174  0.00  0.00    +0.000 C 
ATOM     13  C   UNL     1      34.291 -11.029 -23.803  0.00  0.00    +0.001 C 
ATOM     14  C   UNL     1      32.221 -11.906 -22.152  0.00  0.00    +0.016 C 
ATOM     15  C   UNL     1      33.218 -12.795 -22.556  0.00  0.00    +0.064 C 
ATOM     16  C   UNL     1      34.251 -12.357 -23.378  0.00  0.00    +0.016 C 
BRANCH  15  17
ATOM     17  N   UNL     1      33.178 -14.155 -22.123  0.00  0.00    -0.219 N 
ATOM     18  H   UNL     1      32.726 -14.844 -22.662  0.00  0.00    +0.173 HD
BRANCH  17  19
ATOM     19  S   UNL     1      33.942 -14.557 -20.632  0.00  0.00    +0.056 S 
ATOM     20  O   UNL     1      34.974 -13.573 -20.365  0.00  0.00    -0.154 OA
ATOM     21  O   UNL     1      32.960 -14.888 -19.619  0.00  0.00    -0.154 OA
ATOM     22  C   UNL     1      34.771 -16.059 -21.100  0.00  0.00    +0.200 C 
ENDBRANCH  17  19
ENDBRANCH  15  17
ENDBRANCH   3   7
BRANCH   5  25
ATOM     23  O   UNL     1      31.923  -4.174 -27.990  0.00  0.00    -0.251 OA
ATOM     24  O   UNL     1      36.008  -3.620 -30.000  0.00  0.00    -0.270 OA
ATOM     25  N   UNL     1      33.851  -4.530 -26.665  0.00  0.00    -0.220 N 
ATOM     26  N   UNL     1      33.965  -3.975 -28.975  0.00  0.00    -0.235 N 
ATOM     27  C   UNL     1      33.149  -4.245 -27.867  0.00  0.00    +0.318 C 
ATOM     28  C   UNL     1      35.241  -4.462 -26.651  0.00  0.00    +0.078 C 
ATOM     29  C   UNL     1      35.992  -4.167 -27.712  0.00  0.00    +0.075 C 
ATOM     30  C   UNL     1      35.345  -3.895 -29.004  0.00  0.00    +0.254 C 
ATOM     31  H   UNL     1      33.503  -3.825 -29.832  0.00  0.00    +0.159 HD
ENDBRANCH   5  25
BRANCH   1  32
ATOM     32  C   UNL     1      31.059  -3.106 -22.828  0.00  0.00    +0.022 C 
ATOM     33  C   UNL     1      30.212  -2.209 -23.781  0.00  0.00    +0.004 C 
ATOM     34  C   UNL     1      30.068  -3.590 -21.719  0.00  0.00    +0.004 C 
ATOM     35  C   UNL     1      32.082  -2.182 -22.096  0.00  0.00    +0.004 C 
ENDBRANCH   1  32
BRANCH   2  36
ATOM     36  O   UNL     1      31.011  -5.818 -22.007  0.00  0.00    -0.472 OA
ATOM     37  C   UNL     1      31.764  -5.919 -20.801  0.00  0.00    +0.252 C 
ENDBRANCH   2  36
TORSDOF 6
ENDMDL
MODEL 6
REMARK VINA RESULT:      -9.2      9.720     17.745
REMARK  Name = 56640146
REMARK  6 active torsions:
REMARK  status: ('A' for Active; 'I' for Inactive)
REMARK    1  A    between atoms: C_1  and  C_32
REMARK    2  A    between atoms: C_2  and  O_36
REMARK    3  A    between atoms: C_3  and  C_7
REMARK    4  A    between atoms: C_5  and  N_25
REMARK    5  A    between atoms: C_15  and  N_17
REMARK    6  A    between atoms: N_17  and  S_19
REMARK                            x       y       z     vdW  Elec       q    Type
REMARK                         _______ _______ _______ _____ _____    ______ ____
ROOT
ATOM      1  C   UNL     1      32.043  -5.329 -22.965  0.00  0.00    +0.012 C 
ATOM      2  C   UNL     1      32.357  -6.678 -22.798  0.00  0.00    +0.135 C 
ATOM      3  C   UNL     1      32.998  -7.377 -23.821  0.00  0.00    +0.035 C 
ATOM      4  C   UNL     1      32.368  -4.679 -24.155  0.00  0.00    +0.014 C 
ATOM      5  C   UNL     1      33.008  -5.378 -25.179  0.00  0.00    +0.059 C 
ATOM      6  C   UNL     1      33.323  -6.727 -25.012  0.00  0.00    +0.018 C 
ENDROOT
BRANCH   3   7
ATOM      7  C   UNL     1      33.334  -8.776 -23.669  0.00  0.00    +0.003 C 
ATOM      8  C   UNL     1      32.371  -9.680 -23.222  0.00  0.00    +0.000 C 
ATOM      9  C   UNL     1      32.682 -11.041 -23.068  0.00  0.00    +0.000 C 
ATOM     10  C   UNL     1      34.619  -9.218 -23.969  0.00  0.00    +0.000 C 
ATOM     11  C   UNL     1      33.989 -11.491 -23.373  0.00  0.00    +0.001 C 
ATOM     12  C   UNL     1      34.946 -10.566 -23.823  0.00  0.00    +0.000 C 
ATOM     13  C   UNL     1      31.724 -11.965 -22.619  0.00  0.00    +0.001 C 
ATOM     14  C   UNL     1      34.299 -12.852 -23.220  0.00  0.00    +0.016 C 
ATOM     15  C   UNL     1      33.336 -13.756 -22.772  0.00  0.00    +0.064 C 
ATOM     16  C   UNL     1      32.051 -13.314 -22.472  0.00  0.00    +0.016 C 
BRANCH  15  17
ATOM     17  N   UNL     1      33.669 -15.136 -22.620  0.00  0.00    -0.219 N 
ATOM     18  H   UNL     1      33.364 -15.647 -21.836  0.00  0.00    +0.173 HD
BRANCH  17  19
ATOM     19  S   UNL     1      34.618 -15.883 -23.849  0.00  0.00    +0.056 S 
ATOM     20  O   UNL     1      33.887 -15.812 -25.100  0.00  0.00    -0.154 OA
ATOM     21  O   UNL     1      35.997 -15.447 -23.775  0.00  0.00    -0.154 OA
ATOM     22  C   UNL     1      34.551 -17.577 -23.309  0.00  0.00    +0.200 C 
ENDBRANCH  17  19
ENDBRANCH  15  17
ENDBRANCH   3   7
BRANCH   5  25
ATOM     23  O   UNL     1      35.688  -4.874 -26.112  0.00  0.00    -0.251 OA
ATOM     24  O   UNL     1      34.193  -2.774 -29.905  0.00  0.00    -0.270 OA
ATOM     25  N   UNL     1      33.346  -4.702 -26.416  0.00  0.00    -0.220 N 
ATOM     26  N   UNL     1      34.913  -3.777 -27.949  0.00  0.00    -0.235 N 
ATOM     27  C   UNL     1      34.709  -4.475 -26.750  0.00  0.00    +0.318 C 
ATOM     28  C   UNL     1      32.349  -4.291 -27.295  0.00  0.00    +0.078 C 
ATOM     29  C   UNL     1      32.572  -3.660 -28.448  0.00  0.00    +0.075 C 
ATOM     30  C   UNL     1      33.953  -3.354 -28.850  0.00  0.00    +0.254 C 
ATOM     31  H   UNL     1      35.846  -3.562 -28.176  0.00  0.00    +0.159 HD
ENDBRANCH   5  25
BRANCH   1  32
ATOM     32  C   UNL     1      31.359  -4.563 -21.881  0.00  0.00    +0.022 C 
ATOM     33  C   UNL     1      31.014  -3.115 -22.344  0.00  0.00    +0.004 C 
ATOM     34  C   UNL     1      30.008  -5.173 -21.379  0.00  0.00    +0.004 C 
ATOM     35  C   UNL     1      32.261  -4.451 -20.613  0.00  0.00    +0.004 C 
ENDBRANCH   1  32
BRANCH   2  36
ATOM     36  O   UNL     1      32.035  -7.304 -21.629  0.00  0.00    -0.472 OA
ATOM     37  C   UNL     1      33.088  -7.489 -20.686  0.00  0.00    +0.252 C 
ENDBRANCH   2  36
TORSDOF 6
ENDMDL
MODEL 7
REMARK VINA RESULT:      -9.2      7.803     15.575
REMARK  Name = 56640146
REMARK  6 active torsions:
REMARK  status: ('A' for Active; 'I' for Inactive)
REMARK    1  A    between atoms: C_1  and  C_32
REMARK    2  A    between atoms: C_2  and  O_36
REMARK    3  A    between atoms: C_3  and  C_7
REMARK    4  A    between atoms: C_5  and  N_25
REMARK    5  A    between atoms: C_15  and  N_17
REMARK    6  A    between atoms: N_17  and  S_19
REMARK                            x       y       z     vdW  Elec       q    Type
REMARK                         _______ _______ _______ _____ _____    ______ ____
ROOT
ATOM      1  C   UNL     1      32.513  -7.940 -21.665  0.00  0.00    +0.012 C 
ATOM      2  C   UNL     1      32.706  -9.307 -21.862  0.00  0.00    +0.135 C 
ATOM      3  C   UNL     1      33.252  -9.770 -23.060  0.00  0.00    +0.035 C 
ATOM      4  C   UNL     1      32.863  -7.034 -22.666  0.00  0.00    +0.014 C 
ATOM      5  C   UNL     1      33.408  -7.496 -23.865  0.00  0.00    +0.059 C 
ATOM      6  C   UNL     1      33.602  -8.864 -24.061  0.00  0.00    +0.018 C 
ENDROOT
BRANCH   3   7
ATOM      7  C   UNL     1      33.461 -11.183 -23.285  0.00  0.00    +0.003 C 
ATOM      8  C   UNL     1      34.011 -11.975 -22.278  0.00  0.00    +0.000 C 
ATOM      9  C   UNL     1      34.222 -13.350 -22.482  0.00  0.00    +0.000 C 
ATOM     10  C   UNL     1      33.114 -11.751 -24.508  0.00  0.00    +0.000 C 
ATOM     11  C   UNL     1      33.869 -13.927 -23.725  0.00  0.00    +0.001 C 
ATOM     12  C   UNL     1      33.316 -13.113 -24.727  0.00  0.00    +0.000 C 
ATOM     13  C   UNL     1      34.775 -14.163 -21.479  0.00  0.00    +0.001 C 
ATOM     14  C   UNL     1      34.079 -15.301 -23.928  0.00  0.00    +0.016 C 
ATOM     15  C   UNL     1      34.630 -16.093 -22.921  0.00  0.00    +0.064 C 
ATOM     16  C   UNL     1      34.977 -15.526 -21.698  0.00  0.00    +0.016 C 
BRANCH  15  17
ATOM     17  N   UNL     1      34.838 -17.487 -23.144  0.00  0.00    -0.219 N 
ATOM     18  H   UNL     1      34.585 -17.906 -23.998  0.00  0.00    +0.173 HD
BRANCH  17  19
ATOM     19  S   UNL     1      35.546 -18.418 -21.878  0.00  0.00    +0.056 S 
ATOM     20  O   UNL     1      36.986 -18.410 -22.052  0.00  0.00    -0.154 OA
ATOM     21  O   UNL     1      34.957 -18.082 -20.597  0.00  0.00    -0.154 OA
ATOM     22  C   UNL     1      34.981 -20.043 -22.330  0.00  0.00    +0.200 C 
ENDBRANCH  17  19
ENDBRANCH  15  17
ENDBRANCH   3   7
BRANCH   5  25
ATOM     23  O   UNL     1      35.929  -6.109 -24.034  0.00  0.00    -0.251 OA
ATOM     24  O   UNL     1      34.696  -3.910 -27.864  0.00  0.00    -0.270 OA
ATOM     25  N   UNL     1      33.773  -6.555 -24.905  0.00  0.00    -0.220 N 
ATOM     26  N   UNL     1      35.259  -4.983 -25.895  0.00  0.00    -0.235 N 
ATOM     27  C   UNL     1      35.034  -5.901 -24.859  0.00  0.00    +0.318 C 
ATOM     28  C   UNL     1      32.909  -6.300 -25.965  0.00  0.00    +0.078 C 
ATOM     29  C   UNL     1      33.163  -5.447 -26.958  0.00  0.00    +0.075 C 
ATOM     30  C   UNL     1      34.431  -4.702 -26.965  0.00  0.00    +0.254 C 
ATOM     31  H   UNL     1      36.104  -4.479 -25.855  0.00  0.00    +0.159 HD
ENDBRANCH   5  25
BRANCH   1  32
ATOM     32  C   UNL     1      31.931  -7.426 -20.390  0.00  0.00    +0.022 C 
ATOM     33  C   UNL     1      30.815  -6.371 -20.664  0.00  0.00    +0.004 C 
ATOM     34  C   UNL     1      31.268  -8.505 -19.472  0.00  0.00    +0.004 C 
ATOM     35  C   UNL     1      33.020  -6.741 -19.508  0.00  0.00    +0.004 C 
ENDBRANCH   1  32
BRANCH   2  36
ATOM     36  O   UNL     1      32.359 -10.185 -20.875  0.00  0.00    -0.472 OA
ATOM     37  C   UNL     1      31.149 -10.916 -21.060  0.00  0.00    +0.252 C 
ENDBRANCH   2  36
TORSDOF 6
ENDMDL
