MODEL 1
REMARK VINA RESULT:     -11.3      0.000      0.000
REMARK  Name = 24779674
REMARK  2 active torsions:
REMARK  status: ('A' for Active; 'I' for Inactive)
REMARK    1  A    between atoms: N_2  and  C_14
REMARK    2  A    between atoms: N_5  and  C_20
REMARK                            x       y       z     vdW  Elec       q    Type
REMARK                         _______ _______ _______ _____ _____    ______ ____
ROOT
ATOM      1  N   UNL     1      34.987 -23.338 -14.673  0.00  0.00    -0.124 N 
ATOM      2  N   UNL     1      32.754 -23.915 -14.165  0.00  0.00    -0.274 N 
ATOM      3  N   UNL     1      33.394 -23.119 -16.303  0.00  0.00    -0.295 NA
ATOM      4  N   UNL     1      35.663 -22.544 -16.782  0.00  0.00    -0.315 NA
ATOM      5  N   UNL     1      34.044 -22.323 -18.430  0.00  0.00    -0.238 N 
ATOM      6  N   UNL     1      35.416 -23.650 -13.438  0.00  0.00    -0.171 NA
ATOM      7  C   UNL     1      33.667 -23.456 -15.077  0.00  0.00    +0.279 C 
ATOM      8  C   UNL     1      35.967 -22.890 -15.511  0.00  0.00    +0.206 C 
ATOM      9  C   UNL     1      34.405 -22.663 -17.147  0.00  0.00    +0.207 C 
ATOM     10  C   UNL     1      37.124 -22.911 -14.767  0.00  0.00    +0.127 C 
ATOM     11  C   UNL     1      36.725 -23.387 -13.502  0.00  0.00    +0.101 C 
ATOM     12  H   UNL     1      33.099 -24.134 -13.270  0.00  0.00    +0.156 HD
ATOM     13  H   UNL     1      33.282 -22.812 -18.818  0.00  0.00    +0.166 HD
ENDROOT
BRANCH   2  14
ATOM     14  C   UNL     1      31.387 -24.106 -14.370  0.00  0.00    +0.051 C 
ATOM     15  C   UNL     1      30.588 -23.040 -14.784  0.00  0.00    +0.015 C 
ATOM     16  C   UNL     1      30.819 -25.363 -14.162  0.00  0.00    +0.015 C 
ATOM     17  C   UNL     1      29.221 -23.230 -14.988  0.00  0.00    +0.001 C 
ATOM     18  C   UNL     1      29.453 -25.554 -14.366  0.00  0.00    +0.001 C 
ATOM     19  C   UNL     1      28.654 -24.487 -14.780  0.00  0.00    +0.000 C 
ENDBRANCH   2  14
BRANCH   5  20
ATOM     20  C   UNL     1      34.644 -21.361 -19.237  0.00  0.00    +0.058 C 
ATOM     21  C   UNL     1      36.031 -21.219 -19.238  0.00  0.00    +0.015 C 
ATOM     22  C   UNL     1      33.857 -20.538 -20.044  0.00  0.00    +0.015 C 
ATOM     23  C   UNL     1      36.633 -20.254 -20.046  0.00  0.00    +0.001 C 
ATOM     24  C   UNL     1      34.459 -19.574 -20.851  0.00  0.00    +0.001 C 
ATOM     25  C   UNL     1      35.847 -19.431 -20.853  0.00  0.00    +0.000 C 
ENDBRANCH   5  20
TORSDOF 2
ENDMDL
MODEL 2
REMARK VINA RESULT:     -11.2      1.465      6.809
REMARK  Name = 24779674
REMARK  2 active torsions:
REMARK  status: ('A' for Active; 'I' for Inactive)
REMARK    1  A    between atoms: N_2  and  C_14
REMARK    2  A    between atoms: N_5  and  C_20
REMARK                            x       y       z     vdW  Elec       q    Type
REMARK                         _______ _______ _______ _____ _____    ______ ____
ROOT
ATOM      1  N   UNL     1      31.957 -23.296 -16.103  0.00  0.00    -0.124 N 
ATOM      2  N   UNL     1      32.648 -22.073 -18.002  0.00  0.00    -0.274 N 
ATOM      3  N   UNL     1      34.198 -23.081 -16.520  0.00  0.00    -0.295 NA
ATOM      4  N   UNL     1      33.464 -24.311 -14.608  0.00  0.00    -0.315 NA
ATOM      5  N   UNL     1      35.734 -24.089 -15.034  0.00  0.00    -0.238 N 
ATOM      6  N   UNL     1      30.655 -23.092 -16.367  0.00  0.00    -0.171 NA
ATOM      7  C   UNL     1      32.984 -22.805 -16.894  0.00  0.00    +0.279 C 
ATOM      8  C   UNL     1      32.194 -24.035 -14.981  0.00  0.00    +0.206 C 
ATOM      9  C   UNL     1      34.424 -23.838 -15.371  0.00  0.00    +0.207 C 
ATOM     10  C   UNL     1      30.951 -24.338 -14.472  0.00  0.00    +0.127 C 
ATOM     11  C   UNL     1      30.044 -23.733 -15.365  0.00  0.00    +0.101 C 
ATOM     12  H   UNL     1      31.687 -21.941 -18.167  0.00  0.00    +0.156 HD
ATOM     13  H   UNL     1      36.377 -24.147 -15.778  0.00  0.00    +0.166 HD
ENDROOT
BRANCH   2  14
ATOM     14  C   UNL     1      33.524 -21.495 -18.922  0.00  0.00    +0.051 C 
ATOM     15  C   UNL     1      33.055 -20.545 -19.830  0.00  0.00    +0.015 C 
ATOM     16  C   UNL     1      34.869 -21.867 -18.934  0.00  0.00    +0.015 C 
ATOM     17  C   UNL     1      33.930 -19.968 -20.750  0.00  0.00    +0.001 C 
ATOM     18  C   UNL     1      35.744 -21.290 -19.854  0.00  0.00    +0.001 C 
ATOM     19  C   UNL     1      35.275 -20.340 -20.762  0.00  0.00    +0.000 C 
ENDBRANCH   2  14
BRANCH   5  20
ATOM     20  C   UNL     1      36.244 -24.273 -13.752  0.00  0.00    +0.058 C 
ATOM     21  C   UNL     1      36.347 -23.188 -12.882  0.00  0.00    +0.015 C 
ATOM     22  C   UNL     1      36.650 -25.541 -13.339  0.00  0.00    +0.015 C 
ATOM     23  C   UNL     1      36.859 -23.371 -11.596  0.00  0.00    +0.001 C 
ATOM     24  C   UNL     1      37.162 -25.724 -12.054  0.00  0.00    +0.001 C 
ATOM     25  C   UNL     1      37.266 -24.639 -11.183  0.00  0.00    +0.000 C 
ENDBRANCH   5  20
TORSDOF 2
ENDMDL
MODEL 3
REMARK VINA RESULT:     -10.7      1.480      6.530
REMARK  Name = 24779674
REMARK  2 active torsions:
REMARK  status: ('A' for Active; 'I' for Inactive)
REMARK    1  A    between atoms: N_2  and  C_14
REMARK    2  A    between atoms: N_5  and  C_20
REMARK                            x       y       z     vdW  Elec       q    Type
REMARK                         _______ _______ _______ _____ _____    ______ ____
ROOT
ATOM      1  N   UNL     1      35.263 -22.617 -17.007  0.00  0.00    -0.124 N 
ATOM      2  N   UNL     1      36.761 -23.086 -15.242  0.00  0.00    -0.274 N 
ATOM      3  N   UNL     1      34.466 -23.664 -15.133  0.00  0.00    -0.295 NA
ATOM      4  N   UNL     1      32.978 -23.175 -16.937  0.00  0.00    -0.315 NA
ATOM      5  N   UNL     1      32.175 -24.236 -15.036  0.00  0.00    -0.238 N 
ATOM      6  N   UNL     1      36.223 -22.051 -17.757  0.00  0.00    -0.171 NA
ATOM      7  C   UNL     1      35.489 -23.146 -15.746  0.00  0.00    +0.279 C 
ATOM      8  C   UNL     1      34.030 -22.631 -17.591  0.00  0.00    +0.206 C 
ATOM      9  C   UNL     1      33.213 -23.672 -15.743  0.00  0.00    +0.207 C 
ATOM     10  C   UNL     1      34.197 -22.030 -18.817  0.00  0.00    +0.127 C 
ATOM     11  C   UNL     1      35.565 -21.693 -18.864  0.00  0.00    +0.101 C 
ATOM     12  H   UNL     1      37.441 -22.665 -15.815  0.00  0.00    +0.156 HD
ATOM     13  H   UNL     1      32.409 -24.964 -14.415  0.00  0.00    +0.166 HD
ENDROOT
BRANCH   2  14
ATOM     14  C   UNL     1      37.196 -23.558 -14.003  0.00  0.00    +0.051 C 
ATOM     15  C   UNL     1      37.876 -24.773 -13.919  0.00  0.00    +0.015 C 
ATOM     16  C   UNL     1      36.950 -22.815 -12.848  0.00  0.00    +0.015 C 
ATOM     17  C   UNL     1      38.310 -25.246 -12.681  0.00  0.00    +0.001 C 
ATOM     18  C   UNL     1      37.384 -23.288 -11.610  0.00  0.00    +0.001 C 
ATOM     19  C   UNL     1      38.065 -24.504 -11.526  0.00  0.00    +0.000 C 
ENDBRANCH   2  14
BRANCH   5  20
ATOM     20  C   UNL     1      30.831 -23.884 -15.107  0.00  0.00    +0.058 C 
ATOM     21  C   UNL     1      29.916 -24.747 -15.709  0.00  0.00    +0.015 C 
ATOM     22  C   UNL     1      30.399 -22.668 -14.577  0.00  0.00    +0.015 C 
ATOM     23  C   UNL     1      28.567 -24.394 -15.781  0.00  0.00    +0.001 C 
ATOM     24  C   UNL     1      29.052 -22.315 -14.650  0.00  0.00    +0.001 C 
ATOM     25  C   UNL     1      28.136 -23.179 -15.252  0.00  0.00    +0.000 C 
ENDBRANCH   5  20
TORSDOF 2
ENDMDL
MODEL 4
REMARK VINA RESULT:     -10.7      1.543      2.103
REMARK  Name = 24779674
REMARK  2 active torsions:
REMARK  status: ('A' for Active; 'I' for Inactive)
REMARK    1  A    between atoms: N_2  and  C_14
REMARK    2  A    between atoms: N_5  and  C_20
REMARK                            x       y       z     vdW  Elec       q    Type
REMARK                         _______ _______ _______ _____ _____    ______ ____
ROOT
ATOM      1  N   UNL     1      32.982 -23.687 -15.136  0.00  0.00    -0.124 N 
ATOM      2  N   UNL     1      30.637 -23.458 -14.967  0.00  0.00    -0.274 N 
ATOM      3  N   UNL     1      31.837 -22.748 -16.883  0.00  0.00    -0.295 NA
ATOM      4  N   UNL     1      34.210 -22.994 -17.020  0.00  0.00    -0.315 NA
ATOM      5  N   UNL     1      33.045 -22.043 -18.787  0.00  0.00    -0.238 N 
ATOM      6  N   UNL     1      33.079 -24.250 -13.919  0.00  0.00    -0.171 NA
ATOM      7  C   UNL     1      31.782 -23.277 -15.696  0.00  0.00    +0.279 C 
ATOM      8  C   UNL     1      34.173 -23.547 -15.786  0.00  0.00    +0.206 C 
ATOM      9  C   UNL     1      33.062 -22.613 -17.535  0.00  0.00    +0.207 C 
ATOM     10  C   UNL     1      35.121 -24.059 -14.930  0.00  0.00    +0.127 C 
ATOM     11  C   UNL     1      34.390 -24.476 -13.799  0.00  0.00    +0.101 C 
ATOM     12  H   UNL     1      30.742 -23.873 -14.081  0.00  0.00    +0.156 HD
ATOM     13  H   UNL     1      32.230 -22.182 -19.324  0.00  0.00    +0.166 HD
ENDROOT
BRANCH   2  14
ATOM     14  C   UNL     1      29.338 -23.119 -15.348  0.00  0.00    +0.051 C 
ATOM     15  C   UNL     1      28.501 -22.450 -14.453  0.00  0.00    +0.015 C 
ATOM     16  C   UNL     1      28.876 -23.447 -16.622  0.00  0.00    +0.015 C 
ATOM     17  C   UNL     1      27.203 -22.111 -14.833  0.00  0.00    +0.001 C 
ATOM     18  C   UNL     1      27.578 -23.108 -17.002  0.00  0.00    +0.001 C 
ATOM     19  C   UNL     1      26.741 -22.439 -16.108  0.00  0.00    +0.000 C 
ENDBRANCH   2  14
BRANCH   5  20
ATOM     20  C   UNL     1      34.059 -21.292 -19.374  0.00  0.00    +0.058 C 
ATOM     21  C   UNL     1      35.394 -21.589 -19.100  0.00  0.00    +0.015 C 
ATOM     22  C   UNL     1      33.740 -20.243 -20.236  0.00  0.00    +0.015 C 
ATOM     23  C   UNL     1      36.411 -20.836 -19.688  0.00  0.00    +0.001 C 
ATOM     24  C   UNL     1      34.756 -19.491 -20.824  0.00  0.00    +0.001 C 
ATOM     25  C   UNL     1      36.092 -19.787 -20.549  0.00  0.00    +0.000 C 
ENDBRANCH   5  20
TORSDOF 2
ENDMDL
MODEL 5
REMARK VINA RESULT:     -10.7     11.230     15.171
REMARK  Name = 24779674
REMARK  2 active torsions:
REMARK  status: ('A' for Active; 'I' for Inactive)
REMARK    1  A    between atoms: N_2  and  C_14
REMARK    2  A    between atoms: N_5  and  C_20
REMARK                            x       y       z     vdW  Elec       q    Type
REMARK                         _______ _______ _______ _____ _____    ______ ____
ROOT
ATOM      1  N   UNL     1      32.111  -9.785 -21.092  0.00  0.00    -0.124 N 
ATOM      2  N   UNL     1      32.890  -7.866 -22.227  0.00  0.00    -0.274 N 
ATOM      3  N   UNL     1      33.079 -10.040 -23.151  0.00  0.00    -0.295 NA
ATOM      4  N   UNL     1      32.281 -11.960 -21.974  0.00  0.00    -0.315 NA
ATOM      5  N   UNL     1      33.263 -12.212 -24.061  0.00  0.00    -0.238 N 
ATOM      6  N   UNL     1      31.685  -9.067 -20.038  0.00  0.00    -0.171 NA
ATOM      7  C   UNL     1      32.718  -9.224 -22.204  0.00  0.00    +0.279 C 
ATOM      8  C   UNL     1      31.897 -11.128 -20.979  0.00  0.00    +0.206 C 
ATOM      9  C   UNL     1      32.853 -11.409 -23.022  0.00  0.00    +0.207 C 
ATOM     10  C   UNL     1      31.284 -11.301 -19.760  0.00  0.00    +0.127 C 
ATOM     11  C   UNL     1      31.179 -10.001 -19.226  0.00  0.00    +0.101 C 
ATOM     12  H   UNL     1      32.568  -7.369 -21.441  0.00  0.00    +0.156 HD
ATOM     13  H   UNL     1      33.254 -11.809 -24.960  0.00  0.00    +0.166 HD
ENDROOT
BRANCH   2  14
ATOM     14  C   UNL     1      33.473  -7.111 -23.246  0.00  0.00    +0.051 C 
ATOM     15  C   UNL     1      34.851  -6.893 -23.252  0.00  0.00    +0.015 C 
ATOM     16  C   UNL     1      32.677  -6.575 -24.259  0.00  0.00    +0.015 C 
ATOM     17  C   UNL     1      35.433  -6.139 -24.270  0.00  0.00    +0.001 C 
ATOM     18  C   UNL     1      33.260  -5.821 -25.277  0.00  0.00    +0.001 C 
ATOM     19  C   UNL     1      34.638  -5.603 -25.283  0.00  0.00    +0.000 C 
ENDBRANCH   2  14
BRANCH   5  20
ATOM     20  C   UNL     1      33.688 -13.534 -23.974  0.00  0.00    +0.058 C 
ATOM     21  C   UNL     1      34.469 -13.946 -22.895  0.00  0.00    +0.015 C 
ATOM     22  C   UNL     1      33.333 -14.447 -24.967  0.00  0.00    +0.015 C 
ATOM     23  C   UNL     1      34.895 -15.272 -22.808  0.00  0.00    +0.001 C 
ATOM     24  C   UNL     1      33.759 -15.772 -24.880  0.00  0.00    +0.001 C 
ATOM     25  C   UNL     1      34.541 -16.185 -23.800  0.00  0.00    +0.000 C 
ENDBRANCH   5  20
TORSDOF 2
ENDMDL
MODEL 6
REMARK VINA RESULT:     -10.3      1.686      5.082
REMARK  Name = 24779674
REMARK  2 active torsions:
REMARK  status: ('A' for Active; 'I' for Inactive)
REMARK    1  A    between atoms: N_2  and  C_14
REMARK    2  A    between atoms: N_5  and  C_20
REMARK                            x       y       z     vdW  Elec       q    Type
REMARK                         _______ _______ _______ _____ _____    ______ ____
ROOT
ATOM      1  N   UNL     1      33.642 -22.320 -17.787  0.00  0.00    -0.124 N 
ATOM      2  N   UNL     1      31.461 -22.787 -17.010  0.00  0.00    -0.274 N 
ATOM      3  N   UNL     1      33.395 -23.412 -15.791  0.00  0.00    -0.295 NA
ATOM      4  N   UNL     1      35.586 -22.924 -16.608  0.00  0.00    -0.315 NA
ATOM      5  N   UNL     1      35.330 -24.032 -14.585  0.00  0.00    -0.238 N 
ATOM      6  N   UNL     1      33.186 -21.722 -18.901  0.00  0.00    -0.171 NA
ATOM      7  C   UNL     1      32.815 -22.864 -16.818  0.00  0.00    +0.279 C 
ATOM      8  C   UNL     1      35.003 -22.350 -17.684  0.00  0.00    +0.206 C 
ATOM      9  C   UNL     1      34.786 -23.435 -15.698  0.00  0.00    +0.207 C 
ATOM     10  C   UNL     1      35.471 -21.722 -18.816  0.00  0.00    +0.127 C 
ATOM     11  C   UNL     1      34.309 -21.358 -19.526  0.00  0.00    +0.101 C 
ATOM     12  H   UNL     1      31.160 -22.344 -17.834  0.00  0.00    +0.156 HD
ATOM     13  H   UNL     1      34.797 -23.991 -13.757  0.00  0.00    +0.166 HD
ENDROOT
BRANCH   2  14
ATOM     14  C   UNL     1      30.465 -23.268 -16.159  0.00  0.00    +0.051 C 
ATOM     15  C   UNL     1      30.718 -24.370 -15.342  0.00  0.00    +0.015 C 
ATOM     16  C   UNL     1      29.216 -22.648 -16.126  0.00  0.00    +0.015 C 
ATOM     17  C   UNL     1      29.723 -24.852 -14.492  0.00  0.00    +0.001 C 
ATOM     18  C   UNL     1      28.221 -23.129 -15.276  0.00  0.00    +0.001 C 
ATOM     19  C   UNL     1      28.474 -24.231 -14.459  0.00  0.00    +0.000 C 
ENDBRANCH   2  14
BRANCH   5  20
ATOM     20  C   UNL     1      36.555 -24.686 -14.506  0.00  0.00    +0.058 C 
ATOM     21  C   UNL     1      36.602 -26.080 -14.508  0.00  0.00    +0.015 C 
ATOM     22  C   UNL     1      37.736 -23.948 -14.426  0.00  0.00    +0.015 C 
ATOM     23  C   UNL     1      37.831 -26.737 -14.429  0.00  0.00    +0.001 C 
ATOM     24  C   UNL     1      38.964 -24.604 -14.347  0.00  0.00    +0.001 C 
ATOM     25  C   UNL     1      39.012 -25.999 -14.348  0.00  0.00    +0.000 C 
ENDBRANCH   5  20
TORSDOF 2
ENDMDL
MODEL 7
REMARK VINA RESULT:      -9.6      1.038      6.572
REMARK  Name = 24779674
REMARK  2 active torsions:
REMARK  status: ('A' for Active; 'I' for Inactive)
REMARK    1  A    between atoms: N_2  and  C_14
REMARK    2  A    between atoms: N_5  and  C_20
REMARK                            x       y       z     vdW  Elec       q    Type
REMARK                         _______ _______ _______ _____ _____    ______ ____
ROOT
ATOM      1  N   UNL     1      35.843 -23.279 -15.697  0.00  0.00    -0.124 N 
ATOM      2  N   UNL     1      36.081 -22.029 -17.687  0.00  0.00    -0.274 N 
ATOM      3  N   UNL     1      33.967 -22.428 -16.694  0.00  0.00    -0.295 NA
ATOM      4  N   UNL     1      33.763 -23.698 -14.681  0.00  0.00    -0.315 NA
ATOM      5  N   UNL     1      31.864 -22.833 -15.696  0.00  0.00    -0.238 N 
ATOM      6  N   UNL     1      37.167 -23.492 -15.598  0.00  0.00    -0.171 NA
ATOM      7  C   UNL     1      35.261 -22.554 -16.724  0.00  0.00    +0.279 C 
ATOM      8  C   UNL     1      35.108 -23.841 -14.694  0.00  0.00    +0.206 C 
ATOM      9  C   UNL     1      33.228 -23.006 -15.663  0.00  0.00    +0.207 C 
ATOM     10  C   UNL     1      36.020 -24.467 -13.876  0.00  0.00    +0.127 C 
ATOM     11  C   UNL     1      37.269 -24.219 -14.481  0.00  0.00    +0.101 C 
ATOM     12  H   UNL     1      37.044 -22.203 -17.586  0.00  0.00    +0.156 HD
ATOM     13  H   UNL     1      31.535 -22.002 -16.111  0.00  0.00    +0.166 HD
ENDROOT
BRANCH   2  14
ATOM     14  C   UNL     1      35.697 -21.273 -18.795  0.00  0.00    +0.051 C 
ATOM     15  C   UNL     1      34.371 -21.299 -19.231  0.00  0.00    +0.015 C 
ATOM     16  C   UNL     1      36.636 -20.491 -19.466  0.00  0.00    +0.015 C 
ATOM     17  C   UNL     1      33.987 -20.543 -20.339  0.00  0.00    +0.001 C 
ATOM     18  C   UNL     1      36.252 -19.736 -20.574  0.00  0.00    +0.001 C 
ATOM     19  C   UNL     1      34.927 -19.761 -21.010  0.00  0.00    +0.000 C 
ENDBRANCH   2  14
BRANCH   5  20
ATOM     20  C   UNL     1      30.901 -23.708 -15.202  0.00  0.00    +0.058 C 
ATOM     21  C   UNL     1      31.221 -24.582 -14.163  0.00  0.00    +0.015 C 
ATOM     22  C   UNL     1      29.617 -23.711 -15.747  0.00  0.00    +0.015 C 
ATOM     23  C   UNL     1      30.256 -25.460 -13.668  0.00  0.00    +0.001 C 
ATOM     24  C   UNL     1      28.653 -24.589 -15.252  0.00  0.00    +0.001 C 
ATOM     25  C   UNL     1      28.972 -25.463 -14.212  0.00  0.00    +0.000 C 
ENDBRANCH   5  20
TORSDOF 2
ENDMDL
MODEL 8
REMARK VINA RESULT:      -9.1     11.167     14.531
REMARK  Name = 24779674
REMARK  2 active torsions:
REMARK  status: ('A' for Active; 'I' for Inactive)
REMARK    1  A    between atoms: N_2  and  C_14
REMARK    2  A    between atoms: N_5  and  C_20
REMARK                            x       y       z     vdW  Elec       q    Type
REMARK                         _______ _______ _______ _____ _____    ______ ____
ROOT
ATOM      1  N   UNL     1      32.181 -10.756 -20.360  0.00  0.00    -0.124 N 
ATOM      2  N   UNL     1      32.738 -12.773 -21.456  0.00  0.00    -0.274 N 
ATOM      3  N   UNL     1      32.985 -10.661 -22.501  0.00  0.00    -0.295 NA
ATOM      4  N   UNL     1      32.412  -8.640 -21.362  0.00  0.00    -0.315 NA
ATOM      5  N   UNL     1      33.227  -8.549 -23.533  0.00  0.00    -0.238 N 
ATOM      6  N   UNL     1      31.802 -11.395 -19.240  0.00  0.00    -0.171 NA
ATOM      7  C   UNL     1      32.654 -11.406 -21.488  0.00  0.00    +0.279 C 
ATOM      8  C   UNL     1      32.062  -9.398 -20.298  0.00  0.00    +0.206 C 
ATOM      9  C   UNL     1      32.859  -9.275 -22.423  0.00  0.00    +0.207 C 
ATOM     10  C   UNL     1      31.569  -9.129 -19.042  0.00  0.00    +0.127 C 
ATOM     11  C   UNL     1      31.429 -10.394 -18.437  0.00  0.00    +0.101 C 
ATOM     12  H   UNL     1      32.453 -13.211 -20.622  0.00  0.00    +0.156 HD
ATOM     13  H   UNL     1      33.939  -8.933 -24.095  0.00  0.00    +0.166 HD
ENDROOT
BRANCH   2  14
ATOM     14  C   UNL     1      33.185 -13.610 -22.479  0.00  0.00    +0.051 C 
ATOM     15  C   UNL     1      34.196 -14.539 -22.228  0.00  0.00    +0.015 C 
ATOM     16  C   UNL     1      32.621 -13.519 -23.752  0.00  0.00    +0.015 C 
ATOM     17  C   UNL     1      34.643 -15.376 -23.250  0.00  0.00    +0.001 C 
ATOM     18  C   UNL     1      33.069 -14.356 -24.774  0.00  0.00    +0.001 C 
ATOM     19  C   UNL     1      34.080 -15.285 -24.523  0.00  0.00    +0.000 C 
ENDBRANCH   2  14
BRANCH   5  20
ATOM     20  C   UNL     1      32.698  -7.329 -23.943  0.00  0.00    +0.058 C 
ATOM     21  C   UNL     1      33.517  -6.202 -24.012  0.00  0.00    +0.015 C 
ATOM     22  C   UNL     1      31.349  -7.234 -24.284  0.00  0.00    +0.015 C 
ATOM     23  C   UNL     1      32.986  -4.978 -24.423  0.00  0.00    +0.001 C 
ATOM     24  C   UNL     1      30.819  -6.010 -24.694  0.00  0.00    +0.001 C 
ATOM     25  C   UNL     1      31.638  -4.883 -24.764  0.00  0.00    +0.000 C 
ENDBRANCH   5  20
TORSDOF 2
ENDMDL
MODEL 9
REMARK VINA RESULT:      -8.9     12.958     17.270
REMARK  Name = 24779674
REMARK  2 active torsions:
REMARK  status: ('A' for Active; 'I' for Inactive)
REMARK    1  A    between atoms: N_2  and  C_14
REMARK    2  A    between atoms: N_5  and  C_20
REMARK                            x       y       z     vdW  Elec       q    Type
REMARK                         _______ _______ _______ _____ _____    ______ ____
ROOT
ATOM      1  N   UNL     1      32.763  -6.805 -22.272  0.00  0.00    -0.124 N 
ATOM      2  N   UNL     1      33.553  -5.913 -24.311  0.00  0.00    -0.274 N 
ATOM      3  N   UNL     1      33.160  -8.232 -24.018  0.00  0.00    -0.295 NA
ATOM      4  N   UNL     1      32.362  -9.100 -21.940  0.00  0.00    -0.315 NA
ATOM      5  N   UNL     1      32.766 -10.541 -23.713  0.00  0.00    -0.238 N 
ATOM      6  N   UNL     1      32.723  -5.596 -21.685  0.00  0.00    -0.171 NA
ATOM      7  C   UNL     1      33.171  -7.007 -23.580  0.00  0.00    +0.279 C 
ATOM      8  C   UNL     1      32.366  -7.833 -21.466  0.00  0.00    +0.206 C 
ATOM      9  C   UNL     1      32.751  -9.271 -23.184  0.00  0.00    +0.207 C 
ATOM     10  C   UNL     1      32.040  -7.252 -20.263  0.00  0.00    +0.127 C 
ATOM     11  C   UNL     1      32.279  -5.876 -20.456  0.00  0.00    +0.101 C 
ATOM     12  H   UNL     1      33.512  -5.044 -23.853  0.00  0.00    +0.156 HD
ATOM     13  H   UNL     1      32.609 -10.617 -24.683  0.00  0.00    +0.166 HD
ENDROOT
BRANCH   2  14
ATOM     14  C   UNL     1      33.992  -5.901 -25.636  0.00  0.00    +0.051 C 
ATOM     15  C   UNL     1      35.358  -5.897 -25.918  0.00  0.00    +0.015 C 
ATOM     16  C   UNL     1      33.064  -5.895 -26.678  0.00  0.00    +0.015 C 
ATOM     17  C   UNL     1      35.797  -5.884 -27.241  0.00  0.00    +0.001 C 
ATOM     18  C   UNL     1      33.503  -5.883 -28.001  0.00  0.00    +0.001 C 
ATOM     19  C   UNL     1      34.870  -5.878 -28.284  0.00  0.00    +0.000 C 
ENDBRANCH   2  14
BRANCH   5  20
ATOM     20  C   UNL     1      32.978 -11.729 -23.020  0.00  0.00    +0.058 C 
ATOM     21  C   UNL     1      34.119 -12.490 -23.274  0.00  0.00    +0.015 C 
ATOM     22  C   UNL     1      32.049 -12.159 -22.072  0.00  0.00    +0.015 C 
ATOM     23  C   UNL     1      34.331 -13.682 -22.579  0.00  0.00    +0.001 C 
ATOM     24  C   UNL     1      32.261 -13.350 -21.379  0.00  0.00    +0.001 C 
ATOM     25  C   UNL     1      33.402 -14.111 -21.632  0.00  0.00    +0.000 C 
ENDBRANCH   5  20
TORSDOF 2
ENDMDL
