MODEL 1
REMARK VINA RESULT:     -11.9      0.000      0.000
REMARK  Name = 66571548
REMARK  8 active torsions:
REMARK  status: ('A' for Active; 'I' for Inactive)
REMARK    1  A    between atoms: C_2  and  C_10
REMARK    2  A    between atoms: C_2  and  C_22
REMARK    3  A    between atoms: N_3  and  C_15
REMARK    4  A    between atoms: C_15  and  C_18
REMARK    5  A    between atoms: C_18  and  O_19
REMARK    6  A    between atoms: C_25  and  N_28
REMARK    7  A    between atoms: C_29  and  C_31
REMARK    8  A    between atoms: C_31  and  C_34
REMARK                            x       y       z     vdW  Elec       q    Type
REMARK                         _______ _______ _______ _____ _____    ______ ____
ROOT
ATOM      1  O   UNL     1      33.795 -24.009 -19.024  0.00  0.00    -0.286 OA
ATOM      2  C   UNL     1      34.093 -23.279 -18.055  0.00  0.00    +0.199 C 
ENDROOT
BRANCH   2  10
ATOM      3  N   UNL     1      32.013 -23.702 -15.137  0.00  0.00    -0.261 N 
ATOM      4  N   UNL     1      33.432 -24.275 -13.274  0.00  0.00    -0.322 NA
ATOM      5  N   UNL     1      35.788 -24.397 -13.878  0.00  0.00    -0.170 NA
ATOM      6  N   UNL     1      35.067 -24.809 -11.689  0.00  0.00    -0.293 N 
ATOM      7  C   UNL     1      33.230 -23.963 -14.566  0.00  0.00    +0.201 C 
ATOM      8  C   UNL     1      32.182 -23.424 -16.468  0.00  0.00    +0.071 C 
ATOM      9  C   UNL     1      34.199 -23.848 -15.554  0.00  0.00    +0.069 C 
ATOM     10  C   UNL     1      33.528 -23.507 -16.756  0.00  0.00    +0.059 C 
ATOM     11  C   UNL     1      35.518 -24.079 -15.166  0.00  0.00    +0.116 C 
ATOM     12  C   UNL     1      34.742 -24.475 -13.024  0.00  0.00    +0.143 C 
ATOM     13  H   UNL     1      34.355 -24.883 -11.014  0.00  0.00    +0.155 HD
ATOM     14  H   UNL     1      36.004 -24.968 -11.436  0.00  0.00    +0.155 HD
BRANCH   3  15
ATOM     15  C   UNL     1      30.655 -23.713 -14.406  0.00  0.00    +0.091 C 
ATOM     16  C   UNL     1      29.680 -22.615 -14.894  0.00  0.00    +0.023 C 
ATOM     17  C   UNL     1      29.962 -25.073 -14.654  0.00  0.00    +0.023 C 
BRANCH  15  18
ATOM     18  C   UNL     1      30.864 -23.533 -12.881  0.00  0.00    +0.155 C 
BRANCH  18  19
ATOM     19  O   UNL     1      30.570 -24.741 -12.187  0.00  0.00    -0.380 OA
ATOM     20  H   UNL     1      29.621 -24.777 -11.989  0.00  0.00    +0.211 HD
ENDBRANCH  18  19
ENDBRANCH  15  18
ENDBRANCH   3  15
ENDBRANCH   2  10
BRANCH   2  22
ATOM     21  N   UNL     1      37.090 -20.989 -17.747  0.00  0.00    -0.241 NA
ATOM     22  C   UNL     1      35.065 -22.167 -18.343  0.00  0.00    +0.059 C 
ATOM     23  C   UNL     1      34.871 -21.305 -19.418  0.00  0.00    +0.021 C 
ATOM     24  C   UNL     1      36.179 -21.967 -17.544  0.00  0.00    +0.102 C 
ATOM     25  C   UNL     1      35.787 -20.286 -19.658  0.00  0.00    +0.070 C 
ATOM     26  C   UNL     1      36.869 -20.171 -18.801  0.00  0.00    +0.113 C 
BRANCH  25  28
ATOM     27  O   UNL     1      37.801 -18.632 -21.149  0.00  0.00    -0.274 OA
ATOM     28  N   UNL     1      35.619 -19.408 -20.726  0.00  0.00    -0.282 N 
ATOM     29  C   UNL     1      36.598 -18.653 -21.396  0.00  0.00    +0.232 C 
ATOM     30  H   UNL     1      34.697 -19.303 -21.054  0.00  0.00    +0.155 HD
BRANCH  29  31
ATOM     31  C   UNL     1      35.983 -17.820 -22.510  0.00  0.00    +0.131 C 
BRANCH  31  34
ATOM     32 CL   UNL     1      33.157 -13.017 -20.428  0.00  0.00    -0.081 Cl
ATOM     33  N   UNL     1      35.101 -16.486 -20.677  0.00  0.00    -0.247 NA
ATOM     34  C   UNL     1      35.264 -16.593 -22.015  0.00  0.00    +0.068 C 
ATOM     35  C   UNL     1      34.814 -15.654 -22.929  0.00  0.00    +0.016 C 
ATOM     36  C   UNL     1      34.154 -14.533 -22.438  0.00  0.00    +0.014 C 
ATOM     37  C   UNL     1      34.455 -15.383 -20.237  0.00  0.00    +0.110 C 
ATOM     38  C   UNL     1      33.966 -14.387 -21.068  0.00  0.00    +0.077 C 
ENDBRANCH  31  34
ENDBRANCH  29  31
ENDBRANCH  25  28
ENDBRANCH   2  22
TORSDOF 8
ENDMDL
MODEL 2
REMARK VINA RESULT:     -11.6      2.189      3.781
REMARK  Name = 66571548
REMARK  8 active torsions:
REMARK  status: ('A' for Active; 'I' for Inactive)
REMARK    1  A    between atoms: C_2  and  C_10
REMARK    2  A    between atoms: C_2  and  C_22
REMARK    3  A    between atoms: N_3  and  C_15
REMARK    4  A    between atoms: C_15  and  C_18
REMARK    5  A    between atoms: C_18  and  O_19
REMARK    6  A    between atoms: C_25  and  N_28
REMARK    7  A    between atoms: C_29  and  C_31
REMARK    8  A    between atoms: C_31  and  C_34
REMARK                            x       y       z     vdW  Elec       q    Type
REMARK                         _______ _______ _______ _____ _____    ______ ____
ROOT
ATOM      1  O   UNL     1      37.577 -21.013 -16.592  0.00  0.00    -0.286 OA
ATOM      2  C   UNL     1      36.650 -21.848 -16.669  0.00  0.00    +0.199 C 
ENDROOT
BRANCH   2  10
ATOM      3  N   UNL     1      36.981 -24.469 -14.210  0.00  0.00    -0.261 N 
ATOM      4  N   UNL     1      34.789 -24.969 -13.339  0.00  0.00    -0.322 NA
ATOM      5  N   UNL     1      33.036 -23.607 -14.340  0.00  0.00    -0.170 NA
ATOM      6  N   UNL     1      32.551 -25.214 -12.709  0.00  0.00    -0.293 N 
ATOM      7  C   UNL     1      35.625 -24.289 -14.142  0.00  0.00    +0.201 C 
ATOM      8  C   UNL     1      37.513 -23.605 -15.132  0.00  0.00    +0.071 C 
ATOM      9  C   UNL     1      35.281 -23.289 -15.043  0.00  0.00    +0.069 C 
ATOM     10  C   UNL     1      36.481 -22.861 -15.666  0.00  0.00    +0.059 C 
ATOM     11  C   UNL     1      33.929 -22.958 -15.124  0.00  0.00    +0.116 C 
ATOM     12  C   UNL     1      33.516 -24.559 -13.508  0.00  0.00    +0.143 C 
ATOM     13  H   UNL     1      32.829 -25.918 -12.080  0.00  0.00    +0.155 HD
ATOM     14  H   UNL     1      31.601 -24.965 -12.780  0.00  0.00    +0.155 HD
BRANCH   3  15
ATOM     15  C   UNL     1      37.796 -25.482 -13.383  0.00  0.00    +0.091 C 
ATOM     16  C   UNL     1      37.374 -26.953 -13.615  0.00  0.00    +0.023 C 
ATOM     17  C   UNL     1      39.287 -25.374 -13.781  0.00  0.00    +0.023 C 
BRANCH  15  18
ATOM     18  C   UNL     1      37.663 -25.173 -11.870  0.00  0.00    +0.155 C 
BRANCH  18  19
ATOM     19  O   UNL     1      36.814 -26.124 -11.235  0.00  0.00    -0.380 OA
ATOM     20  H   UNL     1      37.166 -27.017 -11.378  0.00  0.00    +0.211 HD
ENDBRANCH  18  19
ENDBRANCH  15  18
ENDBRANCH   3  15
ENDBRANCH   2  10
BRANCH   2  22
ATOM     21  N   UNL     1      33.826 -22.520 -19.097  0.00  0.00    -0.241 NA
ATOM     22  C   UNL     1      35.744 -21.717 -17.863  0.00  0.00    +0.059 C 
ATOM     23  C   UNL     1      35.954 -20.728 -18.818  0.00  0.00    +0.021 C 
ATOM     24  C   UNL     1      34.677 -22.581 -18.047  0.00  0.00    +0.102 C 
ATOM     25  C   UNL     1      35.101 -20.633 -19.912  0.00  0.00    +0.070 C 
ATOM     26  C   UNL     1      34.061 -21.545 -20.004  0.00  0.00    +0.113 C 
BRANCH  25  28
ATOM     27  O   UNL     1      37.492 -18.921 -20.514  0.00  0.00    -0.274 OA
ATOM     28  N   UNL     1      35.286 -19.653 -20.884  0.00  0.00    -0.282 N 
ATOM     29  C   UNL     1      36.431 -18.874 -21.129  0.00  0.00    +0.232 C 
ATOM     30  H   UNL     1      34.518 -19.485 -21.475  0.00  0.00    +0.155 HD
BRANCH  29  31
ATOM     31  C   UNL     1      36.207 -17.919 -22.291  0.00  0.00    +0.131 C 
BRANCH  31  34
ATOM     32 CL   UNL     1      33.113 -13.102 -20.675  0.00  0.00    -0.081 Cl
ATOM     33  N   UNL     1      35.142 -16.530 -20.602  0.00  0.00    -0.247 NA
ATOM     34  C   UNL     1      35.422 -16.690 -21.914  0.00  0.00    +0.068 C 
ATOM     35  C   UNL     1      35.033 -15.803 -22.905  0.00  0.00    +0.016 C 
ATOM     36  C   UNL     1      34.310 -14.678 -22.523  0.00  0.00    +0.014 C 
ATOM     37  C   UNL     1      34.438 -15.425 -20.268  0.00  0.00    +0.110 C 
ATOM     38  C   UNL     1      34.002 -14.478 -21.182  0.00  0.00    +0.077 C 
ENDBRANCH  31  34
ENDBRANCH  29  31
ENDBRANCH  25  28
ENDBRANCH   2  22
TORSDOF 8
ENDMDL
MODEL 3
REMARK VINA RESULT:     -11.6      1.558      1.882
REMARK  Name = 66571548
REMARK  8 active torsions:
REMARK  status: ('A' for Active; 'I' for Inactive)
REMARK    1  A    between atoms: C_2  and  C_10
REMARK    2  A    between atoms: C_2  and  C_22
REMARK    3  A    between atoms: N_3  and  C_15
REMARK    4  A    between atoms: C_15  and  C_18
REMARK    5  A    between atoms: C_18  and  O_19
REMARK    6  A    between atoms: C_25  and  N_28
REMARK    7  A    between atoms: C_29  and  C_31
REMARK    8  A    between atoms: C_31  and  C_34
REMARK                            x       y       z     vdW  Elec       q    Type
REMARK                         _______ _______ _______ _____ _____    ______ ____
ROOT
ATOM      1  O   UNL     1      33.840 -23.955 -19.210  0.00  0.00    -0.286 OA
ATOM      2  C   UNL     1      34.185 -23.076 -18.391  0.00  0.00    +0.199 C 
ENDROOT
BRANCH   2  10
ATOM      3  N   UNL     1      32.698 -23.433 -15.122  0.00  0.00    -0.261 N 
ATOM      4  N   UNL     1      34.467 -23.437 -13.484  0.00  0.00    -0.322 NA
ATOM      5  N   UNL     1      36.679 -23.203 -14.475  0.00  0.00    -0.170 NA
ATOM      6  N   UNL     1      36.395 -23.404 -12.161  0.00  0.00    -0.293 N 
ATOM      7  C   UNL     1      34.014 -23.370 -14.748  0.00  0.00    +0.201 C 
ATOM      8  C   UNL     1      32.605 -23.335 -16.486  0.00  0.00    +0.071 C 
ATOM      9  C   UNL     1      34.779 -23.227 -15.899  0.00  0.00    +0.069 C 
ATOM     10  C   UNL     1      33.880 -23.205 -16.995  0.00  0.00    +0.059 C 
ATOM     11  C   UNL     1      36.160 -23.142 -15.724  0.00  0.00    +0.116 C 
ATOM     12  C   UNL     1      35.812 -23.346 -13.447  0.00  0.00    +0.143 C 
ATOM     13  H   UNL     1      35.822 -23.507 -11.366  0.00  0.00    +0.155 HD
ATOM     14  H   UNL     1      37.371 -23.344 -12.059  0.00  0.00    +0.155 HD
BRANCH   3  15
ATOM     15  C   UNL     1      31.497 -23.589 -14.168  0.00  0.00    +0.091 C 
ATOM     16  C   UNL     1      31.614 -22.737 -12.881  0.00  0.00    +0.023 C 
ATOM     17  C   UNL     1      30.213 -23.131 -14.897  0.00  0.00    +0.023 C 
BRANCH  15  18
ATOM     18  C   UNL     1      31.330 -25.072 -13.752  0.00  0.00    +0.155 C 
BRANCH  18  19
ATOM     19  O   UNL     1      32.203 -25.394 -12.675  0.00  0.00    -0.380 OA
ATOM     20  H   UNL     1      32.892 -24.715 -12.603  0.00  0.00    +0.211 HD
ENDBRANCH  18  19
ENDBRANCH  15  18
ENDBRANCH   3  15
ENDBRANCH   2  10
BRANCH   2  22
ATOM     21  N   UNL     1      36.765 -20.338 -18.800  0.00  0.00    -0.241 NA
ATOM     22  C   UNL     1      34.925 -21.898 -18.964  0.00  0.00    +0.059 C 
ATOM     23  C   UNL     1      34.494 -21.279 -20.133  0.00  0.00    +0.021 C 
ATOM     24  C   UNL     1      36.054 -21.393 -18.341  0.00  0.00    +0.102 C 
ATOM     25  C   UNL     1      35.199 -20.191 -20.637  0.00  0.00    +0.070 C 
ATOM     26  C   UNL     1      36.317 -19.763 -19.940  0.00  0.00    +0.113 C 
BRANCH  25  28
ATOM     27  O   UNL     1      36.696 -18.332 -22.458  0.00  0.00    -0.274 OA
ATOM     28  N   UNL     1      34.792 -19.551 -21.805  0.00  0.00    -0.282 N 
ATOM     29  C   UNL     1      35.533 -18.686 -22.629  0.00  0.00    +0.232 C 
ATOM     30  H   UNL     1      33.867 -19.728 -22.090  0.00  0.00    +0.155 HD
BRANCH  29  31
ATOM     31  C   UNL     1      34.704 -18.207 -23.810  0.00  0.00    +0.131 C 
BRANCH  31  34
ATOM     32 CL   UNL     1      33.722 -12.342 -23.951  0.00  0.00    -0.081 Cl
ATOM     33  N   UNL     1      33.866 -16.205 -24.910  0.00  0.00    -0.247 NA
ATOM     34  C   UNL     1      34.470 -16.719 -23.815  0.00  0.00    +0.068 C 
ATOM     35  C   UNL     1      34.873 -15.964 -22.726  0.00  0.00    +0.016 C 
ATOM     36  C   UNL     1      34.642 -14.594 -22.762  0.00  0.00    +0.014 C 
ATOM     37  C   UNL     1      33.658 -14.870 -24.910  0.00  0.00    +0.110 C 
ATOM     38  C   UNL     1      34.024 -14.028 -23.872  0.00  0.00    +0.077 C 
ENDBRANCH  31  34
ENDBRANCH  29  31
ENDBRANCH  25  28
ENDBRANCH   2  22
TORSDOF 8
ENDMDL
MODEL 4
REMARK VINA RESULT:     -11.6      1.870      3.270
REMARK  Name = 66571548
REMARK  8 active torsions:
REMARK  status: ('A' for Active; 'I' for Inactive)
REMARK    1  A    between atoms: C_2  and  C_10
REMARK    2  A    between atoms: C_2  and  C_22
REMARK    3  A    between atoms: N_3  and  C_15
REMARK    4  A    between atoms: C_15  and  C_18
REMARK    5  A    between atoms: C_18  and  O_19
REMARK    6  A    between atoms: C_25  and  N_28
REMARK    7  A    between atoms: C_29  and  C_31
REMARK    8  A    between atoms: C_31  and  C_34
REMARK                            x       y       z     vdW  Elec       q    Type
REMARK                         _______ _______ _______ _____ _____    ______ ____
ROOT
ATOM      1  O   UNL     1      32.690 -22.299 -19.174  0.00  0.00    -0.286 OA
ATOM      2  C   UNL     1      33.719 -22.133 -18.484  0.00  0.00    +0.199 C 
ENDROOT
BRANCH   2  10
ATOM      3  N   UNL     1      34.794 -23.636 -15.384  0.00  0.00    -0.261 N 
ATOM      4  N   UNL     1      32.834 -24.153 -14.076  0.00  0.00    -0.322 NA
ATOM      5  N   UNL     1      30.759 -23.534 -15.190  0.00  0.00    -0.170 NA
ATOM      6  N   UNL     1      30.757 -24.525 -13.069  0.00  0.00    -0.293 N 
ATOM      7  C   UNL     1      33.440 -23.669 -15.174  0.00  0.00    +0.201 C 
ATOM      8  C   UNL     1      35.054 -23.074 -16.607  0.00  0.00    +0.071 C 
ATOM      9  C   UNL     1      32.822 -23.118 -16.290  0.00  0.00    +0.069 C 
ATOM     10  C   UNL     1      33.850 -22.744 -17.192  0.00  0.00    +0.059 C 
ATOM     11  C   UNL     1      31.429 -23.063 -16.268  0.00  0.00    +0.116 C 
ATOM     12  C   UNL     1      31.495 -24.043 -14.175  0.00  0.00    +0.143 C 
ATOM     13  H   UNL     1      31.228 -24.909 -12.295  0.00  0.00    +0.155 HD
ATOM     14  H   UNL     1      29.775 -24.476 -13.074  0.00  0.00    +0.155 HD
BRANCH   3  15
ATOM     15  C   UNL     1      35.868 -24.148 -14.405  0.00  0.00    +0.091 C 
ATOM     16  C   UNL     1      36.096 -25.677 -14.479  0.00  0.00    +0.023 C 
ATOM     17  C   UNL     1      37.219 -23.475 -14.743  0.00  0.00    +0.023 C 
BRANCH  15  18
ATOM     18  C   UNL     1      35.484 -23.787 -12.948  0.00  0.00    +0.155 C 
BRANCH  18  19
ATOM     19  O   UNL     1      35.059 -24.945 -12.237  0.00  0.00    -0.380 OA
ATOM     20  H   UNL     1      34.656 -24.678 -11.396  0.00  0.00    +0.211 HD
ENDBRANCH  18  19
ENDBRANCH  15  18
ENDBRANCH   3  15
ENDBRANCH   2  10
BRANCH   2  22
ATOM     21  N   UNL     1      37.053 -20.427 -19.025  0.00  0.00    -0.241 NA
ATOM     22  C   UNL     1      34.786 -21.264 -19.092  0.00  0.00    +0.059 C 
ATOM     23  C   UNL     1      34.534 -20.511 -20.234  0.00  0.00    +0.021 C 
ATOM     24  C   UNL     1      36.050 -21.187 -18.530  0.00  0.00    +0.102 C 
ATOM     25  C   UNL     1      35.541 -19.716 -20.772  0.00  0.00    +0.070 C 
ATOM     26  C   UNL     1      36.772 -19.710 -20.136  0.00  0.00    +0.113 C 
BRANCH  25  28
ATOM     27  O   UNL     1      35.281 -16.743 -21.100  0.00  0.00    -0.274 OA
ATOM     28  N   UNL     1      35.318 -18.951 -21.914  0.00  0.00    -0.282 N 
ATOM     29  C   UNL     1      35.204 -17.554 -22.019  0.00  0.00    +0.232 C 
ATOM     30  H   UNL     1      35.228 -19.453 -22.756  0.00  0.00    +0.155 HD
BRANCH  29  31
ATOM     31  C   UNL     1      34.961 -17.128 -23.458  0.00  0.00    +0.131 C 
BRANCH  31  34
ATOM     32 CL   UNL     1      33.185 -11.465 -23.872  0.00  0.00    -0.081 Cl
ATOM     33  N   UNL     1      34.918 -14.836 -22.644  0.00  0.00    -0.247 NA
ATOM     34  C   UNL     1      34.494 -15.702 -23.591  0.00  0.00    +0.068 C 
ATOM     35  C   UNL     1      33.671 -15.352 -24.650  0.00  0.00    +0.016 C 
ATOM     36  C   UNL     1      33.258 -14.028 -24.744  0.00  0.00    +0.014 C 
ATOM     37  C   UNL     1      34.497 -13.557 -22.768  0.00  0.00    +0.110 C 
ATOM     38  C   UNL     1      33.674 -13.107 -23.788  0.00  0.00    +0.077 C 
ENDBRANCH  31  34
ENDBRANCH  29  31
ENDBRANCH  25  28
ENDBRANCH   2  22
TORSDOF 8
ENDMDL
MODEL 5
REMARK VINA RESULT:     -11.1      1.482      1.958
REMARK  Name = 66571548
REMARK  8 active torsions:
REMARK  status: ('A' for Active; 'I' for Inactive)
REMARK    1  A    between atoms: C_2  and  C_10
REMARK    2  A    between atoms: C_2  and  C_22
REMARK    3  A    between atoms: N_3  and  C_15
REMARK    4  A    between atoms: C_15  and  C_18
REMARK    5  A    between atoms: C_18  and  O_19
REMARK    6  A    between atoms: C_25  and  N_28
REMARK    7  A    between atoms: C_29  and  C_31
REMARK    8  A    between atoms: C_31  and  C_34
REMARK                            x       y       z     vdW  Elec       q    Type
REMARK                         _______ _______ _______ _____ _____    ______ ____
ROOT
ATOM      1  O   UNL     1      36.825 -22.344 -17.385  0.00  0.00    -0.286 OA
ATOM      2  C   UNL     1      35.589 -22.392 -17.200  0.00  0.00    +0.199 C 
ENDROOT
BRANCH   2  10
ATOM      3  N   UNL     1      33.549 -23.572 -14.467  0.00  0.00    -0.261 N 
ATOM      4  N   UNL     1      34.998 -24.573 -12.820  0.00  0.00    -0.322 NA
ATOM      5  N   UNL     1      37.348 -24.500 -13.454  0.00  0.00    -0.170 NA
ATOM      6  N   UNL     1      36.659 -25.461 -11.434  0.00  0.00    -0.293 N 
ATOM      7  C   UNL     1      34.776 -23.949 -13.990  0.00  0.00    +0.201 C 
ATOM      8  C   UNL     1      33.699 -22.964 -15.687  0.00  0.00    +0.071 C 
ATOM      9  C   UNL     1      35.733 -23.572 -14.925  0.00  0.00    +0.069 C 
ATOM     10  C   UNL     1      35.043 -22.950 -15.996  0.00  0.00    +0.059 C 
ATOM     11  C   UNL     1      37.059 -23.872 -14.617  0.00  0.00    +0.116 C 
ATOM     12  C   UNL     1      36.313 -24.807 -12.639  0.00  0.00    +0.143 C 
ATOM     13  H   UNL     1      35.955 -25.715 -10.794  0.00  0.00    +0.155 HD
ATOM     14  H   UNL     1      37.601 -25.664 -11.237  0.00  0.00    +0.155 HD
BRANCH   3  15
ATOM     15  C   UNL     1      32.201 -23.789 -13.753  0.00  0.00    +0.091 C 
ATOM     16  C   UNL     1      32.079 -23.024 -12.413  0.00  0.00    +0.023 C 
ATOM     17  C   UNL     1      31.060 -23.282 -14.666  0.00  0.00    +0.023 C 
BRANCH  15  18
ATOM     18  C   UNL     1      31.979 -25.297 -13.472  0.00  0.00    +0.155 C 
BRANCH  18  19
ATOM     19  O   UNL     1      30.695 -25.710 -13.929  0.00  0.00    -0.380 OA
ATOM     20  H   UNL     1      30.197 -26.093 -13.190  0.00  0.00    +0.211 HD
ENDBRANCH  18  19
ENDBRANCH  15  18
ENDBRANCH   3  15
ENDBRANCH   2  10
BRANCH   2  22
ATOM     21  N   UNL     1      32.628 -21.842 -19.491  0.00  0.00    -0.241 NA
ATOM     22  C   UNL     1      34.736 -21.836 -18.308  0.00  0.00    +0.059 C 
ATOM     23  C   UNL     1      35.218 -20.845 -19.157  0.00  0.00    +0.021 C 
ATOM     24  C   UNL     1      33.446 -22.297 -18.516  0.00  0.00    +0.102 C 
ATOM     25  C   UNL     1      34.406 -20.352 -20.172  0.00  0.00    +0.070 C 
ATOM     26  C   UNL     1      33.130 -20.879 -20.296  0.00  0.00    +0.113 C 
BRANCH  25  28
ATOM     27  O   UNL     1      37.032 -18.898 -20.253  0.00  0.00    -0.274 OA
ATOM     28  N   UNL     1      34.862 -19.360 -21.038  0.00  0.00    -0.282 N 
ATOM     29  C   UNL     1      36.106 -18.707 -21.036  0.00  0.00    +0.232 C 
ATOM     30  H   UNL     1      34.231 -19.082 -21.740  0.00  0.00    +0.155 HD
BRANCH  29  31
ATOM     31  C   UNL     1      36.192 -17.686 -22.160  0.00  0.00    +0.131 C 
BRANCH  31  34
ATOM     32 CL   UNL     1      32.896 -12.855 -21.070  0.00  0.00    -0.081 Cl
ATOM     33  N   UNL     1      35.007 -16.206 -20.636  0.00  0.00    -0.247 NA
ATOM     34  C   UNL     1      35.358 -16.455 -21.917  0.00  0.00    +0.068 C 
ATOM     35  C   UNL     1      34.997 -15.656 -22.990  0.00  0.00    +0.016 C 
ATOM     36  C   UNL     1      34.227 -14.528 -22.731  0.00  0.00    +0.014 C 
ATOM     37  C   UNL     1      34.258 -15.100 -20.423  0.00  0.00    +0.110 C 
ATOM     38  C   UNL     1      33.846 -14.238 -21.426  0.00  0.00    +0.077 C 
ENDBRANCH  31  34
ENDBRANCH  29  31
ENDBRANCH  25  28
ENDBRANCH   2  22
TORSDOF 8
ENDMDL
MODEL 6
REMARK VINA RESULT:     -10.8      4.082     10.441
REMARK  Name = 66571548
REMARK  8 active torsions:
REMARK  status: ('A' for Active; 'I' for Inactive)
REMARK    1  A    between atoms: C_2  and  C_10
REMARK    2  A    between atoms: C_2  and  C_22
REMARK    3  A    between atoms: N_3  and  C_15
REMARK    4  A    between atoms: C_15  and  C_18
REMARK    5  A    between atoms: C_18  and  O_19
REMARK    6  A    between atoms: C_25  and  N_28
REMARK    7  A    between atoms: C_29  and  C_31
REMARK    8  A    between atoms: C_31  and  C_34
REMARK                            x       y       z     vdW  Elec       q    Type
REMARK                         _______ _______ _______ _____ _____    ______ ____
ROOT
ATOM      1  O   UNL     1      37.230 -18.560 -21.849  0.00  0.00    -0.286 OA
ATOM      2  C   UNL     1      36.061 -18.399 -21.436  0.00  0.00    +0.199 C 
ENDROOT
BRANCH   2  10
ATOM      3  N   UNL     1      34.311 -15.242 -21.425  0.00  0.00    -0.261 N 
ATOM      4  N   UNL     1      33.582 -14.775 -23.675  0.00  0.00    -0.322 NA
ATOM      5  N   UNL     1      34.213 -16.514 -25.258  0.00  0.00    -0.170 NA
ATOM      6  N   UNL     1      33.020 -14.619 -25.940  0.00  0.00    -0.293 N 
ATOM      7  C   UNL     1      34.197 -15.540 -22.757  0.00  0.00    +0.201 C 
ATOM      8  C   UNL     1      35.001 -16.242 -20.789  0.00  0.00    +0.071 C 
ATOM      9  C   UNL     1      34.827 -16.759 -22.978  0.00  0.00    +0.069 C 
ATOM     10  C   UNL     1      35.333 -17.197 -21.728  0.00  0.00    +0.059 C 
ATOM     11  C   UNL     1      34.817 -17.238 -24.287  0.00  0.00    +0.116 C 
ATOM     12  C   UNL     1      33.641 -15.343 -24.896  0.00  0.00    +0.143 C 
ATOM     13  H   UNL     1      32.584 -13.758 -25.748  0.00  0.00    +0.155 HD
ATOM     14  H   UNL     1      33.025 -14.975 -26.857  0.00  0.00    +0.155 HD
BRANCH   3  15
ATOM     15  C   UNL     1      33.755 -13.982 -20.734  0.00  0.00    +0.091 C 
ATOM     16  C   UNL     1      32.636 -14.282 -19.707  0.00  0.00    +0.023 C 
ATOM     17  C   UNL     1      34.898 -13.284 -19.962  0.00  0.00    +0.023 C 
BRANCH  15  18
ATOM     18  C   UNL     1      33.192 -12.995 -21.788  0.00  0.00    +0.155 C 
BRANCH  18  19
ATOM     19  O   UNL     1      31.769 -13.050 -21.820  0.00  0.00    -0.380 OA
ATOM     20  H   UNL     1      31.406 -12.253 -21.403  0.00  0.00    +0.211 HD
ENDBRANCH  18  19
ENDBRANCH  15  18
ENDBRANCH   3  15
ENDBRANCH   2  10
BRANCH   2  22
ATOM     21  N   UNL     1      33.583 -20.917 -20.081  0.00  0.00    -0.241 NA
ATOM     22  C   UNL     1      35.486 -19.530 -20.629  0.00  0.00    +0.059 C 
ATOM     23  C   UNL     1      36.266 -20.225 -19.710  0.00  0.00    +0.021 C 
ATOM     24  C   UNL     1      34.162 -19.911 -20.775  0.00  0.00    +0.102 C 
ATOM     25  C   UNL     1      35.705 -21.266 -18.977  0.00  0.00    +0.070 C 
ATOM     26  C   UNL     1      34.372 -21.570 -19.198  0.00  0.00    +0.113 C 
BRANCH  25  28
ATOM     27  O   UNL     1      37.180 -20.326 -16.536  0.00  0.00    -0.274 OA
ATOM     28  N   UNL     1      36.462 -21.979 -18.050  0.00  0.00    -0.282 N 
ATOM     29  C   UNL     1      37.136 -21.492 -16.916  0.00  0.00    +0.232 C 
ATOM     30  H   UNL     1      36.533 -22.947 -18.209  0.00  0.00    +0.155 HD
BRANCH  29  31
ATOM     31  C   UNL     1      37.843 -22.615 -16.173  0.00  0.00    +0.131 C 
BRANCH  31  34
ATOM     32 CL   UNL     1      35.157 -24.322 -11.148  0.00  0.00    -0.081 Cl
ATOM     33  N   UNL     1      37.913 -23.392 -13.869  0.00  0.00    -0.247 NA
ATOM     34  C   UNL     1      37.133 -23.042 -14.916  0.00  0.00    +0.068 C 
ATOM     35  C   UNL     1      35.748 -23.058 -14.890  0.00  0.00    +0.016 C 
ATOM     36  C   UNL     1      35.123 -23.457 -13.713  0.00  0.00    +0.014 C 
ATOM     37  C   UNL     1      37.271 -23.775 -12.742  0.00  0.00    +0.110 C 
ATOM     38  C   UNL     1      35.892 -23.825 -12.615  0.00  0.00    +0.077 C 
ENDBRANCH  31  34
ENDBRANCH  29  31
ENDBRANCH  25  28
ENDBRANCH   2  22
TORSDOF 8
ENDMDL
MODEL 7
REMARK VINA RESULT:     -10.5      1.908      3.450
REMARK  Name = 66571548
REMARK  8 active torsions:
REMARK  status: ('A' for Active; 'I' for Inactive)
REMARK    1  A    between atoms: C_2  and  C_10
REMARK    2  A    between atoms: C_2  and  C_22
REMARK    3  A    between atoms: N_3  and  C_15
REMARK    4  A    between atoms: C_15  and  C_18
REMARK    5  A    between atoms: C_18  and  O_19
REMARK    6  A    between atoms: C_25  and  N_28
REMARK    7  A    between atoms: C_29  and  C_31
REMARK    8  A    between atoms: C_31  and  C_34
REMARK                            x       y       z     vdW  Elec       q    Type
REMARK                         _______ _______ _______ _____ _____    ______ ____
ROOT
ATOM      1  O   UNL     1      37.166 -21.955 -17.469  0.00  0.00    -0.286 OA
ATOM      2  C   UNL     1      35.963 -22.156 -17.192  0.00  0.00    +0.199 C 
ENDROOT
BRANCH   2  10
ATOM      3  N   UNL     1      35.744 -23.667 -13.922  0.00  0.00    -0.261 N 
ATOM      4  N   UNL     1      33.456 -24.330 -13.549  0.00  0.00    -0.322 NA
ATOM      5  N   UNL     1      31.998 -23.809 -15.427  0.00  0.00    -0.170 NA
ATOM      6  N   UNL     1      31.177 -24.849 -13.498  0.00  0.00    -0.293 N 
ATOM      7  C   UNL     1      34.432 -23.785 -14.296  0.00  0.00    +0.201 C 
ATOM      8  C   UNL     1      36.454 -23.061 -14.927  0.00  0.00    +0.071 C 
ATOM      9  C   UNL     1      34.300 -23.245 -15.569  0.00  0.00    +0.069 C 
ATOM     10  C   UNL     1      35.583 -22.789 -15.962  0.00  0.00    +0.059 C 
ATOM     11  C   UNL     1      33.023 -23.273 -16.130  0.00  0.00    +0.116 C 
ATOM     12  C   UNL     1      32.275 -24.297 -14.197  0.00  0.00    +0.143 C 
ATOM     13  H   UNL     1      31.306 -25.223 -12.596  0.00  0.00    +0.155 HD
ATOM     14  H   UNL     1      30.284 -24.859 -13.911  0.00  0.00    +0.155 HD
BRANCH   3  15
ATOM     15  C   UNL     1      36.345 -24.137 -12.583  0.00  0.00    +0.091 C 
ATOM     16  C   UNL     1      36.708 -25.642 -12.562  0.00  0.00    +0.023 C 
ATOM     17  C   UNL     1      37.651 -23.355 -12.314  0.00  0.00    +0.023 C 
BRANCH  15  18
ATOM     18  C   UNL     1      35.354 -23.863 -11.423  0.00  0.00    +0.155 C 
BRANCH  18  19
ATOM     19  O   UNL     1      34.769 -25.077 -10.963  0.00  0.00    -0.380 OA
ATOM     20  H   UNL     1      33.971 -24.876 -10.450  0.00  0.00    +0.211 HD
ENDBRANCH  18  19
ENDBRANCH  15  18
ENDBRANCH   3  15
ENDBRANCH   2  10
BRANCH   2  22
ATOM     21  N   UNL     1      32.679 -21.653 -19.004  0.00  0.00    -0.241 NA
ATOM     22  C   UNL     1      34.966 -21.696 -18.220  0.00  0.00    +0.059 C 
ATOM     23  C   UNL     1      35.361 -20.922 -19.307  0.00  0.00    +0.021 C 
ATOM     24  C   UNL     1      33.626 -22.032 -18.116  0.00  0.00    +0.102 C 
ATOM     25  C   UNL     1      34.415 -20.513 -20.242  0.00  0.00    +0.070 C 
ATOM     26  C   UNL     1      33.100 -20.901 -20.046  0.00  0.00    +0.113 C 
BRANCH  25  28
ATOM     27  O   UNL     1      36.330 -18.209 -20.444  0.00  0.00    -0.274 OA
ATOM     28  N   UNL     1      34.781 -19.738 -21.340  0.00  0.00    -0.282 N 
ATOM     29  C   UNL     1      35.687 -18.664 -21.386  0.00  0.00    +0.232 C 
ATOM     30  H   UNL     1      34.349 -19.972 -22.192  0.00  0.00    +0.155 HD
BRANCH  29  31
ATOM     31  C   UNL     1      35.793 -18.094 -22.792  0.00  0.00    +0.131 C 
BRANCH  31  34
ATOM     32 CL   UNL     1      33.087 -12.822 -23.307  0.00  0.00    -0.081 Cl
ATOM     33  N   UNL     1      35.073 -15.961 -21.869  0.00  0.00    -0.247 NA
ATOM     34  C   UNL     1      35.101 -16.767 -22.955  0.00  0.00    +0.068 C 
ATOM     35  C   UNL     1      34.537 -16.440 -24.177  0.00  0.00    +0.016 C 
ATOM     36  C   UNL     1      33.906 -15.206 -24.294  0.00  0.00    +0.014 C 
ATOM     37  C   UNL     1      34.451 -14.771 -22.020  0.00  0.00    +0.110 C 
ATOM     38  C   UNL     1      33.857 -14.350 -23.200  0.00  0.00    +0.077 C 
ENDBRANCH  31  34
ENDBRANCH  29  31
ENDBRANCH  25  28
ENDBRANCH   2  22
TORSDOF 8
ENDMDL
MODEL 8
REMARK VINA RESULT:     -10.3      9.597     15.849
REMARK  Name = 66571548
REMARK  8 active torsions:
REMARK  status: ('A' for Active; 'I' for Inactive)
REMARK    1  A    between atoms: C_2  and  C_10
REMARK    2  A    between atoms: C_2  and  C_22
REMARK    3  A    between atoms: N_3  and  C_15
REMARK    4  A    between atoms: C_15  and  C_18
REMARK    5  A    between atoms: C_18  and  O_19
REMARK    6  A    between atoms: C_25  and  N_28
REMARK    7  A    between atoms: C_29  and  C_31
REMARK    8  A    between atoms: C_31  and  C_34
REMARK                            x       y       z     vdW  Elec       q    Type
REMARK                         _______ _______ _______ _____ _____    ______ ____
ROOT
ATOM      1  O   UNL     1      33.441  -7.032 -19.195  0.00  0.00    -0.286 OA
ATOM      2  C   UNL     1      32.884  -7.388 -20.256  0.00  0.00    +0.199 C 
ENDROOT
BRANCH   2  10
ATOM      3  N   UNL     1      32.136  -4.828 -22.688  0.00  0.00    -0.261 N 
ATOM      4  N   UNL     1      33.603  -5.131 -24.578  0.00  0.00    -0.322 NA
ATOM      5  N   UNL     1      35.117  -7.019 -24.311  0.00  0.00    -0.170 NA
ATOM      6  N   UNL     1      35.152  -5.690 -26.238  0.00  0.00    -0.293 N 
ATOM      7  C   UNL     1      33.139  -5.472 -23.363  0.00  0.00    +0.201 C 
ATOM      8  C   UNL     1      31.927  -5.445 -21.482  0.00  0.00    +0.071 C 
ATOM      9  C   UNL     1      33.579  -6.527 -22.572  0.00  0.00    +0.069 C 
ATOM     10  C   UNL     1      32.807  -6.503 -21.383  0.00  0.00    +0.059 C 
ATOM     11  C   UNL     1      34.607  -7.312 -23.093  0.00  0.00    +0.116 C 
ATOM     12  C   UNL     1      34.591  -5.960 -24.968  0.00  0.00    +0.143 C 
ATOM     13  H   UNL     1      34.816  -4.934 -26.772  0.00  0.00    +0.155 HD
ATOM     14  H   UNL     1      35.877  -6.256 -26.587  0.00  0.00    +0.155 HD
BRANCH   3  15
ATOM     15  C   UNL     1      31.356  -3.599 -23.193  0.00  0.00    +0.091 C 
ATOM     16  C   UNL     1      32.264  -2.422 -23.622  0.00  0.00    +0.023 C 
ATOM     17  C   UNL     1      30.528  -4.005 -24.435  0.00  0.00    +0.023 C 
BRANCH  15  18
ATOM     18  C   UNL     1      30.387  -3.089 -22.097  0.00  0.00    +0.155 C 
BRANCH  18  19
ATOM     19  O   UNL     1      30.907  -1.921 -21.470  0.00  0.00    -0.380 OA
ATOM     20  H   UNL     1      31.875  -1.981 -21.426  0.00  0.00    +0.211 HD
ENDBRANCH  18  19
ENDBRANCH  15  18
ENDBRANCH   3  15
ENDBRANCH   2  10
BRANCH   2  22
ATOM     21  N   UNL     1      31.018 -10.486 -19.144  0.00  0.00    -0.241 NA
ATOM     22  C   UNL     1      32.312  -8.779 -20.265  0.00  0.00    +0.059 C 
ATOM     23  C   UNL     1      32.526  -9.637 -21.339  0.00  0.00    +0.021 C 
ATOM     24  C   UNL     1      31.559  -9.248 -19.201  0.00  0.00    +0.102 C 
ATOM     25  C   UNL     1      31.986 -10.918 -21.317  0.00  0.00    +0.070 C 
ATOM     26  C   UNL     1      31.246 -11.291 -20.206  0.00  0.00    +0.113 C 
BRANCH  25  28
ATOM     27  O   UNL     1      34.164 -11.017 -23.381  0.00  0.00    -0.274 OA
ATOM     28  N   UNL     1      32.184 -11.799 -22.378  0.00  0.00    -0.282 N 
ATOM     29  C   UNL     1      33.225 -11.805 -23.323  0.00  0.00    +0.232 C 
ATOM     30  H   UNL     1      31.508 -12.506 -22.479  0.00  0.00    +0.155 HD
BRANCH  29  31
ATOM     31  C   UNL     1      33.059 -12.945 -24.316  0.00  0.00    +0.131 C 
BRANCH  31  34
ATOM     32 CL   UNL     1      35.725 -17.934 -22.475  0.00  0.00    -0.081 Cl
ATOM     33  N   UNL     1      34.213 -14.251 -22.618  0.00  0.00    -0.247 NA
ATOM     34  C   UNL     1      33.728 -14.222 -23.880  0.00  0.00    +0.068 C 
ATOM     35  C   UNL     1      33.814 -15.281 -24.769  0.00  0.00    +0.016 C 
ATOM     36  C   UNL     1      34.438 -16.446 -24.335  0.00  0.00    +0.014 C 
ATOM     37  C   UNL     1      34.812 -15.400 -22.232  0.00  0.00    +0.110 C 
ATOM     38  C   UNL     1      34.950 -16.514 -23.044  0.00  0.00    +0.077 C 
ENDBRANCH  31  34
ENDBRANCH  29  31
ENDBRANCH  25  28
ENDBRANCH   2  22
TORSDOF 8
ENDMDL
MODEL 9
REMARK VINA RESULT:     -10.3      5.793     12.989
REMARK  Name = 66571548
REMARK  8 active torsions:
REMARK  status: ('A' for Active; 'I' for Inactive)
REMARK    1  A    between atoms: C_2  and  C_10
REMARK    2  A    between atoms: C_2  and  C_22
REMARK    3  A    between atoms: N_3  and  C_15
REMARK    4  A    between atoms: C_15  and  C_18
REMARK    5  A    between atoms: C_18  and  O_19
REMARK    6  A    between atoms: C_25  and  N_28
REMARK    7  A    between atoms: C_29  and  C_31
REMARK    8  A    between atoms: C_31  and  C_34
REMARK                            x       y       z     vdW  Elec       q    Type
REMARK                         _______ _______ _______ _____ _____    ______ ____
ROOT
ATOM      1  O   UNL     1      31.408 -12.931 -20.716  0.00  0.00    -0.286 OA
ATOM      2  C   UNL     1      32.136 -12.460 -21.616  0.00  0.00    +0.199 C 
ENDROOT
BRANCH   2  10
ATOM      3  N   UNL     1      32.247  -9.087 -22.894  0.00  0.00    -0.261 N 
ATOM      4  N   UNL     1      32.591  -7.587 -21.037  0.00  0.00    -0.322 NA
ATOM      5  N   UNL     1      32.761  -8.744 -18.902  0.00  0.00    -0.170 NA
ATOM      6  N   UNL     1      32.927  -6.413 -19.043  0.00  0.00    -0.293 N 
ATOM      7  C   UNL     1      32.431  -8.813 -21.565  0.00  0.00    +0.201 C 
ATOM      8  C   UNL     1      32.117 -10.440 -23.069  0.00  0.00    +0.071 C 
ATOM      9  C   UNL     1      32.420 -10.019 -20.874  0.00  0.00    +0.069 C 
ATOM     10  C   UNL     1      32.221 -11.044 -21.834  0.00  0.00    +0.059 C 
ATOM     11  C   UNL     1      32.595  -9.950 -19.493  0.00  0.00    +0.116 C 
ATOM     12  C   UNL     1      32.748  -7.652 -19.700  0.00  0.00    +0.143 C 
ATOM     13  H   UNL     1      32.928  -5.577 -19.563  0.00  0.00    +0.155 HD
ATOM     14  H   UNL     1      33.048  -6.386 -18.067  0.00  0.00    +0.155 HD
BRANCH   3  15
ATOM     15  C   UNL     1      32.193  -8.044 -24.028  0.00  0.00    +0.091 C 
ATOM     16  C   UNL     1      31.994  -8.665 -25.432  0.00  0.00    +0.023 C 
ATOM     17  C   UNL     1      30.998  -7.095 -23.783  0.00  0.00    +0.023 C 
BRANCH  15  18
ATOM     18  C   UNL     1      33.497  -7.206 -24.050  0.00  0.00    +0.155 C 
BRANCH  18  19
ATOM     19  O   UNL     1      33.281  -5.924 -23.470  0.00  0.00    -0.380 OA
ATOM     20  H   UNL     1      34.005  -5.330 -23.722  0.00  0.00    +0.211 HD
ENDBRANCH  18  19
ENDBRANCH  15  18
ENDBRANCH   3  15
ENDBRANCH   2  10
BRANCH   2  22
ATOM     21  N   UNL     1      33.470 -14.341 -24.617  0.00  0.00    -0.241 NA
ATOM     22  C   UNL     1      32.899 -13.464 -22.437  0.00  0.00    +0.059 C 
ATOM     23  C   UNL     1      33.710 -14.418 -21.832  0.00  0.00    +0.021 C 
ATOM     24  C   UNL     1      32.813 -13.468 -23.820  0.00  0.00    +0.102 C 
ATOM     25  C   UNL     1      34.402 -15.334 -22.619  0.00  0.00    +0.070 C 
ATOM     26  C   UNL     1      34.250 -15.253 -23.994  0.00  0.00    +0.113 C 
BRANCH  25  28
ATOM     27  O   UNL     1      34.876 -18.195 -23.395  0.00  0.00    -0.274 OA
ATOM     28  N   UNL     1      35.221 -16.301 -22.041  0.00  0.00    -0.282 N 
ATOM     29  C   UNL     1      35.411 -17.634 -22.443  0.00  0.00    +0.232 C 
ATOM     30  H   UNL     1      35.731 -16.014 -21.250  0.00  0.00    +0.155 HD
BRANCH  29  31
ATOM     31  C   UNL     1      36.397 -18.348 -21.531  0.00  0.00    +0.131 C 
BRANCH  31  34
ATOM     32 CL   UNL     1      34.014 -22.620 -18.146  0.00  0.00    -0.081 Cl
ATOM     33  N   UNL     1      36.588 -20.118 -19.872  0.00  0.00    -0.247 NA
ATOM     34  C   UNL     1      35.763 -19.423 -20.687  0.00  0.00    +0.068 C 
ATOM     35  C   UNL     1      34.398 -19.644 -20.782  0.00  0.00    +0.016 C 
ATOM     36  C   UNL     1      33.845 -20.644 -19.989  0.00  0.00    +0.014 C 
ATOM     37  C   UNL     1      36.014 -21.081 -19.117  0.00  0.00    +0.110 C 
ATOM     38  C   UNL     1      34.661 -21.381 -19.138  0.00  0.00    +0.077 C 
ENDBRANCH  31  34
ENDBRANCH  29  31
ENDBRANCH  25  28
ENDBRANCH   2  22
TORSDOF 8
ENDMDL
