MODEL 1
REMARK VINA RESULT:     -11.2      0.000      0.000
REMARK  Name = 11697697
REMARK  7 active torsions:
REMARK  status: ('A' for Active; 'I' for Inactive)
REMARK    1  A    between atoms: N_2  and  C_14
REMARK    2  A    between atoms: C_8  and  C_32
REMARK    3  A    between atoms: C_13  and  O_19
REMARK    4  A    between atoms: O_19  and  C_20
REMARK    5  A    between atoms: C_20  and  C_21
REMARK    6  A    between atoms: C_21  and  C_22
REMARK    7  A    between atoms: C_22  and  N_23
REMARK                            x       y       z     vdW  Elec       q    Type
REMARK                         _______ _______ _______ _____ _____    ______ ____
ROOT
ATOM      1  O   UNL     1      34.807 -16.340 -20.314  0.00  0.00    -0.273 OA
ATOM      2  N   UNL     1      34.984 -17.949 -22.025  0.00  0.00    -0.215 N 
ATOM      3  N   UNL     1      34.524 -17.296 -24.267  0.00  0.00    -0.394 NA
ATOM      4  C   UNL     1      34.305 -15.646 -22.477  0.00  0.00    +0.156 C 
ATOM      5  C   UNL     1      34.701 -16.673 -21.491  0.00  0.00    +0.245 C 
ATOM      6  C   UNL     1      34.846 -18.200 -23.393  0.00  0.00    +0.170 C 
ATOM      7  C   UNL     1      34.256 -15.995 -23.826  0.00  0.00    +0.123 C 
ATOM      8  C   UNL     1      34.008 -14.340 -22.066  0.00  0.00    +0.064 C 
ATOM      9  C   UNL     1      33.907 -15.020 -24.767  0.00  0.00    +0.028 C 
ATOM     10  C   UNL     1      33.660 -13.379 -23.014  0.00  0.00    +0.001 C 
ATOM     11  C   UNL     1      35.017 -19.605 -23.930  0.00  0.00    +0.084 C 
ATOM     12  C   UNL     1      33.610 -13.717 -24.364  0.00  0.00    +0.002 C 
ENDROOT
BRANCH   2  14
ATOM     13  C   UNL     1      36.374 -20.882 -19.337  0.00  0.00    +0.139 C 
ATOM     14  C   UNL     1      35.458 -18.950 -21.110  0.00  0.00    +0.060 C 
ATOM     15  C   UNL     1      37.263 -19.953 -19.877  0.00  0.00    +0.038 C 
ATOM     16  C   UNL     1      35.024 -20.841 -19.688  0.00  0.00    +0.038 C 
ATOM     17  C   UNL     1      36.804 -18.983 -20.767  0.00  0.00    +0.018 C 
ATOM     18  C   UNL     1      34.565 -19.870 -20.577  0.00  0.00    +0.018 C 
BRANCH  13  19
ATOM     19  O   UNL     1      36.823 -21.830 -18.469  0.00  0.00    -0.476 OA
BRANCH  19  20
ATOM     20  C   UNL     1      36.215 -21.869 -17.179  0.00  0.00    +0.203 C 
BRANCH  20  21
ATOM     21  C   UNL     1      37.304 -22.037 -16.127  0.00  0.00    +0.025 C 
BRANCH  21  22
ATOM     22  C   UNL     1      36.809 -22.851 -14.936  0.00  0.00    -0.074 C 
BRANCH  22  23
ATOM     23  N   UNL     1      37.188 -24.248 -15.085  0.00  0.00    +0.387 N 
ATOM     24  C   UNL     1      38.354 -24.601 -14.277  0.00  0.00    -0.077 C 
ATOM     25  C   UNL     1      36.132 -25.162 -14.648  0.00  0.00    -0.077 C 
ATOM     26  C   UNL     1      38.323 -26.121 -14.276  0.00  0.00    -0.025 C 
ATOM     27  C   UNL     1      36.863 -26.491 -14.524  0.00  0.00    -0.025 C 
ATOM     28  H   UNL     1      37.379 -24.347 -16.082  0.00  0.00    -0.080 HD
ENDBRANCH  22  23
ENDBRANCH  21  22
ENDBRANCH  20  21
ENDBRANCH  19  20
ENDBRANCH  13  19
ENDBRANCH   2  14
BRANCH   8  32
ATOM     29  F   UNL     1      33.356 -14.714 -19.795  0.00  0.00    -0.166 F 
ATOM     30  F   UNL     1      35.300 -13.811 -20.125  0.00  0.00    -0.166 F 
ATOM     31  F   UNL     1      33.493 -12.652 -20.472  0.00  0.00    -0.166 F 
ATOM     32  C   UNL     1      34.040 -13.890 -20.642  0.00  0.00    +0.416 C 
ENDBRANCH   8  32
TORSDOF 7
ENDMDL
MODEL 2
REMARK VINA RESULT:     -10.8      1.681      2.453
REMARK  Name = 11697697
REMARK  7 active torsions:
REMARK  status: ('A' for Active; 'I' for Inactive)
REMARK    1  A    between atoms: N_2  and  C_14
REMARK    2  A    between atoms: C_8  and  C_32
REMARK    3  A    between atoms: C_13  and  O_19
REMARK    4  A    between atoms: O_19  and  C_20
REMARK    5  A    between atoms: C_20  and  C_21
REMARK    6  A    between atoms: C_21  and  C_22
REMARK    7  A    between atoms: C_22  and  N_23
REMARK                            x       y       z     vdW  Elec       q    Type
REMARK                         _______ _______ _______ _____ _____    ______ ____
ROOT
ATOM      1  O   UNL     1      34.704 -16.480 -20.254  0.00  0.00    -0.273 OA
ATOM      2  N   UNL     1      34.907 -18.113 -21.939  0.00  0.00    -0.215 N 
ATOM      3  N   UNL     1      34.638 -17.459 -24.211  0.00  0.00    -0.394 NA
ATOM      4  C   UNL     1      34.390 -15.781 -22.451  0.00  0.00    +0.156 C 
ATOM      5  C   UNL     1      34.660 -16.819 -21.434  0.00  0.00    +0.245 C 
ATOM      6  C   UNL     1      34.848 -18.370 -23.311  0.00  0.00    +0.170 C 
ATOM      7  C   UNL     1      34.414 -16.141 -23.798  0.00  0.00    +0.123 C 
ATOM      8  C   UNL     1      34.139 -14.457 -22.069  0.00  0.00    +0.064 C 
ATOM      9  C   UNL     1      34.184 -15.157 -24.767  0.00  0.00    +0.028 C 
ATOM     10  C   UNL     1      33.911 -13.487 -23.044  0.00  0.00    +0.001 C 
ATOM     11  C   UNL     1      34.977 -19.788 -23.827  0.00  0.00    +0.084 C 
ATOM     12  C   UNL     1      33.935 -13.836 -24.393  0.00  0.00    +0.002 C 
ENDROOT
BRANCH   2  14
ATOM     13  C   UNL     1      35.945 -21.097 -19.149  0.00  0.00    +0.139 C 
ATOM     14  C   UNL     1      35.260 -19.129 -20.987  0.00  0.00    +0.060 C 
ATOM     15  C   UNL     1      34.621 -20.962 -19.566  0.00  0.00    +0.038 C 
ATOM     16  C   UNL     1      36.926 -20.243 -19.655  0.00  0.00    +0.038 C 
ATOM     17  C   UNL     1      34.277 -19.975 -20.488  0.00  0.00    +0.018 C 
ATOM     18  C   UNL     1      36.582 -19.256 -20.578  0.00  0.00    +0.018 C 
BRANCH  13  19
ATOM     19  O   UNL     1      36.281 -22.060 -18.248  0.00  0.00    -0.476 OA
BRANCH  19  20
ATOM     20  C   UNL     1      37.060 -21.654 -17.123  0.00  0.00    +0.203 C 
BRANCH  20  21
ATOM     21  C   UNL     1      36.363 -22.116 -15.850  0.00  0.00    +0.025 C 
BRANCH  21  22
ATOM     22  C   UNL     1      35.355 -23.225 -16.135  0.00  0.00    -0.074 C 
BRANCH  22  23
ATOM     23  N   UNL     1      34.000 -22.749 -15.898  0.00  0.00    +0.387 N 
ATOM     24  C   UNL     1      33.068 -23.176 -16.940  0.00  0.00    -0.077 C 
ATOM     25  C   UNL     1      33.437 -23.267 -14.650  0.00  0.00    -0.077 C 
ATOM     26  C   UNL     1      31.708 -22.922 -16.308  0.00  0.00    -0.025 C 
ATOM     27  C   UNL     1      31.951 -22.979 -14.802  0.00  0.00    -0.025 C 
ATOM     28  H   UNL     1      34.095 -21.734 -15.871  0.00  0.00    -0.080 HD
ENDBRANCH  22  23
ENDBRANCH  21  22
ENDBRANCH  20  21
ENDBRANCH  19  20
ENDBRANCH  13  19
ENDBRANCH   2  14
BRANCH   8  32
ATOM     29  F   UNL     1      33.328 -14.781 -19.843  0.00  0.00    -0.166 F 
ATOM     30  F   UNL     1      35.326 -13.964 -20.052  0.00  0.00    -0.166 F 
ATOM     31  F   UNL     1      33.596 -12.733 -20.523  0.00  0.00    -0.166 F 
ATOM     32  C   UNL     1      34.099 -13.995 -20.649  0.00  0.00    +0.416 C 
ENDBRANCH   8  32
TORSDOF 7
ENDMDL
MODEL 3
REMARK VINA RESULT:     -10.3      4.884      8.085
REMARK  Name = 11697697
REMARK  7 active torsions:
REMARK  status: ('A' for Active; 'I' for Inactive)
REMARK    1  A    between atoms: N_2  and  C_14
REMARK    2  A    between atoms: C_8  and  C_32
REMARK    3  A    between atoms: C_13  and  O_19
REMARK    4  A    between atoms: O_19  and  C_20
REMARK    5  A    between atoms: C_20  and  C_21
REMARK    6  A    between atoms: C_21  and  C_22
REMARK    7  A    between atoms: C_22  and  N_23
REMARK                            x       y       z     vdW  Elec       q    Type
REMARK                         _______ _______ _______ _____ _____    ______ ____
ROOT
ATOM      1  O   UNL     1      34.738  -9.549 -23.491  0.00  0.00    -0.273 OA
ATOM      2  N   UNL     1      32.716 -10.498 -22.741  0.00  0.00    -0.215 N 
ATOM      3  N   UNL     1      30.885  -9.059 -22.252  0.00  0.00    -0.394 NA
ATOM      4  C   UNL     1      33.000  -8.084 -22.993  0.00  0.00    +0.156 C 
ATOM      5  C   UNL     1      33.585  -9.439 -23.083  0.00  0.00    +0.245 C 
ATOM      6  C   UNL     1      31.412 -10.243 -22.308  0.00  0.00    +0.170 C 
ATOM      7  C   UNL     1      31.668  -7.954 -22.604  0.00  0.00    +0.123 C 
ATOM      8  C   UNL     1      33.764  -6.955 -23.316  0.00  0.00    +0.064 C 
ATOM      9  C   UNL     1      31.101  -6.675 -22.541  0.00  0.00    +0.028 C 
ATOM     10  C   UNL     1      33.188  -5.688 -23.249  0.00  0.00    +0.001 C 
ATOM     11  C   UNL     1      30.540 -11.378 -21.812  0.00  0.00    +0.084 C 
ATOM     12  C   UNL     1      31.857  -5.547 -22.863  0.00  0.00    +0.002 C 
ENDROOT
BRANCH   2  14
ATOM     13  C   UNL     1      34.198 -14.415 -23.213  0.00  0.00    +0.139 C 
ATOM     14  C   UNL     1      33.220 -11.833 -22.901  0.00  0.00    +0.060 C 
ATOM     15  C   UNL     1      33.676 -13.730 -24.310  0.00  0.00    +0.038 C 
ATOM     16  C   UNL     1      34.229 -13.804 -21.958  0.00  0.00    +0.038 C 
ATOM     17  C   UNL     1      33.185 -12.434 -24.154  0.00  0.00    +0.018 C 
ATOM     18  C   UNL     1      33.738 -12.508 -21.803  0.00  0.00    +0.018 C 
BRANCH  13  19
ATOM     19  O   UNL     1      34.677 -15.680 -23.365  0.00  0.00    -0.476 OA
BRANCH  19  20
ATOM     20  C   UNL     1      35.315 -16.273 -22.235  0.00  0.00    +0.203 C 
BRANCH  20  21
ATOM     21  C   UNL     1      35.358 -17.783 -22.431  0.00  0.00    +0.025 C 
BRANCH  21  22
ATOM     22  C   UNL     1      36.333 -18.445 -21.463  0.00  0.00    -0.074 C 
BRANCH  22  23
ATOM     23  N   UNL     1      35.609 -19.197 -20.450  0.00  0.00    +0.387 N 
ATOM     24  C   UNL     1      34.343 -19.732 -20.949  0.00  0.00    -0.077 C 
ATOM     25  C   UNL     1      36.356 -20.365 -19.982  0.00  0.00    -0.077 C 
ATOM     26  C   UNL     1      33.971 -20.767 -19.898  0.00  0.00    -0.025 C 
ATOM     27  C   UNL     1      35.294 -21.181 -19.260  0.00  0.00    -0.025 C 
ATOM     28  H   UNL     1      35.462 -18.523 -19.699  0.00  0.00    -0.080 HD
ENDBRANCH  22  23
ENDBRANCH  21  22
ENDBRANCH  20  21
ENDBRANCH  19  20
ENDBRANCH  13  19
ENDBRANCH   2  14
BRANCH   8  32
ATOM     29  F   UNL     1      35.422  -7.890 -24.764  0.00  0.00    -0.166 F 
ATOM     30  F   UNL     1      35.681  -5.817 -24.181  0.00  0.00    -0.166 F 
ATOM     31  F   UNL     1      36.026  -7.403 -22.733  0.00  0.00    -0.166 F 
ATOM     32  C   UNL     1      35.195  -7.014 -23.742  0.00  0.00    +0.416 C 
ENDBRANCH   8  32
TORSDOF 7
ENDMDL
MODEL 4
REMARK VINA RESULT:     -10.0      4.629     10.575
REMARK  Name = 11697697
REMARK  7 active torsions:
REMARK  status: ('A' for Active; 'I' for Inactive)
REMARK    1  A    between atoms: N_2  and  C_14
REMARK    2  A    between atoms: C_8  and  C_32
REMARK    3  A    between atoms: C_13  and  O_19
REMARK    4  A    between atoms: O_19  and  C_20
REMARK    5  A    between atoms: C_20  and  C_21
REMARK    6  A    between atoms: C_21  and  C_22
REMARK    7  A    between atoms: C_22  and  N_23
REMARK                            x       y       z     vdW  Elec       q    Type
REMARK                         _______ _______ _______ _____ _____    ______ ____
ROOT
ATOM      1  O   UNL     1      31.067 -22.445 -17.249  0.00  0.00    -0.273 OA
ATOM      2  N   UNL     1      33.372 -22.648 -16.810  0.00  0.00    -0.215 N 
ATOM      3  N   UNL     1      34.073 -23.884 -14.900  0.00  0.00    -0.394 NA
ATOM      4  C   UNL     1      31.683 -23.632 -15.345  0.00  0.00    +0.156 C 
ATOM      5  C   UNL     1      31.998 -22.834 -16.548  0.00  0.00    +0.245 C 
ATOM      6  C   UNL     1      34.342 -23.161 -15.944  0.00  0.00    +0.170 C 
ATOM      7  C   UNL     1      32.734 -24.143 -14.585  0.00  0.00    +0.123 C 
ATOM      8  C   UNL     1      30.353 -23.890 -14.989  0.00  0.00    +0.064 C 
ATOM      9  C   UNL     1      32.443 -24.921 -13.459  0.00  0.00    +0.028 C 
ATOM     10  C   UNL     1      30.076 -24.666 -13.864  0.00  0.00    +0.001 C 
ATOM     11  C   UNL     1      35.805 -22.835 -16.160  0.00  0.00    +0.084 C 
ATOM     12  C   UNL     1      31.119 -25.182 -13.100  0.00  0.00    +0.002 C 
ENDROOT
BRANCH   2  14
ATOM     13  C   UNL     1      34.390 -20.614 -20.358  0.00  0.00    +0.139 C 
ATOM     14  C   UNL     1      33.720 -21.954 -18.019  0.00  0.00    +0.060 C 
ATOM     15  C   UNL     1      35.373 -21.288 -19.634  0.00  0.00    +0.038 C 
ATOM     16  C   UNL     1      33.069 -20.613 -19.907  0.00  0.00    +0.038 C 
ATOM     17  C   UNL     1      35.037 -21.960 -18.459  0.00  0.00    +0.018 C 
ATOM     18  C   UNL     1      32.734 -21.285 -18.733  0.00  0.00    +0.018 C 
BRANCH  13  19
ATOM     19  O   UNL     1      34.718 -19.957 -21.504  0.00  0.00    -0.476 OA
BRANCH  19  20
ATOM     20  C   UNL     1      35.556 -18.810 -21.377  0.00  0.00    +0.203 C 
BRANCH  20  21
ATOM     21  C   UNL     1      35.309 -17.886 -22.563  0.00  0.00    +0.025 C 
BRANCH  21  22
ATOM     22  C   UNL     1      35.319 -16.421 -22.142  0.00  0.00    -0.074 C 
BRANCH  22  23
ATOM     23  N   UNL     1      34.900 -15.574 -23.250  0.00  0.00    +0.387 N 
ATOM     24  C   UNL     1      34.225 -16.327 -24.305  0.00  0.00    -0.077 C 
ATOM     25  C   UNL     1      33.939 -14.552 -22.837  0.00  0.00    -0.077 C 
ATOM     26  C   UNL     1      33.552 -15.238 -25.126  0.00  0.00    -0.025 C 
ATOM     27  C   UNL     1      33.366 -14.069 -24.162  0.00  0.00    -0.025 C 
ATOM     28  H   UNL     1      35.769 -15.157 -23.584  0.00  0.00    -0.080 HD
ENDBRANCH  22  23
ENDBRANCH  21  22
ENDBRANCH  20  21
ENDBRANCH  19  20
ENDBRANCH  13  19
ENDBRANCH   2  14
BRANCH   8  32
ATOM     29  F   UNL     1      29.217 -22.036 -15.984  0.00  0.00    -0.166 F 
ATOM     30  F   UNL     1      29.035 -23.952 -16.984  0.00  0.00    -0.166 F 
ATOM     31  F   UNL     1      27.995 -23.604 -15.106  0.00  0.00    -0.166 F 
ATOM     32  C   UNL     1      29.174 -23.380 -15.752  0.00  0.00    +0.416 C 
ENDBRANCH   8  32
TORSDOF 7
ENDMDL
MODEL 5
REMARK VINA RESULT:      -9.9      4.154      7.043
REMARK  Name = 11697697
REMARK  7 active torsions:
REMARK  status: ('A' for Active; 'I' for Inactive)
REMARK    1  A    between atoms: N_2  and  C_14
REMARK    2  A    between atoms: C_8  and  C_32
REMARK    3  A    between atoms: C_13  and  O_19
REMARK    4  A    between atoms: O_19  and  C_20
REMARK    5  A    between atoms: C_20  and  C_21
REMARK    6  A    between atoms: C_21  and  C_22
REMARK    7  A    between atoms: C_22  and  N_23
REMARK                            x       y       z     vdW  Elec       q    Type
REMARK                         _______ _______ _______ _____ _____    ______ ____
ROOT
ATOM      1  O   UNL     1      33.706 -11.149 -23.604  0.00  0.00    -0.273 OA
ATOM      2  N   UNL     1      33.009 -12.598 -21.883  0.00  0.00    -0.215 N 
ATOM      3  N   UNL     1      31.857 -11.687 -20.011  0.00  0.00    -0.394 NA
ATOM      4  C   UNL     1      32.621 -10.188 -21.784  0.00  0.00    +0.156 C 
ATOM      5  C   UNL     1      33.185 -11.346 -22.509  0.00  0.00    +0.245 C 
ATOM      6  C   UNL     1      32.377 -12.695 -20.640  0.00  0.00    +0.170 C 
ATOM      7  C   UNL     1      31.960 -10.411 -20.577  0.00  0.00    +0.123 C 
ATOM      8  C   UNL     1      32.728  -8.895 -22.312  0.00  0.00    +0.064 C 
ATOM      9  C   UNL     1      31.401  -9.322 -19.898  0.00  0.00    +0.028 C 
ATOM     10  C   UNL     1      32.168  -7.819 -21.626  0.00  0.00    +0.001 C 
ATOM     11  C   UNL     1      32.319 -14.025 -19.917  0.00  0.00    +0.084 C 
ATOM     12  C   UNL     1      31.504  -8.032 -20.420  0.00  0.00    +0.002 C 
ENDROOT
BRANCH   2  14
ATOM     13  C   UNL     1      34.349 -15.995 -23.987  0.00  0.00    +0.139 C 
ATOM     14  C   UNL     1      33.465 -13.757 -22.600  0.00  0.00    +0.060 C 
ATOM     15  C   UNL     1      33.338 -15.197 -24.522  0.00  0.00    +0.038 C 
ATOM     16  C   UNL     1      34.916 -15.670 -22.754  0.00  0.00    +0.038 C 
ATOM     17  C   UNL     1      32.894 -14.074 -23.826  0.00  0.00    +0.018 C 
ATOM     18  C   UNL     1      34.472 -14.546 -22.059  0.00  0.00    +0.018 C 
BRANCH  13  19
ATOM     19  O   UNL     1      34.781 -17.093 -24.666  0.00  0.00    -0.476 OA
BRANCH  19  20
ATOM     20  C   UNL     1      34.095 -18.320 -24.422  0.00  0.00    +0.203 C 
BRANCH  20  21
ATOM     21  C   UNL     1      34.985 -19.221 -23.576  0.00  0.00    +0.025 C 
BRANCH  21  22
ATOM     22  C   UNL     1      34.903 -18.857 -22.097  0.00  0.00    -0.074 C 
BRANCH  22  23
ATOM     23  N   UNL     1      34.813 -20.061 -21.284  0.00  0.00    +0.387 N 
ATOM     24  C   UNL     1      35.896 -20.157 -20.307  0.00  0.00    -0.077 C 
ATOM     25  C   UNL     1      33.583 -20.109 -20.494  0.00  0.00    -0.077 C 
ATOM     26  C   UNL     1      35.397 -21.228 -19.348  0.00  0.00    -0.025 C 
ATOM     27  C   UNL     1      33.877 -21.199 -19.473  0.00  0.00    -0.025 C 
ATOM     28  H   UNL     1      34.851 -20.821 -21.963  0.00  0.00    -0.080 HD
ENDBRANCH  22  23
ENDBRANCH  21  22
ENDBRANCH  20  21
ENDBRANCH  19  20
ENDBRANCH  13  19
ENDBRANCH   2  14
BRANCH   8  32
ATOM     29  F   UNL     1      34.712  -9.009 -23.642  0.00  0.00    -0.166 F 
ATOM     30  F   UNL     1      32.817  -9.134 -24.690  0.00  0.00    -0.166 F 
ATOM     31  F   UNL     1      33.469  -7.238 -23.848  0.00  0.00    -0.166 F 
ATOM     32  C   UNL     1      33.419  -8.577 -23.599  0.00  0.00    +0.416 C 
ENDBRANCH   8  32
TORSDOF 7
ENDMDL
MODEL 6
REMARK VINA RESULT:      -9.9      4.659     11.282
REMARK  Name = 11697697
REMARK  7 active torsions:
REMARK  status: ('A' for Active; 'I' for Inactive)
REMARK    1  A    between atoms: N_2  and  C_14
REMARK    2  A    between atoms: C_8  and  C_32
REMARK    3  A    between atoms: C_13  and  O_19
REMARK    4  A    between atoms: O_19  and  C_20
REMARK    5  A    between atoms: C_20  and  C_21
REMARK    6  A    between atoms: C_21  and  C_22
REMARK    7  A    between atoms: C_22  and  N_23
REMARK                            x       y       z     vdW  Elec       q    Type
REMARK                         _______ _______ _______ _____ _____    ______ ____
ROOT
ATOM      1  O   UNL     1      37.291 -24.002 -15.628  0.00  0.00    -0.273 OA
ATOM      2  N   UNL     1      35.058 -23.316 -15.327  0.00  0.00    -0.215 N 
ATOM      3  N   UNL     1      34.040 -23.621 -13.198  0.00  0.00    -0.394 NA
ATOM      4  C   UNL     1      36.343 -24.366 -13.534  0.00  0.00    +0.156 C 
ATOM      5  C   UNL     1      36.281 -23.900 -14.936  0.00  0.00    +0.245 C 
ATOM      6  C   UNL     1      33.984 -23.238 -14.436  0.00  0.00    +0.170 C 
ATOM      7  C   UNL     1      35.227 -24.185 -12.718  0.00  0.00    +0.123 C 
ATOM      8  C   UNL     1      37.509 -24.956 -13.030  0.00  0.00    +0.064 C 
ATOM      9  C   UNL     1      35.289 -24.601 -11.383  0.00  0.00    +0.028 C 
ATOM     10  C   UNL     1      37.557 -25.366 -11.698  0.00  0.00    +0.001 C 
ATOM     11  C   UNL     1      32.636 -22.737 -14.911  0.00  0.00    +0.084 C 
ATOM     12  C   UNL     1      36.448 -25.188 -10.875  0.00  0.00    +0.002 C 
ENDROOT
BRANCH   2  14
ATOM     13  C   UNL     1      34.854 -21.714 -19.220  0.00  0.00    +0.139 C 
ATOM     14  C   UNL     1      34.989 -22.771 -16.654  0.00  0.00    +0.060 C 
ATOM     15  C   UNL     1      33.797 -22.477 -18.723  0.00  0.00    +0.038 C 
ATOM     16  C   UNL     1      35.980 -21.482 -18.428  0.00  0.00    +0.038 C 
ATOM     17  C   UNL     1      33.865 -23.007 -17.436  0.00  0.00    +0.018 C 
ATOM     18  C   UNL     1      36.047 -22.013 -17.140  0.00  0.00    +0.018 C 
BRANCH  13  19
ATOM     19  O   UNL     1      34.789 -21.197 -20.477  0.00  0.00    -0.476 OA
BRANCH  19  20
ATOM     20  C   UNL     1      34.386 -19.833 -20.599  0.00  0.00    +0.203 C 
BRANCH  20  21
ATOM     21  C   UNL     1      35.024 -19.241 -21.848  0.00  0.00    +0.025 C 
BRANCH  21  22
ATOM     22  C   UNL     1      35.855 -18.006 -21.520  0.00  0.00    -0.074 C 
BRANCH  22  23
ATOM     23  N   UNL     1      35.671 -16.986 -22.542  0.00  0.00    +0.387 N 
ATOM     24  C   UNL     1      34.867 -17.461 -23.666  0.00  0.00    -0.077 C 
ATOM     25  C   UNL     1      34.961 -15.811 -22.036  0.00  0.00    -0.077 C 
ATOM     26  C   UNL     1      34.484 -16.174 -24.381  0.00  0.00    -0.025 C 
ATOM     27  C   UNL     1      34.549 -15.088 -23.310  0.00  0.00    -0.025 C 
ATOM     28  H   UNL     1      36.621 -16.752 -22.832  0.00  0.00    -0.080 HD
ENDBRANCH  22  23
ENDBRANCH  21  22
ENDBRANCH  20  21
ENDBRANCH  19  20
ENDBRANCH  13  19
ENDBRANCH   2  14
BRANCH   8  32
ATOM     29  F   UNL     1      38.601 -26.150 -14.791  0.00  0.00    -0.166 F 
ATOM     30  F   UNL     1      39.159 -24.072 -14.519  0.00  0.00    -0.166 F 
ATOM     31  F   UNL     1      39.807 -25.567 -13.078  0.00  0.00    -0.166 F 
ATOM     32  C   UNL     1      38.744 -25.181 -13.841  0.00  0.00    +0.416 C 
ENDBRANCH   8  32
TORSDOF 7
ENDMDL
MODEL 7
REMARK VINA RESULT:      -9.6      3.787      6.943
REMARK  Name = 11697697
REMARK  7 active torsions:
REMARK  status: ('A' for Active; 'I' for Inactive)
REMARK    1  A    between atoms: N_2  and  C_14
REMARK    2  A    between atoms: C_8  and  C_32
REMARK    3  A    between atoms: C_13  and  O_19
REMARK    4  A    between atoms: O_19  and  C_20
REMARK    5  A    between atoms: C_20  and  C_21
REMARK    6  A    between atoms: C_21  and  C_22
REMARK    7  A    between atoms: C_22  and  N_23
REMARK                            x       y       z     vdW  Elec       q    Type
REMARK                         _______ _______ _______ _____ _____    ______ ____
ROOT
ATOM      1  O   UNL     1      32.012 -12.102 -21.055  0.00  0.00    -0.273 OA
ATOM      2  N   UNL     1      33.490 -11.550 -22.804  0.00  0.00    -0.215 N 
ATOM      3  N   UNL     1      34.019  -9.261 -23.182  0.00  0.00    -0.394 NA
ATOM      4  C   UNL     1      32.456  -9.843 -21.396  0.00  0.00    +0.156 C 
ATOM      5  C   UNL     1      32.607 -11.273 -21.739  0.00  0.00    +0.245 C 
ATOM      6  C   UNL     1      34.128 -10.516 -23.495  0.00  0.00    +0.170 C 
ATOM      7  C   UNL     1      33.187  -8.900 -22.116  0.00  0.00    +0.123 C 
ATOM      8  C   UNL     1      31.613  -9.447 -20.350  0.00  0.00    +0.064 C 
ATOM      9  C   UNL     1      33.067  -7.547 -21.779  0.00  0.00    +0.028 C 
ATOM     10  C   UNL     1      31.502  -8.096 -20.024  0.00  0.00    +0.001 C 
ATOM     11  C   UNL     1      34.961 -10.820 -24.722  0.00  0.00    +0.084 C 
ATOM     12  C   UNL     1      32.229  -7.146 -20.738  0.00  0.00    +0.002 C 
ENDROOT
BRANCH   2  14
ATOM     13  C   UNL     1      34.203 -15.606 -23.701  0.00  0.00    +0.139 C 
ATOM     14  C   UNL     1      33.732 -12.933 -23.109  0.00  0.00    +0.060 C 
ATOM     15  C   UNL     1      33.409 -14.833 -24.549  0.00  0.00    +0.038 C 
ATOM     16  C   UNL     1      34.759 -15.037 -22.555  0.00  0.00    +0.038 C 
ATOM     17  C   UNL     1      33.173 -13.492 -24.252  0.00  0.00    +0.018 C 
ATOM     18  C   UNL     1      34.523 -13.695 -22.259  0.00  0.00    +0.018 C 
BRANCH  13  19
ATOM     19  O   UNL     1      34.432 -16.917 -23.990  0.00  0.00    -0.476 OA
BRANCH  19  20
ATOM     20  C   UNL     1      35.425 -17.588 -23.216  0.00  0.00    +0.203 C 
BRANCH  20  21
ATOM     21  C   UNL     1      34.828 -18.874 -22.659  0.00  0.00    +0.025 C 
BRANCH  21  22
ATOM     22  C   UNL     1      34.978 -18.949 -21.143  0.00  0.00    -0.074 C 
BRANCH  22  23
ATOM     23  N   UNL     1      34.636 -20.281 -20.667  0.00  0.00    +0.387 N 
ATOM     24  C   UNL     1      35.597 -20.788 -19.690  0.00  0.00    -0.077 C 
ATOM     25  C   UNL     1      33.344 -20.312 -19.980  0.00  0.00    -0.077 C 
ATOM     26  C   UNL     1      34.859 -21.960 -19.060  0.00  0.00    -0.025 C 
ATOM     27  C   UNL     1      33.377 -21.649 -19.254  0.00  0.00    -0.025 C 
ATOM     28  H   UNL     1      34.623 -20.850 -21.512  0.00  0.00    -0.080 HD
ENDBRANCH  22  23
ENDBRANCH  21  22
ENDBRANCH  20  21
ENDBRANCH  19  20
ENDBRANCH  13  19
ENDBRANCH   2  14
BRANCH   8  32
ATOM     29  F   UNL     1      29.907 -11.122 -20.266  0.00  0.00    -0.166 F 
ATOM     30  F   UNL     1      31.552 -11.323 -18.867  0.00  0.00    -0.166 F 
ATOM     31  F   UNL     1      30.062  -9.765 -18.575  0.00  0.00    -0.166 F 
ATOM     32  C   UNL     1      30.800 -10.397 -19.532  0.00  0.00    +0.416 C 
ENDBRANCH   8  32
TORSDOF 7
ENDMDL
MODEL 8
REMARK VINA RESULT:      -9.4      6.200     10.243
REMARK  Name = 11697697
REMARK  7 active torsions:
REMARK  status: ('A' for Active; 'I' for Inactive)
REMARK    1  A    between atoms: N_2  and  C_14
REMARK    2  A    between atoms: C_8  and  C_32
REMARK    3  A    between atoms: C_13  and  O_19
REMARK    4  A    between atoms: O_19  and  C_20
REMARK    5  A    between atoms: C_20  and  C_21
REMARK    6  A    between atoms: C_21  and  C_22
REMARK    7  A    between atoms: C_22  and  N_23
REMARK                            x       y       z     vdW  Elec       q    Type
REMARK                         _______ _______ _______ _____ _____    ______ ____
ROOT
ATOM      1  O   UNL     1      32.880  -8.106 -24.376  0.00  0.00    -0.273 OA
ATOM      2  N   UNL     1      32.387  -8.726 -22.158  0.00  0.00    -0.215 N 
ATOM      3  N   UNL     1      31.780  -7.032 -20.600  0.00  0.00    -0.394 NA
ATOM      4  C   UNL     1      32.334  -6.397 -22.894  0.00  0.00    +0.156 C 
ATOM      5  C   UNL     1      32.582  -7.818 -23.220  0.00  0.00    +0.245 C 
ATOM      6  C   UNL     1      32.025  -8.274 -20.886  0.00  0.00    +0.170 C 
ATOM      7  C   UNL     1      31.920  -6.068 -21.604  0.00  0.00    +0.123 C 
ATOM      8  C   UNL     1      32.487  -5.405 -23.871  0.00  0.00    +0.064 C 
ATOM      9  C   UNL     1      31.659  -4.727 -21.297  0.00  0.00    +0.028 C 
ATOM     10  C   UNL     1      32.224  -4.074 -23.552  0.00  0.00    +0.001 C 
ATOM     11  C   UNL     1      31.956  -9.244 -19.724  0.00  0.00    +0.084 C 
ATOM     12  C   UNL     1      31.809  -3.734 -22.266  0.00  0.00    +0.002 C 
ENDROOT
BRANCH   2  14
ATOM     13  C   UNL     1      32.811 -12.825 -23.042  0.00  0.00    +0.139 C 
ATOM     14  C   UNL     1      32.532 -10.123 -22.458  0.00  0.00    +0.060 C 
ATOM     15  C   UNL     1      31.731 -12.384 -22.278  0.00  0.00    +0.038 C 
ATOM     16  C   UNL     1      33.753 -11.908 -23.513  0.00  0.00    +0.038 C 
ATOM     17  C   UNL     1      31.591 -11.028 -21.985  0.00  0.00    +0.018 C 
ATOM     18  C   UNL     1      33.612 -10.553 -23.219  0.00  0.00    +0.018 C 
BRANCH  13  19
ATOM     19  O   UNL     1      32.949 -14.149 -23.327  0.00  0.00    -0.476 OA
BRANCH  19  20
ATOM     20  C   UNL     1      33.303 -14.491 -24.666  0.00  0.00    +0.203 C 
BRANCH  20  21
ATOM     21  C   UNL     1      34.215 -15.710 -24.637  0.00  0.00    +0.025 C 
BRANCH  21  22
ATOM     22  C   UNL     1      35.011 -15.783 -23.338  0.00  0.00    -0.074 C 
BRANCH  22  23
ATOM     23  N   UNL     1      35.427 -17.153 -23.076  0.00  0.00    +0.387 N 
ATOM     24  C   UNL     1      35.393 -17.484 -21.653  0.00  0.00    -0.077 C 
ATOM     25  C   UNL     1      34.550 -18.134 -23.716  0.00  0.00    -0.077 C 
ATOM     26  C   UNL     1      35.471 -19.003 -21.653  0.00  0.00    -0.025 C 
ATOM     27  C   UNL     1      34.920 -19.431 -23.010  0.00  0.00    -0.025 C 
ATOM     28  H   UNL     1      36.375 -17.199 -23.449  0.00  0.00    -0.080 HD
ENDBRANCH  22  23
ENDBRANCH  21  22
ENDBRANCH  20  21
ENDBRANCH  19  20
ENDBRANCH  13  19
ENDBRANCH   2  14
BRANCH   8  32
ATOM     29  F   UNL     1      34.226  -6.077 -25.369  0.00  0.00    -0.166 F 
ATOM     30  F   UNL     1      32.202  -6.664 -25.885  0.00  0.00    -0.166 F 
ATOM     31  F   UNL     1      32.813  -4.585 -26.080  0.00  0.00    -0.166 F 
ATOM     32  C   UNL     1      32.924  -5.679 -25.273  0.00  0.00    +0.416 C 
ENDBRANCH   8  32
TORSDOF 7
ENDMDL
MODEL 9
REMARK VINA RESULT:      -9.1      3.467      6.133
REMARK  Name = 11697697
REMARK  7 active torsions:
REMARK  status: ('A' for Active; 'I' for Inactive)
REMARK    1  A    between atoms: N_2  and  C_14
REMARK    2  A    between atoms: C_8  and  C_32
REMARK    3  A    between atoms: C_13  and  O_19
REMARK    4  A    between atoms: O_19  and  C_20
REMARK    5  A    between atoms: C_20  and  C_21
REMARK    6  A    between atoms: C_21  and  C_22
REMARK    7  A    between atoms: C_22  and  N_23
REMARK                            x       y       z     vdW  Elec       q    Type
REMARK                         _______ _______ _______ _____ _____    ______ ____
ROOT
ATOM      1  O   UNL     1      32.681 -11.784 -20.040  0.00  0.00    -0.273 OA
ATOM      2  N   UNL     1      33.222 -12.405 -22.247  0.00  0.00    -0.215 N 
ATOM      3  N   UNL     1      32.843 -10.847 -24.005  0.00  0.00    -0.394 NA
ATOM      4  C   UNL     1      32.247 -10.229 -21.716  0.00  0.00    +0.156 C 
ATOM      5  C   UNL     1      32.715 -11.550 -21.245  0.00  0.00    +0.245 C 
ATOM      6  C   UNL     1      33.227 -12.014 -23.588  0.00  0.00    +0.170 C 
ATOM      7  C   UNL     1      32.353  -9.925 -23.073  0.00  0.00    +0.123 C 
ATOM      8  C   UNL     1      31.731  -9.292 -20.812  0.00  0.00    +0.064 C 
ATOM      9  C   UNL     1      31.936  -8.666 -23.520  0.00  0.00    +0.028 C 
ATOM     10  C   UNL     1      31.318  -8.042 -21.271  0.00  0.00    +0.001 C 
ATOM     11  C   UNL     1      33.644 -12.994 -24.666  0.00  0.00    +0.084 C 
ATOM     12  C   UNL     1      31.421  -7.728 -22.624  0.00  0.00    +0.002 C 
ENDROOT
BRANCH   2  14
ATOM     13  C   UNL     1      34.820 -16.096 -20.986  0.00  0.00    +0.139 C 
ATOM     14  C   UNL     1      33.768 -13.663 -21.817  0.00  0.00    +0.060 C 
ATOM     15  C   UNL     1      34.143 -15.282 -20.077  0.00  0.00    +0.038 C 
ATOM     16  C   UNL     1      34.969 -15.688 -22.312  0.00  0.00    +0.038 C 
ATOM     17  C   UNL     1      33.615 -14.061 -20.494  0.00  0.00    +0.018 C 
ATOM     18  C   UNL     1      34.441 -14.466 -22.728  0.00  0.00    +0.018 C 
BRANCH  13  19
ATOM     19  O   UNL     1      35.336 -17.288 -20.579  0.00  0.00    -0.476 OA
BRANCH  19  20
ATOM     20  C   UNL     1      36.157 -17.992 -21.509  0.00  0.00    +0.203 C 
BRANCH  20  21
ATOM     21  C   UNL     1      35.549 -19.366 -21.759  0.00  0.00    +0.025 C 
BRANCH  21  22
ATOM     22  C   UNL     1      34.222 -19.532 -21.027  0.00  0.00    -0.074 C 
BRANCH  22  23
ATOM     23  N   UNL     1      34.417 -20.264 -19.784  0.00  0.00    +0.387 N 
ATOM     24  C   UNL     1      33.353 -21.234 -19.533  0.00  0.00    -0.077 C 
ATOM     25  C   UNL     1      35.653 -21.047 -19.787  0.00  0.00    -0.077 C 
ATOM     26  C   UNL     1      33.946 -22.118 -18.447  0.00  0.00    -0.025 C 
ATOM     27  C   UNL     1      35.458 -21.994 -18.611  0.00  0.00    -0.025 C 
ATOM     28  H   UNL     1      34.439 -19.536 -19.070  0.00  0.00    -0.080 HD
ENDBRANCH  22  23
ENDBRANCH  21  22
ENDBRANCH  20  21
ENDBRANCH  19  20
ENDBRANCH  13  19
ENDBRANCH   2  14
BRANCH   8  32
ATOM     29  F   UNL     1      31.166  -8.451 -18.645  0.00  0.00    -0.166 F 
ATOM     30  F   UNL     1      30.691 -10.528 -19.048  0.00  0.00    -0.166 F 
ATOM     31  F   UNL     1      32.761  -9.924 -18.764  0.00  0.00    -0.166 F 
ATOM     32  C   UNL     1      31.588  -9.543 -19.346  0.00  0.00    +0.416 C 
ENDBRANCH   8  32
TORSDOF 7
ENDMDL
