MODEL 1
REMARK VINA RESULT:     -11.3      0.000      0.000
REMARK  Name = 446277
REMARK  7 active torsions:
REMARK  status: ('A' for Active; 'I' for Inactive)
REMARK    1  A    between atoms: N_2  and  C_17
REMARK    2  A    between atoms: C_3  and  C_5
REMARK    3  A    between atoms: C_8  and  S_11
REMARK    4  A    between atoms: S_11  and  N_14
REMARK    5  A    between atoms: C_17  and  C_18
REMARK    6  A    between atoms: C_18  and  C_20
REMARK    7  A    between atoms: C_20  and  N_21
REMARK                            x       y       z     vdW  Elec       q    Type
REMARK                         _______ _______ _______ _____ _____    ______ ____
ROOT
ATOM      1  O   UNL     1      37.146 -18.347 -21.538  0.00  0.00    -0.270 OA
ATOM      2  N   UNL     1      35.001 -17.794 -22.231  0.00  0.00    -0.301 N 
ATOM      3  C   UNL     1      35.931 -18.531 -21.506  0.00  0.00    +0.246 C 
ATOM      4  H   UNL     1      34.048 -18.016 -22.138  0.00  0.00    +0.150 HD
ENDROOT
BRANCH   3   5
ATOM      5  C   UNL     1      35.385 -19.626 -20.663  0.00  0.00    +0.053 C 
ATOM      6  C   UNL     1      36.260 -20.413 -19.944  0.00  0.00    +0.006 C 
ATOM      7  C   UNL     1      34.019 -19.819 -20.627  0.00  0.00    +0.006 C 
ATOM      8  C   UNL     1      34.370 -21.657 -19.098  0.00  0.00    +0.122 C 
ATOM      9  C   UNL     1      35.747 -21.441 -19.152  0.00  0.00    +0.020 C 
ATOM     10  C   UNL     1      33.507 -20.847 -19.835  0.00  0.00    +0.020 C 
BRANCH   8  11
ATOM     11  S   UNL     1      33.727 -22.943 -18.107  0.00  0.00    +0.057 S 
ATOM     12  O   UNL     1      32.415 -22.537 -17.622  0.00  0.00    -0.153 OA
ATOM     13  O   UNL     1      33.876 -24.200 -18.826  0.00  0.00    -0.153 OA
BRANCH  11  14
ATOM     14  N   UNL     1      34.827 -22.927 -16.800  0.00  0.00    -0.203 NA
ATOM     15  H   UNL     1      35.754 -23.192 -17.131  0.00  0.00    +0.144 HD
ATOM     16  H   UNL     1      34.518 -23.590 -16.088  0.00  0.00    +0.144 HD
ENDBRANCH  11  14
ENDBRANCH   8  11
ENDBRANCH   3   5
BRANCH   2  17
ATOM     17  C   UNL     1      35.378 -16.719 -23.109  0.00  0.00    +0.091 C 
BRANCH  17  18
ATOM     18  C   UNL     1      34.274 -15.667 -23.299  0.00  0.00    +0.040 C 
ATOM     19  C   UNL     1      33.956 -15.467 -24.785  0.00  0.00    +0.004 C 
BRANCH  18  20
ATOM     20  C   UNL     1      34.649 -14.342 -22.606  0.00  0.00    +0.097 C 
BRANCH  20  21
ATOM     21  N   UNL     1      33.633 -13.857 -21.676  0.00  0.00    -0.286 N 
ATOM     22  C   UNL     1      32.890 -12.720 -21.844  0.00  0.00    +0.052 C 
ATOM     23  C   UNL     1      32.045 -12.626 -20.735  0.00  0.00    +0.015 C 
ATOM     24  C   UNL     1      33.304 -14.490 -20.516  0.00  0.00    +0.065 C 
ATOM     25  C   UNL     1      32.317 -13.749 -19.906  0.00  0.00    +0.017 C 
ATOM     26  C   UNL     1      32.892 -11.773 -22.874  0.00  0.00    +0.015 C 
ATOM     27  C   UNL     1      31.158 -11.534 -20.649  0.00  0.00    +0.001 C 
ATOM     28  C   UNL     1      32.004 -10.698 -22.767  0.00  0.00    +0.001 C 
ATOM     29  C   UNL     1      31.149 -10.579 -21.672  0.00  0.00    +0.000 C 
ENDBRANCH  20  21
ENDBRANCH  18  20
ENDBRANCH  17  18
ENDBRANCH   2  17
TORSDOF 7
ENDMDL
MODEL 2
REMARK VINA RESULT:     -11.2      0.862      1.893
REMARK  Name = 446277
REMARK  7 active torsions:
REMARK  status: ('A' for Active; 'I' for Inactive)
REMARK    1  A    between atoms: N_2  and  C_17
REMARK    2  A    between atoms: C_3  and  C_5
REMARK    3  A    between atoms: C_8  and  S_11
REMARK    4  A    between atoms: S_11  and  N_14
REMARK    5  A    between atoms: C_17  and  C_18
REMARK    6  A    between atoms: C_18  and  C_20
REMARK    7  A    between atoms: C_20  and  N_21
REMARK                            x       y       z     vdW  Elec       q    Type
REMARK                         _______ _______ _______ _____ _____    ______ ____
ROOT
ATOM      1  O   UNL     1      37.067 -18.420 -21.794  0.00  0.00    -0.270 OA
ATOM      2  N   UNL     1      35.001 -17.366 -21.709  0.00  0.00    -0.301 N 
ATOM      3  C   UNL     1      35.898 -18.387 -21.418  0.00  0.00    +0.246 C 
ATOM      4  H   UNL     1      34.084 -17.430 -21.361  0.00  0.00    +0.150 HD
ENDROOT
BRANCH   3   5
ATOM      5  C   UNL     1      35.364 -19.516 -20.612  0.00  0.00    +0.053 C 
ATOM      6  C   UNL     1      36.247 -20.310 -19.911  0.00  0.00    +0.006 C 
ATOM      7  C   UNL     1      34.002 -19.733 -20.592  0.00  0.00    +0.006 C 
ATOM      8  C   UNL     1      34.373 -21.611 -19.117  0.00  0.00    +0.122 C 
ATOM      9  C   UNL     1      35.746 -21.370 -19.155  0.00  0.00    +0.020 C 
ATOM     10  C   UNL     1      33.501 -20.793 -19.835  0.00  0.00    +0.020 C 
BRANCH   8  11
ATOM     11  S   UNL     1      33.745 -22.937 -18.169  0.00  0.00    +0.057 S 
ATOM     12  O   UNL     1      32.428 -22.562 -17.671  0.00  0.00    -0.153 OA
ATOM     13  O   UNL     1      33.907 -24.167 -18.932  0.00  0.00    -0.153 OA
BRANCH  11  14
ATOM     14  N   UNL     1      34.845 -22.953 -16.863  0.00  0.00    -0.203 NA
ATOM     15  H   UNL     1      34.438 -23.467 -16.081  0.00  0.00    +0.144 HD
ATOM     16  H   UNL     1      35.043 -21.995 -16.574  0.00  0.00    +0.144 HD
ENDBRANCH  11  14
ENDBRANCH   8  11
ENDBRANCH   3   5
BRANCH   2  17
ATOM     17  C   UNL     1      35.362 -16.219 -22.498  0.00  0.00    +0.091 C 
BRANCH  17  18
ATOM     18  C   UNL     1      34.783 -14.900 -21.964  0.00  0.00    +0.040 C 
ATOM     19  C   UNL     1      34.514 -14.987 -20.458  0.00  0.00    +0.004 C 
BRANCH  18  20
ATOM     20  C   UNL     1      33.523 -14.490 -22.752  0.00  0.00    +0.097 C 
BRANCH  20  21
ATOM     21  N   UNL     1      33.386 -13.048 -22.935  0.00  0.00    -0.286 N 
ATOM     22  C   UNL     1      32.620 -12.225 -22.154  0.00  0.00    +0.052 C 
ATOM     23  C   UNL     1      32.769 -10.934 -22.667  0.00  0.00    +0.015 C 
ATOM     24  C   UNL     1      34.014 -12.345 -23.918  0.00  0.00    +0.065 C 
ATOM     25  C   UNL     1      33.652 -11.025 -23.779  0.00  0.00    +0.017 C 
ATOM     26  C   UNL     1      31.814 -12.509 -21.047  0.00  0.00    +0.015 C 
ATOM     27  C   UNL     1      32.081  -9.873 -22.044  0.00  0.00    +0.001 C 
ATOM     28  C   UNL     1      31.140 -11.441 -20.446  0.00  0.00    +0.001 C 
ATOM     29  C   UNL     1      31.270 -10.143 -20.936  0.00  0.00    +0.000 C 
ENDBRANCH  20  21
ENDBRANCH  18  20
ENDBRANCH  17  18
ENDBRANCH   2  17
TORSDOF 7
ENDMDL
MODEL 3
REMARK VINA RESULT:     -10.9      5.343     10.784
REMARK  Name = 446277
REMARK  7 active torsions:
REMARK  status: ('A' for Active; 'I' for Inactive)
REMARK    1  A    between atoms: N_2  and  C_17
REMARK    2  A    between atoms: C_3  and  C_5
REMARK    3  A    between atoms: C_8  and  S_11
REMARK    4  A    between atoms: S_11  and  N_14
REMARK    5  A    between atoms: C_17  and  C_18
REMARK    6  A    between atoms: C_18  and  C_20
REMARK    7  A    between atoms: C_20  and  N_21
REMARK                            x       y       z     vdW  Elec       q    Type
REMARK                         _______ _______ _______ _____ _____    ______ ____
ROOT
ATOM      1  O   UNL     1      33.755 -24.175 -18.379  0.00  0.00    -0.270 OA
ATOM      2  N   UNL     1      33.022 -22.588 -16.853  0.00  0.00    -0.301 N 
ATOM      3  C   UNL     1      33.660 -23.005 -18.015  0.00  0.00    +0.246 C 
ATOM      4  H   UNL     1      32.998 -21.626 -16.648  0.00  0.00    +0.150 HD
ENDROOT
BRANCH   3   5
ATOM      5  C   UNL     1      34.282 -21.938 -18.841  0.00  0.00    +0.053 C 
ATOM      6  C   UNL     1      35.656 -21.824 -18.860  0.00  0.00    +0.006 C 
ATOM      7  C   UNL     1      33.463 -21.093 -19.563  0.00  0.00    +0.006 C 
ATOM      8  C   UNL     1      35.434 -19.955 -20.374  0.00  0.00    +0.122 C 
ATOM      9  C   UNL     1      36.239 -20.821 -19.635  0.00  0.00    +0.020 C 
ATOM     10  C   UNL     1      34.047 -20.091 -20.338  0.00  0.00    +0.020 C 
BRANCH   8  11
ATOM     11  S   UNL     1      36.164 -18.701 -21.345  0.00  0.00    +0.057 S 
ATOM     12  O   UNL     1      37.586 -18.647 -21.033  0.00  0.00    -0.153 OA
ATOM     13  O   UNL     1      35.733 -18.875 -22.726  0.00  0.00    -0.153 OA
BRANCH  11  14
ATOM     14  N   UNL     1      35.406 -17.311 -20.706  0.00  0.00    -0.203 NA
ATOM     15  H   UNL     1      35.116 -17.492 -19.745  0.00  0.00    +0.144 HD
ATOM     16  H   UNL     1      34.588 -17.080 -21.270  0.00  0.00    +0.144 HD
ENDBRANCH  11  14
ENDBRANCH   8  11
ENDBRANCH   3   5
BRANCH   2  17
ATOM     17  C   UNL     1      32.395 -23.505 -15.941  0.00  0.00    +0.091 C 
BRANCH  17  18
ATOM     18  C   UNL     1      33.337 -24.012 -14.837  0.00  0.00    +0.040 C 
ATOM     19  C   UNL     1      32.545 -24.643 -13.686  0.00  0.00    +0.004 C 
BRANCH  18  20
ATOM     20  C   UNL     1      34.270 -22.887 -14.346  0.00  0.00    +0.097 C 
BRANCH  20  21
ATOM     21  N   UNL     1      35.687 -23.157 -14.573  0.00  0.00    -0.286 N 
ATOM     22  C   UNL     1      36.432 -24.079 -13.889  0.00  0.00    +0.052 C 
ATOM     23  C   UNL     1      37.725 -24.018 -14.414  0.00  0.00    +0.015 C 
ATOM     24  C   UNL     1      36.442 -22.512 -15.506  0.00  0.00    +0.065 C 
ATOM     25  C   UNL     1      37.717 -23.025 -15.433  0.00  0.00    +0.017 C 
ATOM     26  C   UNL     1      36.076 -24.957 -12.859  0.00  0.00    +0.015 C 
ATOM     27  C   UNL     1      38.713 -24.874 -13.885  0.00  0.00    +0.001 C 
ATOM     28  C   UNL     1      37.072 -25.796 -12.350  0.00  0.00    +0.001 C 
ATOM     29  C   UNL     1      38.371 -25.756 -12.854  0.00  0.00    +0.000 C 
ENDBRANCH  20  21
ENDBRANCH  18  20
ENDBRANCH  17  18
ENDBRANCH   2  17
TORSDOF 7
ENDMDL
MODEL 4
REMARK VINA RESULT:     -10.9      1.030      1.926
REMARK  Name = 446277
REMARK  7 active torsions:
REMARK  status: ('A' for Active; 'I' for Inactive)
REMARK    1  A    between atoms: N_2  and  C_17
REMARK    2  A    between atoms: C_3  and  C_5
REMARK    3  A    between atoms: C_8  and  S_11
REMARK    4  A    between atoms: S_11  and  N_14
REMARK    5  A    between atoms: C_17  and  C_18
REMARK    6  A    between atoms: C_18  and  C_20
REMARK    7  A    between atoms: C_20  and  N_21
REMARK                            x       y       z     vdW  Elec       q    Type
REMARK                         _______ _______ _______ _____ _____    ______ ____
ROOT
ATOM      1  O   UNL     1      36.497 -17.810 -21.469  0.00  0.00    -0.270 OA
ATOM      2  N   UNL     1      34.724 -18.314 -22.878  0.00  0.00    -0.301 N 
ATOM      3  C   UNL     1      35.508 -18.485 -21.743  0.00  0.00    +0.246 C 
ATOM      4  H   UNL     1      33.949 -18.906 -23.009  0.00  0.00    +0.150 HD
ENDROOT
BRANCH   3   5
ATOM      5  C   UNL     1      35.106 -19.586 -20.829  0.00  0.00    +0.053 C 
ATOM      6  C   UNL     1      36.087 -20.285 -20.158  0.00  0.00    +0.006 C 
ATOM      7  C   UNL     1      33.764 -19.872 -20.682  0.00  0.00    +0.006 C 
ATOM      8  C   UNL     1      34.359 -21.628 -19.133  0.00  0.00    +0.122 C 
ATOM      9  C   UNL     1      35.709 -21.319 -19.300  0.00  0.00    +0.020 C 
ATOM     10  C   UNL     1      33.387 -20.905 -19.824  0.00  0.00    +0.020 C 
BRANCH   8  11
ATOM     11  S   UNL     1      33.887 -22.922 -18.059  0.00  0.00    +0.057 S 
ATOM     12  O   UNL     1      33.822 -24.157 -18.828  0.00  0.00    -0.153 OA
ATOM     13  O   UNL     1      34.717 -22.856 -16.864  0.00  0.00    -0.153 OA
BRANCH  11  14
ATOM     14  N   UNL     1      32.299 -22.442 -17.650  0.00  0.00    -0.203 NA
ATOM     15  H   UNL     1      31.752 -22.315 -18.501  0.00  0.00    +0.144 HD
ATOM     16  H   UNL     1      32.332 -21.564 -17.132  0.00  0.00    +0.144 HD
ENDBRANCH  11  14
ENDBRANCH   8  11
ENDBRANCH   3   5
BRANCH   2  17
ATOM     17  C   UNL     1      35.000 -17.308 -23.867  0.00  0.00    +0.091 C 
BRANCH  17  18
ATOM     18  C   UNL     1      34.116 -16.059 -23.735  0.00  0.00    +0.040 C 
ATOM     19  C   UNL     1      33.449 -15.713 -25.071  0.00  0.00    +0.004 C 
BRANCH  18  20
ATOM     20  C   UNL     1      34.918 -14.871 -23.168  0.00  0.00    +0.097 C 
BRANCH  20  21
ATOM     21  N   UNL     1      34.133 -13.650 -23.014  0.00  0.00    -0.286 N 
ATOM     22  C   UNL     1      33.343 -13.352 -21.937  0.00  0.00    +0.052 C 
ATOM     23  C   UNL     1      32.775 -12.101 -22.190  0.00  0.00    +0.015 C 
ATOM     24  C   UNL     1      34.094 -12.652 -23.940  0.00  0.00    +0.065 C 
ATOM     25  C   UNL     1      33.257 -11.672 -23.458  0.00  0.00    +0.017 C 
ATOM     26  C   UNL     1      33.085 -14.075 -20.767  0.00  0.00    +0.015 C 
ATOM     27  C   UNL     1      31.906 -11.544 -21.230  0.00  0.00    +0.001 C 
ATOM     28  C   UNL     1      32.219 -13.503 -19.830  0.00  0.00    +0.001 C 
ATOM     29  C   UNL     1      31.638 -12.257 -20.056  0.00  0.00    +0.000 C 
ENDBRANCH  20  21
ENDBRANCH  18  20
ENDBRANCH  17  18
ENDBRANCH   2  17
TORSDOF 7
ENDMDL
MODEL 5
REMARK VINA RESULT:     -10.9      5.385     10.982
REMARK  Name = 446277
REMARK  7 active torsions:
REMARK  status: ('A' for Active; 'I' for Inactive)
REMARK    1  A    between atoms: N_2  and  C_17
REMARK    2  A    between atoms: C_3  and  C_5
REMARK    3  A    between atoms: C_8  and  S_11
REMARK    4  A    between atoms: S_11  and  N_14
REMARK    5  A    between atoms: C_17  and  C_18
REMARK    6  A    between atoms: C_18  and  C_20
REMARK    7  A    between atoms: C_20  and  N_21
REMARK                            x       y       z     vdW  Elec       q    Type
REMARK                         _______ _______ _______ _____ _____    ______ ____
ROOT
ATOM      1  O   UNL     1      33.832 -24.195 -18.782  0.00  0.00    -0.270 OA
ATOM      2  N   UNL     1      33.218 -22.768 -17.058  0.00  0.00    -0.301 N 
ATOM      3  C   UNL     1      33.765 -23.067 -18.301  0.00  0.00    +0.246 C 
ATOM      4  H   UNL     1      33.209 -21.831 -16.759  0.00  0.00    +0.150 HD
ENDROOT
BRANCH   3   5
ATOM      5  C   UNL     1      34.319 -21.919 -19.064  0.00  0.00    +0.053 C 
ATOM      6  C   UNL     1      35.684 -21.718 -19.068  0.00  0.00    +0.006 C 
ATOM      7  C   UNL     1      33.451 -21.091 -19.745  0.00  0.00    +0.006 C 
ATOM      8  C   UNL     1      35.348 -19.789 -20.482  0.00  0.00    +0.122 C 
ATOM      9  C   UNL     1      36.205 -20.640 -19.785  0.00  0.00    +0.020 C 
ATOM     10  C   UNL     1      33.972 -20.014 -20.462  0.00  0.00    +0.020 C 
BRANCH   8  11
ATOM     11  S   UNL     1      36.000 -18.440 -21.381  0.00  0.00    +0.057 S 
ATOM     12  O   UNL     1      35.727 -18.656 -22.795  0.00  0.00    -0.153 OA
ATOM     13  O   UNL     1      35.567 -17.206 -20.741  0.00  0.00    -0.153 OA
BRANCH  11  14
ATOM     14  N   UNL     1      37.673 -18.643 -21.105  0.00  0.00    -0.203 NA
ATOM     15  H   UNL     1      38.128 -17.730 -21.086  0.00  0.00    +0.144 HD
ATOM     16  H   UNL     1      38.075 -19.208 -21.853  0.00  0.00    +0.144 HD
ENDBRANCH  11  14
ENDBRANCH   8  11
ENDBRANCH   3   5
BRANCH   2  17
ATOM     17  C   UNL     1      32.664 -23.775 -16.193  0.00  0.00    +0.091 C 
BRANCH  17  18
ATOM     18  C   UNL     1      33.000 -23.560 -14.709  0.00  0.00    +0.040 C 
ATOM     19  C   UNL     1      32.030 -22.564 -14.064  0.00  0.00    +0.004 C 
BRANCH  18  20
ATOM     20  C   UNL     1      34.470 -23.131 -14.531  0.00  0.00    +0.097 C 
BRANCH  20  21
ATOM     21  N   UNL     1      35.165 -23.839 -13.460  0.00  0.00    -0.286 N 
ATOM     22  C   UNL     1      36.444 -24.319 -13.534  0.00  0.00    +0.052 C 
ATOM     23  C   UNL     1      36.717 -24.923 -12.304  0.00  0.00    +0.015 C 
ATOM     24  C   UNL     1      34.610 -24.108 -12.245  0.00  0.00    +0.065 C 
ATOM     25  C   UNL     1      35.551 -24.783 -11.501  0.00  0.00    +0.017 C 
ATOM     26  C   UNL     1      37.378 -24.271 -14.575  0.00  0.00    +0.015 C 
ATOM     27  C   UNL     1      37.983 -25.509 -12.102  0.00  0.00    +0.001 C 
ATOM     28  C   UNL     1      38.627 -24.859 -14.352  0.00  0.00    +0.001 C 
ATOM     29  C   UNL     1      38.927 -25.469 -13.135  0.00  0.00    +0.000 C 
ENDBRANCH  20  21
ENDBRANCH  18  20
ENDBRANCH  17  18
ENDBRANCH   2  17
TORSDOF 7
ENDMDL
MODEL 6
REMARK VINA RESULT:     -10.8      5.302      9.999
REMARK  Name = 446277
REMARK  7 active torsions:
REMARK  status: ('A' for Active; 'I' for Inactive)
REMARK    1  A    between atoms: N_2  and  C_17
REMARK    2  A    between atoms: C_3  and  C_5
REMARK    3  A    between atoms: C_8  and  S_11
REMARK    4  A    between atoms: S_11  and  N_14
REMARK    5  A    between atoms: C_17  and  C_18
REMARK    6  A    between atoms: C_18  and  C_20
REMARK    7  A    between atoms: C_20  and  N_21
REMARK                            x       y       z     vdW  Elec       q    Type
REMARK                         _______ _______ _______ _____ _____    ______ ____
ROOT
ATOM      1  O   UNL     1      33.795 -24.119 -18.112  0.00  0.00    -0.270 OA
ATOM      2  N   UNL     1      32.265 -22.550 -17.349  0.00  0.00    -0.301 N 
ATOM      3  C   UNL     1      33.364 -22.969 -18.091  0.00  0.00    +0.246 C 
ATOM      4  H   UNL     1      31.995 -21.605 -17.398  0.00  0.00    +0.150 HD
ENDROOT
BRANCH   3   5
ATOM      5  C   UNL     1      34.057 -21.920 -18.883  0.00  0.00    +0.053 C 
ATOM      6  C   UNL     1      35.436 -21.920 -18.926  0.00  0.00    +0.006 C 
ATOM      7  C   UNL     1      33.299 -20.980 -19.551  0.00  0.00    +0.006 C 
ATOM      8  C   UNL     1      35.343 -19.974 -20.355  0.00  0.00    +0.122 C 
ATOM      9  C   UNL     1      36.086 -20.935 -19.670  0.00  0.00    +0.020 C 
ATOM     10  C   UNL     1      33.950 -19.996 -20.295  0.00  0.00    +0.020 C 
BRANCH   8  11
ATOM     11  S   UNL     1      36.157 -18.742 -21.287  0.00  0.00    +0.057 S 
ATOM     12  O   UNL     1      37.562 -18.728 -20.901  0.00  0.00    -0.153 OA
ATOM     13  O   UNL     1      35.794 -18.906 -22.688  0.00  0.00    -0.153 OA
BRANCH  11  14
ATOM     14  N   UNL     1      35.407 -17.330 -20.688  0.00  0.00    -0.203 NA
ATOM     15  H   UNL     1      34.821 -17.568 -19.887  0.00  0.00    +0.144 HD
ATOM     16  H   UNL     1      34.830 -16.915 -21.420  0.00  0.00    +0.144 HD
ENDBRANCH  11  14
ENDBRANCH   8  11
ENDBRANCH   3   5
BRANCH   2  17
ATOM     17  C   UNL     1      31.507 -23.442 -16.515  0.00  0.00    +0.091 C 
BRANCH  17  18
ATOM     18  C   UNL     1      31.854 -23.330 -15.022  0.00  0.00    +0.040 C 
ATOM     19  C   UNL     1      30.689 -22.729 -14.230  0.00  0.00    +0.004 C 
BRANCH  18  20
ATOM     20  C   UNL     1      33.161 -22.538 -14.817  0.00  0.00    +0.097 C 
BRANCH  20  21
ATOM     21  N   UNL     1      34.297 -23.368 -14.424  0.00  0.00    -0.286 N 
ATOM     22  C   UNL     1      35.588 -23.181 -14.836  0.00  0.00    +0.052 C 
ATOM     23  C   UNL     1      36.350 -24.184 -14.233  0.00  0.00    +0.015 C 
ATOM     24  C   UNL     1      34.199 -24.440 -13.590  0.00  0.00    +0.065 C 
ATOM     25  C   UNL     1      35.461 -24.972 -13.450  0.00  0.00    +0.017 C 
ATOM     26  C   UNL     1      36.144 -22.217 -15.684  0.00  0.00    +0.015 C 
ATOM     27  C   UNL     1      37.736 -24.230 -14.489  0.00  0.00    +0.001 C 
ATOM     28  C   UNL     1      37.521 -22.282 -15.924  0.00  0.00    +0.001 C 
ATOM     29  C   UNL     1      38.306 -23.272 -15.335  0.00  0.00    +0.000 C 
ENDBRANCH  20  21
ENDBRANCH  18  20
ENDBRANCH  17  18
ENDBRANCH   2  17
TORSDOF 7
ENDMDL
MODEL 7
REMARK VINA RESULT:     -10.5      2.689      4.359
REMARK  Name = 446277
REMARK  7 active torsions:
REMARK  status: ('A' for Active; 'I' for Inactive)
REMARK    1  A    between atoms: N_2  and  C_17
REMARK    2  A    between atoms: C_3  and  C_5
REMARK    3  A    between atoms: C_8  and  S_11
REMARK    4  A    between atoms: S_11  and  N_14
REMARK    5  A    between atoms: C_17  and  C_18
REMARK    6  A    between atoms: C_18  and  C_20
REMARK    7  A    between atoms: C_20  and  N_21
REMARK                            x       y       z     vdW  Elec       q    Type
REMARK                         _______ _______ _______ _____ _____    ______ ____
ROOT
ATOM      1  O   UNL     1      33.239 -21.659 -19.618  0.00  0.00    -0.270 OA
ATOM      2  N   UNL     1      35.158 -20.370 -19.822  0.00  0.00    -0.301 N 
ATOM      3  C   UNL     1      34.354 -21.331 -19.220  0.00  0.00    +0.246 C 
ATOM      4  H   UNL     1      36.038 -20.177 -19.429  0.00  0.00    +0.150 HD
ENDROOT
BRANCH   3   5
ATOM      5  C   UNL     1      34.904 -21.971 -17.997  0.00  0.00    +0.053 C 
ATOM      6  C   UNL     1      36.223 -21.747 -17.663  0.00  0.00    +0.006 C 
ATOM      7  C   UNL     1      34.076 -22.768 -17.233  0.00  0.00    +0.006 C 
ATOM      8  C   UNL     1      35.923 -23.158 -15.725  0.00  0.00    +0.122 C 
ATOM      9  C   UNL     1      36.739 -22.348 -16.514  0.00  0.00    +0.020 C 
ATOM     10  C   UNL     1      34.592 -23.368 -16.085  0.00  0.00    +0.020 C 
BRANCH   8  11
ATOM     11  S   UNL     1      36.568 -23.909 -14.286  0.00  0.00    +0.057 S 
ATOM     12  O   UNL     1      37.671 -23.092 -13.798  0.00  0.00    -0.153 OA
ATOM     13  O   UNL     1      35.460 -24.234 -13.398  0.00  0.00    -0.153 OA
BRANCH  11  14
ATOM     14  N   UNL     1      37.199 -25.359 -14.930  0.00  0.00    -0.203 NA
ATOM     15  H   UNL     1      37.948 -25.143 -15.588  0.00  0.00    +0.144 HD
ATOM     16  H   UNL     1      36.458 -25.867 -15.414  0.00  0.00    +0.144 HD
ENDBRANCH  11  14
ENDBRANCH   8  11
ENDBRANCH   3   5
BRANCH   2  17
ATOM     17  C   UNL     1      34.753 -19.647 -20.998  0.00  0.00    +0.091 C 
BRANCH  17  18
ATOM     18  C   UNL     1      35.848 -18.728 -21.560  0.00  0.00    +0.040 C 
ATOM     19  C   UNL     1      37.202 -19.020 -20.904  0.00  0.00    +0.004 C 
BRANCH  18  20
ATOM     20  C   UNL     1      35.450 -17.245 -21.423  0.00  0.00    +0.097 C 
BRANCH  20  21
ATOM     21  N   UNL     1      34.908 -16.666 -22.649  0.00  0.00    -0.286 N 
ATOM     22  C   UNL     1      34.457 -15.380 -22.780  0.00  0.00    +0.052 C 
ATOM     23  C   UNL     1      34.028 -15.239 -24.102  0.00  0.00    +0.015 C 
ATOM     24  C   UNL     1      34.786 -17.349 -23.821  0.00  0.00    +0.065 C 
ATOM     25  C   UNL     1      34.242 -16.489 -24.747  0.00  0.00    +0.017 C 
ATOM     26  C   UNL     1      34.393 -14.337 -21.850  0.00  0.00    +0.015 C 
ATOM     27  C   UNL     1      33.509 -13.996 -24.517  0.00  0.00    +0.001 C 
ATOM     28  C   UNL     1      33.873 -13.113 -22.284  0.00  0.00    +0.001 C 
ATOM     29  C   UNL     1      33.438 -12.944 -23.597  0.00  0.00    +0.000 C 
ENDBRANCH  20  21
ENDBRANCH  18  20
ENDBRANCH  17  18
ENDBRANCH   2  17
TORSDOF 7
ENDMDL
MODEL 8
REMARK VINA RESULT:     -10.4      5.458     10.078
REMARK  Name = 446277
REMARK  7 active torsions:
REMARK  status: ('A' for Active; 'I' for Inactive)
REMARK    1  A    between atoms: N_2  and  C_17
REMARK    2  A    between atoms: C_3  and  C_5
REMARK    3  A    between atoms: C_8  and  S_11
REMARK    4  A    between atoms: S_11  and  N_14
REMARK    5  A    between atoms: C_17  and  C_18
REMARK    6  A    between atoms: C_18  and  C_20
REMARK    7  A    between atoms: C_20  and  N_21
REMARK                            x       y       z     vdW  Elec       q    Type
REMARK                         _______ _______ _______ _____ _____    ______ ____
ROOT
ATOM      1  O   UNL     1      33.616 -24.092 -18.496  0.00  0.00    -0.270 OA
ATOM      2  N   UNL     1      33.977 -22.821 -16.588  0.00  0.00    -0.301 N 
ATOM      3  C   UNL     1      33.974 -23.046 -17.960  0.00  0.00    +0.246 C 
ATOM      4  H   UNL     1      34.282 -21.947 -16.254  0.00  0.00    +0.150 HD
ENDROOT
BRANCH   3   5
ATOM      5  C   UNL     1      34.469 -21.931 -18.807  0.00  0.00    +0.053 C 
ATOM      6  C   UNL     1      35.825 -21.682 -18.857  0.00  0.00    +0.006 C 
ATOM      7  C   UNL     1      33.556 -21.180 -19.519  0.00  0.00    +0.006 C 
ATOM      8  C   UNL     1      35.387 -19.860 -20.382  0.00  0.00    +0.122 C 
ATOM      9  C   UNL     1      36.289 -20.634 -19.653  0.00  0.00    +0.020 C 
ATOM     10  C   UNL     1      34.021 -20.133 -20.315  0.00  0.00    +0.020 C 
BRANCH   8  11
ATOM     11  S   UNL     1      35.968 -18.550 -21.379  0.00  0.00    +0.057 S 
ATOM     12  O   UNL     1      35.659 -18.859 -22.769  0.00  0.00    -0.153 OA
ATOM     13  O   UNL     1      35.517 -17.292 -20.800  0.00  0.00    -0.153 OA
BRANCH  11  14
ATOM     14  N   UNL     1      37.654 -18.686 -21.146  0.00  0.00    -0.203 NA
ATOM     15  H   UNL     1      38.074 -19.145 -21.955  0.00  0.00    +0.144 HD
ATOM     16  H   UNL     1      37.838 -19.238 -20.308  0.00  0.00    +0.144 HD
ENDBRANCH  11  14
ENDBRANCH   8  11
ENDBRANCH   3   5
BRANCH   2  17
ATOM     17  C   UNL     1      33.550 -23.813 -15.639  0.00  0.00    +0.091 C 
BRANCH  17  18
ATOM     18  C   UNL     1      33.664 -23.352 -14.177  0.00  0.00    +0.040 C 
ATOM     19  C   UNL     1      34.447 -24.369 -13.340  0.00  0.00    +0.004 C 
BRANCH  18  20
ATOM     20  C   UNL     1      32.273 -23.062 -13.579  0.00  0.00    +0.097 C 
BRANCH  20  21
ATOM     21  N   UNL     1      31.234 -23.983 -14.032  0.00  0.00    -0.286 N 
ATOM     22  C   UNL     1      30.232 -23.669 -14.908  0.00  0.00    +0.052 C 
ATOM     23  C   UNL     1      29.464 -24.825 -15.069  0.00  0.00    +0.015 C 
ATOM     24  C   UNL     1      31.142 -25.280 -13.627  0.00  0.00    +0.065 C 
ATOM     25  C   UNL     1      30.050 -25.833 -14.255  0.00  0.00    +0.017 C 
ATOM     26  C   UNL     1      29.939 -22.470 -15.569  0.00  0.00    +0.015 C 
ATOM     27  C   UNL     1      28.349 -24.784 -15.931  0.00  0.00    +0.001 C 
ATOM     28  C   UNL     1      28.829 -22.453 -16.418  0.00  0.00    +0.001 C 
ATOM     29  C   UNL     1      28.045 -23.592 -16.598  0.00  0.00    +0.000 C 
ENDBRANCH  20  21
ENDBRANCH  18  20
ENDBRANCH  17  18
ENDBRANCH   2  17
TORSDOF 7
ENDMDL
MODEL 9
REMARK VINA RESULT:     -10.4      4.520      8.806
REMARK  Name = 446277
REMARK  7 active torsions:
REMARK  status: ('A' for Active; 'I' for Inactive)
REMARK    1  A    between atoms: N_2  and  C_17
REMARK    2  A    between atoms: C_3  and  C_5
REMARK    3  A    between atoms: C_8  and  S_11
REMARK    4  A    between atoms: S_11  and  N_14
REMARK    5  A    between atoms: C_17  and  C_18
REMARK    6  A    between atoms: C_18  and  C_20
REMARK    7  A    between atoms: C_20  and  N_21
REMARK                            x       y       z     vdW  Elec       q    Type
REMARK                         _______ _______ _______ _____ _____    ______ ____
ROOT
ATOM      1  O   UNL     1      33.104 -14.207 -24.887  0.00  0.00    -0.270 OA
ATOM      2  N   UNL     1      34.263 -15.376 -23.253  0.00  0.00    -0.301 N 
ATOM      3  C   UNL     1      33.444 -14.354 -23.716  0.00  0.00    +0.246 C 
ATOM      4  H   UNL     1      34.479 -15.410 -22.293  0.00  0.00    +0.150 HD
ENDROOT
BRANCH   3   5
ATOM      5  C   UNL     1      32.983 -13.373 -22.699  0.00  0.00    +0.053 C 
ATOM      6  C   UNL     1      32.783 -13.800 -21.403  0.00  0.00    +0.006 C 
ATOM      7  C   UNL     1      32.770 -12.066 -23.085  0.00  0.00    +0.006 C 
ATOM      8  C   UNL     1      32.128 -11.551 -20.813  0.00  0.00    +0.122 C 
ATOM      9  C   UNL     1      32.350 -12.879 -20.449  0.00  0.00    +0.020 C 
ATOM     10  C   UNL     1      32.338 -11.145 -22.131  0.00  0.00    +0.020 C 
BRANCH   8  11
ATOM     11  S   UNL     1      31.588 -10.397 -19.619  0.00  0.00    +0.057 S 
ATOM     12  O   UNL     1      30.141 -10.509 -19.495  0.00  0.00    -0.153 OA
ATOM     13  O   UNL     1      32.428 -10.528 -18.436  0.00  0.00    -0.153 OA
BRANCH  11  14
ATOM     14  N   UNL     1      31.963  -8.923 -20.396  0.00  0.00    -0.203 NA
ATOM     15  H   UNL     1      31.196  -8.264 -20.264  0.00  0.00    +0.144 HD
ATOM     16  H   UNL     1      32.100  -9.090 -21.393  0.00  0.00    +0.144 HD
ENDBRANCH  11  14
ENDBRANCH   8  11
ENDBRANCH   3   5
BRANCH   2  17
ATOM     17  C   UNL     1      34.808 -16.386 -24.119  0.00  0.00    +0.091 C 
BRANCH  17  18
ATOM     18  C   UNL     1      35.065 -17.727 -23.413  0.00  0.00    +0.040 C 
ATOM     19  C   UNL     1      34.195 -18.838 -24.010  0.00  0.00    +0.004 C 
BRANCH  18  20
ATOM     20  C   UNL     1      34.868 -17.596 -21.890  0.00  0.00    +0.097 C 
BRANCH  20  21
ATOM     21  N   UNL     1      35.532 -18.643 -21.119  0.00  0.00    -0.286 N 
ATOM     22  C   UNL     1      34.898 -19.677 -20.485  0.00  0.00    +0.052 C 
ATOM     23  C   UNL     1      35.893 -20.442 -19.871  0.00  0.00    +0.015 C 
ATOM     24  C   UNL     1      36.881 -18.712 -20.938  0.00  0.00    +0.065 C 
ATOM     25  C   UNL     1      37.139 -19.821 -20.166  0.00  0.00    +0.017 C 
ATOM     26  C   UNL     1      33.539 -20.000 -20.402  0.00  0.00    +0.015 C 
ATOM     27  C   UNL     1      35.514 -21.585 -19.139  0.00  0.00    +0.001 C 
ATOM     28  C   UNL     1      33.187 -21.138 -19.669  0.00  0.00    +0.001 C 
ATOM     29  C   UNL     1      34.159 -21.920 -19.047  0.00  0.00    +0.000 C 
ENDBRANCH  20  21
ENDBRANCH  18  20
ENDBRANCH  17  18
ENDBRANCH   2  17
TORSDOF 7
ENDMDL
