MODEL 1
REMARK VINA RESULT:     -10.3      0.000      0.000
REMARK  Name = 11197931
REMARK  3 active torsions:
REMARK  status: ('A' for Active; 'I' for Inactive)
REMARK    1  A    between atoms: C_9  and  C_16
REMARK    2  A    between atoms: C_14  and  O_24
REMARK    3  A    between atoms: C_21  and  O_22
REMARK                            x       y       z     vdW  Elec       q    Type
REMARK                         _______ _______ _______ _____ _____    ______ ____
ROOT
ATOM      1  F   UNL     1      35.539 -22.706 -13.427  0.00  0.00    -0.204 F 
ATOM      2  F   UNL     1      36.278 -24.107 -14.923  0.00  0.00    -0.204 F 
ATOM      3  O   UNL     1      31.962 -22.251 -16.981  0.00  0.00    -0.475 OA
ATOM      4  C   UNL     1      34.020 -23.525 -16.568  0.00  0.00    +0.054 C 
ATOM      5  C   UNL     1      33.287 -24.477 -15.596  0.00  0.00    +0.035 C 
ATOM      6  C   UNL     1      34.708 -22.515 -15.641  0.00  0.00    +0.071 C 
ATOM      7  C   UNL     1      34.037 -24.352 -14.250  0.00  0.00    +0.071 C 
ATOM      8  C   UNL     1      35.192 -23.406 -14.521  0.00  0.00    +0.264 C 
ATOM      9  C   UNL     1      33.063 -22.928 -17.605  0.00  0.00    +0.188 C 
ATOM     10  C   UNL     1      31.819 -24.144 -15.455  0.00  0.00    +0.015 C 
ATOM     11  C   UNL     1      31.249 -23.057 -16.131  0.00  0.00    +0.135 C 
ATOM     12  C   UNL     1      30.998 -24.925 -14.625  0.00  0.00    +0.035 C 
ATOM     13  C   UNL     1      29.907 -22.722 -15.939  0.00  0.00    +0.040 C 
ATOM     14  C   UNL     1      29.651 -24.603 -14.450  0.00  0.00    +0.134 C 
ATOM     15  C   UNL     1      29.108 -23.498 -15.100  0.00  0.00    +0.040 C 
ENDROOT
BRANCH   9  16
ATOM     16  C   UNL     1      33.770 -21.991 -18.567  0.00  0.00    +0.017 C 
ATOM     17  C   UNL     1      33.035 -21.057 -19.296  0.00  0.00    +0.002 C 
ATOM     18  C   UNL     1      35.154 -22.068 -18.722  0.00  0.00    +0.002 C 
ATOM     19  C   UNL     1      33.685 -20.197 -20.181  0.00  0.00    +0.036 C 
ATOM     20  C   UNL     1      35.804 -21.207 -19.606  0.00  0.00    +0.036 C 
ATOM     21  C   UNL     1      35.069 -20.272 -20.336  0.00  0.00    +0.134 C 
BRANCH  21  22
ATOM     22  O   UNL     1      35.703 -19.432 -21.200  0.00  0.00    -0.506 OA
ATOM     23  H   UNL     1      36.568 -19.128 -21.006  0.00  0.00    +0.292 HD
ENDBRANCH  21  22
ENDBRANCH   9  16
BRANCH  14  24
ATOM     24  O   UNL     1      28.871 -25.366 -13.636  0.00  0.00    -0.506 OA
ATOM     25  H   UNL     1      29.266 -25.904 -12.978  0.00  0.00    +0.292 HD
ENDBRANCH  14  24
TORSDOF 3
ENDMDL
MODEL 2
REMARK VINA RESULT:     -10.0     10.740     14.262
REMARK  Name = 11197931
REMARK  3 active torsions:
REMARK  status: ('A' for Active; 'I' for Inactive)
REMARK    1  A    between atoms: C_9  and  C_16
REMARK    2  A    between atoms: C_14  and  O_24
REMARK    3  A    between atoms: C_21  and  O_22
REMARK                            x       y       z     vdW  Elec       q    Type
REMARK                         _______ _______ _______ _____ _____    ______ ____
ROOT
ATOM      1  F   UNL     1      31.672 -11.083 -19.213  0.00  0.00    -0.204 F 
ATOM      2  F   UNL     1      30.217 -11.804 -20.666  0.00  0.00    -0.204 F 
ATOM      3  O   UNL     1      34.469 -11.045 -23.433  0.00  0.00    -0.475 OA
ATOM      4  C   UNL     1      32.175 -11.562 -22.729  0.00  0.00    +0.054 C 
ATOM      5  C   UNL     1      31.812 -10.062 -22.656  0.00  0.00    +0.035 C 
ATOM      6  C   UNL     1      32.482 -11.935 -21.273  0.00  0.00    +0.071 C 
ATOM      7  C   UNL     1      31.358  -9.816 -21.198  0.00  0.00    +0.071 C 
ATOM      8  C   UNL     1      31.409 -11.176 -20.528  0.00  0.00    +0.264 C 
ATOM      9  C   UNL     1      33.302 -11.824 -23.732  0.00  0.00    +0.188 C 
ATOM     10  C   UNL     1      32.968  -9.167 -23.044  0.00  0.00    +0.015 C 
ATOM     11  C   UNL     1      34.217  -9.698 -23.389  0.00  0.00    +0.135 C 
ATOM     12  C   UNL     1      32.804  -7.773 -23.053  0.00  0.00    +0.035 C 
ATOM     13  C   UNL     1      35.293  -8.856 -23.681  0.00  0.00    +0.040 C 
ATOM     14  C   UNL     1      33.874  -6.932 -23.365  0.00  0.00    +0.134 C 
ATOM     15  C   UNL     1      35.119  -7.473 -23.670  0.00  0.00    +0.040 C 
ENDROOT
BRANCH   9  16
ATOM     16  C   UNL     1      33.667 -13.295 -23.815  0.00  0.00    +0.017 C 
ATOM     17  C   UNL     1      34.493 -13.862 -22.846  0.00  0.00    +0.002 C 
ATOM     18  C   UNL     1      33.177 -14.076 -24.861  0.00  0.00    +0.002 C 
ATOM     19  C   UNL     1      34.830 -15.214 -22.922  0.00  0.00    +0.036 C 
ATOM     20  C   UNL     1      33.513 -15.428 -24.937  0.00  0.00    +0.036 C 
ATOM     21  C   UNL     1      34.340 -15.997 -23.967  0.00  0.00    +0.134 C 
BRANCH  21  22
ATOM     22  O   UNL     1      34.667 -17.316 -24.042  0.00  0.00    -0.506 OA
ATOM     23  H   UNL     1      34.131 -17.956 -23.617  0.00  0.00    +0.292 HD
ENDBRANCH  21  22
ENDBRANCH   9  16
BRANCH  14  24
ATOM     24  O   UNL     1      33.700  -5.582 -23.361  0.00  0.00    -0.506 OA
ATOM     25  H   UNL     1      34.386  -5.019 -23.663  0.00  0.00    +0.292 HD
ENDBRANCH  14  24
TORSDOF 3
ENDMDL
MODEL 3
REMARK VINA RESULT:      -9.9      5.329      9.466
REMARK  Name = 11197931
REMARK  3 active torsions:
REMARK  status: ('A' for Active; 'I' for Inactive)
REMARK    1  A    between atoms: C_9  and  C_16
REMARK    2  A    between atoms: C_14  and  O_24
REMARK    3  A    between atoms: C_21  and  O_22
REMARK                            x       y       z     vdW  Elec       q    Type
REMARK                         _______ _______ _______ _____ _____    ______ ____
ROOT
ATOM      1  F   UNL     1      32.576 -19.196 -24.924  0.00  0.00    -0.204 F 
ATOM      2  F   UNL     1      34.623 -19.929 -25.064  0.00  0.00    -0.204 F 
ATOM      3  O   UNL     1      34.489 -17.460 -20.571  0.00  0.00    -0.475 OA
ATOM      4  C   UNL     1      35.218 -18.714 -22.551  0.00  0.00    +0.054 C 
ATOM      5  C   UNL     1      35.300 -17.421 -23.393  0.00  0.00    +0.035 C 
ATOM      6  C   UNL     1      33.857 -19.312 -22.932  0.00  0.00    +0.071 C 
ATOM      7  C   UNL     1      34.341 -17.643 -24.586  0.00  0.00    +0.071 C 
ATOM      8  C   UNL     1      33.814 -19.055 -24.420  0.00  0.00    +0.264 C 
ATOM      9  C   UNL     1      35.424 -18.432 -21.059  0.00  0.00    +0.188 C 
ATOM     10  C   UNL     1      34.934 -16.187 -22.599  0.00  0.00    +0.015 C 
ATOM     11  C   UNL     1      34.539 -16.274 -21.258  0.00  0.00    +0.135 C 
ATOM     12  C   UNL     1      34.977 -14.923 -23.207  0.00  0.00    +0.035 C 
ATOM     13  C   UNL     1      34.141 -15.134 -20.557  0.00  0.00    +0.040 C 
ATOM     14  C   UNL     1      34.600 -13.780 -22.500  0.00  0.00    +0.134 C 
ATOM     15  C   UNL     1      34.174 -13.887 -21.178  0.00  0.00    +0.040 C 
ENDROOT
BRANCH   9  16
ATOM     16  C   UNL     1      35.347 -19.695 -20.220  0.00  0.00    +0.017 C 
ATOM     17  C   UNL     1      34.109 -20.279 -19.955  0.00  0.00    +0.002 C 
ATOM     18  C   UNL     1      36.514 -20.266 -19.715  0.00  0.00    +0.002 C 
ATOM     19  C   UNL     1      34.038 -21.439 -19.183  0.00  0.00    +0.036 C 
ATOM     20  C   UNL     1      36.443 -21.427 -18.944  0.00  0.00    +0.036 C 
ATOM     21  C   UNL     1      35.204 -22.013 -18.678  0.00  0.00    +0.134 C 
BRANCH  21  22
ATOM     22  O   UNL     1      35.136 -23.145 -17.924  0.00  0.00    -0.506 OA
ATOM     23  H   UNL     1      34.619 -23.870 -18.216  0.00  0.00    +0.292 HD
ENDBRANCH  21  22
ENDBRANCH   9  16
BRANCH  14  24
ATOM     24  O   UNL     1      34.640 -12.562 -23.106  0.00  0.00    -0.506 OA
ATOM     25  H   UNL     1      34.164 -12.417 -23.901  0.00  0.00    +0.292 HD
ENDBRANCH  14  24
TORSDOF 3
ENDMDL
MODEL 4
REMARK VINA RESULT:      -9.9      3.061      6.510
REMARK  Name = 11197931
REMARK  3 active torsions:
REMARK  status: ('A' for Active; 'I' for Inactive)
REMARK    1  A    between atoms: C_9  and  C_16
REMARK    2  A    between atoms: C_14  and  O_24
REMARK    3  A    between atoms: C_21  and  O_22
REMARK                            x       y       z     vdW  Elec       q    Type
REMARK                         _______ _______ _______ _____ _____    ______ ____
ROOT
ATOM      1  F   UNL     1      31.392 -21.925 -14.258  0.00  0.00    -0.204 F 
ATOM      2  F   UNL     1      31.233 -24.064 -14.642  0.00  0.00    -0.204 F 
ATOM      3  O   UNL     1      35.993 -22.881 -16.143  0.00  0.00    -0.475 OA
ATOM      4  C   UNL     1      33.898 -24.067 -15.665  0.00  0.00    +0.054 C 
ATOM      5  C   UNL     1      33.227 -23.481 -16.928  0.00  0.00    +0.035 C 
ATOM      6  C   UNL     1      33.398 -23.161 -14.532  0.00  0.00    +0.071 C 
ATOM      7  C   UNL     1      31.983 -22.716 -16.419  0.00  0.00    +0.071 C 
ATOM      8  C   UNL     1      31.953 -22.952 -14.921  0.00  0.00    +0.264 C 
ATOM      9  C   UNL     1      35.419 -24.155 -15.821  0.00  0.00    +0.188 C 
ATOM     10  C   UNL     1      34.156 -22.585 -17.715  0.00  0.00    +0.015 C 
ATOM     11  C   UNL     1      35.462 -22.325 -17.278  0.00  0.00    +0.135 C 
ATOM     12  C   UNL     1      33.713 -21.986 -18.905  0.00  0.00    +0.035 C 
ATOM     13  C   UNL     1      36.285 -21.442 -17.980  0.00  0.00    +0.040 C 
ATOM     14  C   UNL     1      34.544 -21.121 -19.618  0.00  0.00    +0.134 C 
ATOM     15  C   UNL     1      35.826 -20.843 -19.152  0.00  0.00    +0.040 C 
ENDROOT
BRANCH   9  16
ATOM     16  C   UNL     1      36.091 -24.731 -14.587  0.00  0.00    +0.017 C 
ATOM     17  C   UNL     1      36.329 -23.916 -13.481  0.00  0.00    +0.002 C 
ATOM     18  C   UNL     1      36.469 -26.073 -14.563  0.00  0.00    +0.002 C 
ATOM     19  C   UNL     1      36.947 -24.445 -12.348  0.00  0.00    +0.036 C 
ATOM     20  C   UNL     1      37.086 -26.601 -13.429  0.00  0.00    +0.036 C 
ATOM     21  C   UNL     1      37.325 -25.787 -12.321  0.00  0.00    +0.134 C 
BRANCH  21  22
ATOM     22  O   UNL     1      37.928 -26.303 -11.215  0.00  0.00    -0.506 OA
ATOM     23  H   UNL     1      37.616 -27.104 -10.842  0.00  0.00    +0.292 HD
ENDBRANCH  21  22
ENDBRANCH   9  16
BRANCH  14  24
ATOM     24  O   UNL     1      34.097 -20.542 -20.767  0.00  0.00    -0.506 OA
ATOM     25  H   UNL     1      33.462 -19.853 -20.728  0.00  0.00    +0.292 HD
ENDBRANCH  14  24
TORSDOF 3
ENDMDL
MODEL 5
REMARK VINA RESULT:      -9.7      3.033      4.715
REMARK  Name = 11197931
REMARK  3 active torsions:
REMARK  status: ('A' for Active; 'I' for Inactive)
REMARK    1  A    between atoms: C_9  and  C_16
REMARK    2  A    between atoms: C_14  and  O_24
REMARK    3  A    between atoms: C_21  and  O_22
REMARK                            x       y       z     vdW  Elec       q    Type
REMARK                         _______ _______ _______ _____ _____    ______ ____
ROOT
ATOM      1  F   UNL     1      31.320 -24.642 -14.635  0.00  0.00    -0.204 F 
ATOM      2  F   UNL     1      31.610 -22.524 -14.212  0.00  0.00    -0.204 F 
ATOM      3  O   UNL     1      36.205 -24.107 -15.850  0.00  0.00    -0.475 OA
ATOM      4  C   UNL     1      34.350 -22.758 -14.976  0.00  0.00    +0.054 C 
ATOM      5  C   UNL     1      34.509 -23.374 -13.568  0.00  0.00    +0.035 C 
ATOM      6  C   UNL     1      33.199 -23.559 -15.598  0.00  0.00    +0.071 C 
ATOM      7  C   UNL     1      33.143 -24.023 -13.244  0.00  0.00    +0.071 C 
ATOM      8  C   UNL     1      32.253 -23.696 -14.427  0.00  0.00    +0.264 C 
ATOM      9  C   UNL     1      35.669 -22.780 -15.756  0.00  0.00    +0.188 C 
ATOM     10  C   UNL     1      35.639 -24.376 -13.497  0.00  0.00    +0.015 C 
ATOM     11  C   UNL     1      36.403 -24.694 -14.627  0.00  0.00    +0.135 C 
ATOM     12  C   UNL     1      35.936 -25.015 -12.283  0.00  0.00    +0.035 C 
ATOM     13  C   UNL     1      37.400 -25.670 -14.562  0.00  0.00    +0.040 C 
ATOM     14  C   UNL     1      36.947 -25.975 -12.212  0.00  0.00    +0.134 C 
ATOM     15  C   UNL     1      37.673 -26.308 -13.353  0.00  0.00    +0.040 C 
ENDROOT
BRANCH   9  16
ATOM     16  C   UNL     1      35.527 -22.177 -17.141  0.00  0.00    +0.017 C 
ATOM     17  C   UNL     1      36.591 -21.473 -17.705  0.00  0.00    +0.002 C 
ATOM     18  C   UNL     1      34.334 -22.325 -17.846  0.00  0.00    +0.002 C 
ATOM     19  C   UNL     1      36.461 -20.917 -18.978  0.00  0.00    +0.036 C 
ATOM     20  C   UNL     1      34.204 -21.771 -19.120  0.00  0.00    +0.036 C 
ATOM     21  C   UNL     1      35.268 -21.066 -19.685  0.00  0.00    +0.134 C 
BRANCH  21  22
ATOM     22  O   UNL     1      35.140 -20.524 -20.928  0.00  0.00    -0.506 OA
ATOM     23  H   UNL     1      35.880 -20.126 -21.343  0.00  0.00    +0.292 HD
ENDBRANCH  21  22
ENDBRANCH   9  16
BRANCH  14  24
ATOM     24  O   UNL     1      37.217 -26.591 -11.028  0.00  0.00    -0.506 OA
ATOM     25  H   UNL     1      36.556 -27.104 -10.605  0.00  0.00    +0.292 HD
ENDBRANCH  14  24
TORSDOF 3
ENDMDL
MODEL 6
REMARK VINA RESULT:      -9.5      3.130      5.471
REMARK  Name = 11197931
REMARK  3 active torsions:
REMARK  status: ('A' for Active; 'I' for Inactive)
REMARK    1  A    between atoms: C_9  and  C_16
REMARK    2  A    between atoms: C_14  and  O_24
REMARK    3  A    between atoms: C_21  and  O_22
REMARK                            x       y       z     vdW  Elec       q    Type
REMARK                         _______ _______ _______ _____ _____    ______ ____
ROOT
ATOM      1  F   UNL     1      33.971 -23.763 -18.557  0.00  0.00    -0.204 F 
ATOM      2  F   UNL     1      34.694 -22.038 -17.439  0.00  0.00    -0.204 F 
ATOM      3  O   UNL     1      32.427 -24.965 -13.888  0.00  0.00    -0.475 OA
ATOM      4  C   UNL     1      33.591 -23.141 -15.048  0.00  0.00    +0.054 C 
ATOM      5  C   UNL     1      32.261 -22.597 -15.619  0.00  0.00    +0.035 C 
ATOM      6  C   UNL     1      34.173 -23.966 -16.203  0.00  0.00    +0.071 C 
ATOM      7  C   UNL     1      32.431 -22.619 -17.156  0.00  0.00    +0.071 C 
ATOM      8  C   UNL     1      33.851 -23.097 -17.396  0.00  0.00    +0.264 C 
ATOM      9  C   UNL     1      33.375 -23.899 -13.735  0.00  0.00    +0.188 C 
ATOM     10  C   UNL     1      31.065 -23.407 -15.173  0.00  0.00    +0.015 C 
ATOM     11  C   UNL     1      31.212 -24.538 -14.359  0.00  0.00    +0.135 C 
ATOM     12  C   UNL     1      29.774 -23.037 -15.583  0.00  0.00    +0.035 C 
ATOM     13  C   UNL     1      30.105 -25.314 -14.011  0.00  0.00    +0.040 C 
ATOM     14  C   UNL     1      28.665 -23.801 -15.217  0.00  0.00    +0.134 C 
ATOM     15  C   UNL     1      28.831 -24.943 -14.438  0.00  0.00    +0.040 C 
ENDROOT
BRANCH   9  16
ATOM     16  C   UNL     1      34.674 -24.438 -13.162  0.00  0.00    +0.017 C 
ATOM     17  C   UNL     1      34.984 -24.222 -11.820  0.00  0.00    +0.002 C 
ATOM     18  C   UNL     1      35.554 -25.145 -13.980  0.00  0.00    +0.002 C 
ATOM     19  C   UNL     1      36.178 -24.716 -11.294  0.00  0.00    +0.036 C 
ATOM     20  C   UNL     1      36.748 -25.640 -13.454  0.00  0.00    +0.036 C 
ATOM     21  C   UNL     1      37.060 -25.424 -12.110  0.00  0.00    +0.134 C 
BRANCH  21  22
ATOM     22  O   UNL     1      38.225 -25.907 -11.597  0.00  0.00    -0.506 OA
ATOM     23  H   UNL     1      38.511 -26.771 -11.818  0.00  0.00    +0.292 HD
ENDBRANCH  21  22
ENDBRANCH   9  16
BRANCH  14  24
ATOM     24  O   UNL     1      27.421 -23.433 -15.630  0.00  0.00    -0.506 OA
ATOM     25  H   UNL     1      26.674 -23.623 -15.097  0.00  0.00    +0.292 HD
ENDBRANCH  14  24
TORSDOF 3
ENDMDL
MODEL 7
REMARK VINA RESULT:      -9.5     13.002     16.706
REMARK  Name = 11197931
REMARK  3 active torsions:
REMARK  status: ('A' for Active; 'I' for Inactive)
REMARK    1  A    between atoms: C_9  and  C_16
REMARK    2  A    between atoms: C_14  and  O_24
REMARK    3  A    between atoms: C_21  and  O_22
REMARK                            x       y       z     vdW  Elec       q    Type
REMARK                         _______ _______ _______ _____ _____    ______ ____
ROOT
ATOM      1  F   UNL     1      33.384  -6.703 -19.361  0.00  0.00    -0.204 F 
ATOM      2  F   UNL     1      31.513  -7.800 -19.155  0.00  0.00    -0.204 F 
ATOM      3  O   UNL     1      32.758  -8.380 -24.097  0.00  0.00    -0.475 OA
ATOM      4  C   UNL     1      31.602  -8.452 -21.932  0.00  0.00    +0.054 C 
ATOM      5  C   UNL     1      31.089  -7.005 -22.109  0.00  0.00    +0.035 C 
ATOM      6  C   UNL     1      32.834  -8.294 -21.032  0.00  0.00    +0.071 C 
ATOM      7  C   UNL     1      31.635  -6.220 -20.894  0.00  0.00    +0.071 C 
ATOM      8  C   UNL     1      32.365  -7.247 -20.050  0.00  0.00    +0.264 C 
ATOM      9  C   UNL     1      31.850  -9.134 -23.282  0.00  0.00    +0.188 C 
ATOM     10  C   UNL     1      31.526  -6.391 -23.420  0.00  0.00    +0.015 C 
ATOM     11  C   UNL     1      32.337  -7.094 -24.320  0.00  0.00    +0.135 C 
ATOM     12  C   UNL     1      31.128  -5.086 -23.751  0.00  0.00    +0.035 C 
ATOM     13  C   UNL     1      32.788  -6.489 -25.495  0.00  0.00    +0.040 C 
ATOM     14  C   UNL     1      31.561  -4.489 -24.937  0.00  0.00    +0.134 C 
ATOM     15  C   UNL     1      32.397  -5.188 -25.804  0.00  0.00    +0.040 C 
ENDROOT
BRANCH   9  16
ATOM     16  C   UNL     1      32.353 -10.557 -23.122  0.00  0.00    +0.017 C 
ATOM     17  C   UNL     1      33.494 -10.972 -23.808  0.00  0.00    +0.002 C 
ATOM     18  C   UNL     1      31.673 -11.447 -22.291  0.00  0.00    +0.002 C 
ATOM     19  C   UNL     1      33.957 -12.280 -23.662  0.00  0.00    +0.036 C 
ATOM     20  C   UNL     1      32.136 -12.754 -22.145  0.00  0.00    +0.036 C 
ATOM     21  C   UNL     1      33.278 -13.171 -22.831  0.00  0.00    +0.134 C 
BRANCH  21  22
ATOM     22  O   UNL     1      33.729 -14.448 -22.688  0.00  0.00    -0.506 OA
ATOM     23  H   UNL     1      34.649 -14.614 -22.622  0.00  0.00    +0.292 HD
ENDBRANCH  21  22
ENDBRANCH   9  16
BRANCH  14  24
ATOM     24  O   UNL     1      31.172  -3.220 -25.240  0.00  0.00    -0.506 OA
ATOM     25  H   UNL     1      31.777  -2.510 -25.149  0.00  0.00    +0.292 HD
ENDBRANCH  14  24
TORSDOF 3
ENDMDL
MODEL 8
REMARK VINA RESULT:      -9.3      1.415      1.974
REMARK  Name = 11197931
REMARK  3 active torsions:
REMARK  status: ('A' for Active; 'I' for Inactive)
REMARK    1  A    between atoms: C_9  and  C_16
REMARK    2  A    between atoms: C_14  and  O_24
REMARK    3  A    between atoms: C_21  and  O_22
REMARK                            x       y       z     vdW  Elec       q    Type
REMARK                         _______ _______ _______ _____ _____    ______ ____
ROOT
ATOM      1  F   UNL     1      37.451 -21.814 -14.028  0.00  0.00    -0.204 F 
ATOM      2  F   UNL     1      38.016 -23.221 -15.593  0.00  0.00    -0.204 F 
ATOM      3  O   UNL     1      33.041 -22.324 -16.462  0.00  0.00    -0.475 OA
ATOM      4  C   UNL     1      35.335 -23.192 -16.571  0.00  0.00    +0.054 C 
ATOM      5  C   UNL     1      35.076 -24.146 -15.384  0.00  0.00    +0.035 C 
ATOM      6  C   UNL     1      36.043 -21.992 -15.929  0.00  0.00    +0.071 C 
ATOM      7  C   UNL     1      36.120 -23.762 -14.309  0.00  0.00    +0.071 C 
ATOM      8  C   UNL     1      36.963 -22.672 -14.942  0.00  0.00    +0.264 C 
ATOM      9  C   UNL     1      34.043 -22.870 -17.331  0.00  0.00    +0.188 C 
ATOM     10  C   UNL     1      33.662 -24.047 -14.857  0.00  0.00    +0.015 C 
ATOM     11  C   UNL     1      32.742 -23.144 -15.405  0.00  0.00    +0.135 C 
ATOM     12  C   UNL     1      33.251 -24.863 -13.791  0.00  0.00    +0.035 C 
ATOM     13  C   UNL     1      31.460 -23.017 -14.865  0.00  0.00    +0.040 C 
ATOM     14  C   UNL     1      31.963 -24.750 -13.265  0.00  0.00    +0.134 C 
ATOM     15  C   UNL     1      31.072 -23.823 -13.796  0.00  0.00    +0.040 C 
ENDROOT
BRANCH   9  16
ATOM     16  C   UNL     1      34.283 -21.934 -18.501  0.00  0.00    +0.017 C 
ATOM     17  C   UNL     1      35.574 -21.759 -18.998  0.00  0.00    +0.002 C 
ATOM     18  C   UNL     1      33.213 -21.250 -19.076  0.00  0.00    +0.002 C 
ATOM     19  C   UNL     1      35.795 -20.898 -20.073  0.00  0.00    +0.036 C 
ATOM     20  C   UNL     1      33.434 -20.389 -20.151  0.00  0.00    +0.036 C 
ATOM     21  C   UNL     1      34.726 -20.213 -20.650  0.00  0.00    +0.134 C 
BRANCH  21  22
ATOM     22  O   UNL     1      34.941 -19.373 -21.699  0.00  0.00    -0.506 OA
ATOM     23  H   UNL     1      34.245 -19.184 -22.298  0.00  0.00    +0.292 HD
ENDBRANCH  21  22
ENDBRANCH   9  16
BRANCH  14  24
ATOM     24  O   UNL     1      31.583 -25.544 -12.225  0.00  0.00    -0.506 OA
ATOM     25  H   UNL     1      32.184 -26.167 -11.867  0.00  0.00    +0.292 HD
ENDBRANCH  14  24
TORSDOF 3
ENDMDL
MODEL 9
REMARK VINA RESULT:      -8.9     13.873     16.830
REMARK  Name = 11197931
REMARK  3 active torsions:
REMARK  status: ('A' for Active; 'I' for Inactive)
REMARK    1  A    between atoms: C_9  and  C_16
REMARK    2  A    between atoms: C_14  and  O_24
REMARK    3  A    between atoms: C_21  and  O_22
REMARK                            x       y       z     vdW  Elec       q    Type
REMARK                         _______ _______ _______ _____ _____    ______ ____
ROOT
ATOM      1  F   UNL     1      36.278  -7.386 -22.864  0.00  0.00    -0.204 F 
ATOM      2  F   UNL     1      35.325  -7.030 -24.791  0.00  0.00    -0.204 F 
ATOM      3  O   UNL     1      31.400  -7.873 -21.598  0.00  0.00    -0.475 OA
ATOM      4  C   UNL     1      32.769  -7.439 -23.590  0.00  0.00    +0.054 C 
ATOM      5  C   UNL     1      33.146  -8.934 -23.709  0.00  0.00    +0.035 C 
ATOM      6  C   UNL     1      33.976  -6.813 -22.881  0.00  0.00    +0.071 C 
ATOM      7  C   UNL     1      34.690  -8.977 -23.632  0.00  0.00    +0.071 C 
ATOM      8  C   UNL     1      35.128  -7.528 -23.547  0.00  0.00    +0.264 C 
ATOM      9  C   UNL     1      31.418  -7.251 -22.891  0.00  0.00    +0.188 C 
ATOM     10  C   UNL     1      32.505  -9.781 -22.633  0.00  0.00    +0.015 C 
ATOM     11  C   UNL     1      31.693  -9.212 -21.643  0.00  0.00    +0.135 C 
ATOM     12  C   UNL     1      32.726 -11.167 -22.607  0.00  0.00    +0.035 C 
ATOM     13  C   UNL     1      31.162  -9.998 -20.618  0.00  0.00    +0.040 C 
ATOM     14  C   UNL     1      32.177 -11.956 -21.595  0.00  0.00    +0.134 C 
ATOM     15  C   UNL     1      31.403 -11.371 -20.597  0.00  0.00    +0.040 C 
ENDROOT
BRANCH   9  16
ATOM     16  C   UNL     1      31.034  -5.787 -22.768  0.00  0.00    +0.017 C 
ATOM     17  C   UNL     1      30.906  -5.004 -23.915  0.00  0.00    +0.002 C 
ATOM     18  C   UNL     1      30.813  -5.229 -21.510  0.00  0.00    +0.002 C 
ATOM     19  C   UNL     1      30.554  -3.659 -23.803  0.00  0.00    +0.036 C 
ATOM     20  C   UNL     1      30.460  -3.884 -21.398  0.00  0.00    +0.036 C 
ATOM     21  C   UNL     1      30.331  -3.099 -22.545  0.00  0.00    +0.134 C 
BRANCH  21  22
ATOM     22  O   UNL     1      29.987  -1.786 -22.435  0.00  0.00    -0.506 OA
ATOM     23  H   UNL     1      30.544  -1.194 -21.969  0.00  0.00    +0.292 HD
ENDBRANCH  21  22
ENDBRANCH   9  16
BRANCH  14  24
ATOM     24  O   UNL     1      32.407 -13.298 -21.580  0.00  0.00    -0.506 OA
ATOM     25  H   UNL     1      32.998 -13.666 -20.952  0.00  0.00    +0.292 HD
ENDBRANCH  14  24
TORSDOF 3
ENDMDL
