MODEL 1
REMARK VINA RESULT:     -11.9      0.000      0.000
REMARK  Name = 3151
REMARK  5 active torsions:
REMARK  status: ('A' for Active; 'I' for Inactive)
REMARK    1  A    between atoms: N_1  and  C_20
REMARK    2  A    between atoms: C_2  and  N_10
REMARK    3  A    between atoms: C_20  and  C_21
REMARK    4  A    between atoms: C_21  and  C_22
REMARK    5  A    between atoms: C_22  and  N_24
REMARK                            x       y       z     vdW  Elec       q    Type
REMARK                         _______ _______ _______ _____ _____    ______ ____
ROOT
ATOM      1  N   UNL     1      35.143 -15.939 -23.388  0.00  0.00    +0.387 N 
ATOM      2  C   UNL     1      34.908 -18.202 -21.549  0.00  0.00    +0.086 C 
ATOM      3  C   UNL     1      35.320 -16.807 -21.078  0.00  0.00    -0.000 C 
ATOM      4  C   UNL     1      35.253 -18.383 -23.027  0.00  0.00    -0.000 C 
ATOM      5  C   UNL     1      34.746 -15.722 -21.990  0.00  0.00    -0.075 C 
ATOM      6  C   UNL     1      34.680 -17.246 -23.874  0.00  0.00    -0.075 C 
ATOM      7  H   UNL     1      36.162 -15.931 -23.431  0.00  0.00    -0.080 HD
ENDROOT
BRANCH   2  10
ATOM      8 CL   UNL     1      33.490 -23.636 -17.482  0.00  0.00    -0.082 Cl
ATOM      9  O   UNL     1      37.846 -18.740 -20.991  0.00  0.00    -0.247 OA
ATOM     10  N   UNL     1      35.531 -19.220 -20.741  0.00  0.00    -0.282 N 
ATOM     11  N   UNL     1      37.041 -20.528 -19.669  0.00  0.00    -0.305 N 
ATOM     12  C   UNL     1      34.828 -20.202 -20.029  0.00  0.00    +0.079 A 
ATOM     13  C   UNL     1      36.925 -19.402 -20.533  0.00  0.00    +0.328 A 
ATOM     14  C   UNL     1      35.762 -21.001 -19.373  0.00  0.00    +0.077 A 
ATOM     15  C   UNL     1      33.473 -20.438 -19.919  0.00  0.00    +0.020 C 
ATOM     16  C   UNL     1      35.396 -22.067 -18.581  0.00  0.00    +0.030 C 
ATOM     17  C   UNL     1      33.076 -21.513 -19.119  0.00  0.00    +0.013 C 
ATOM     18  C   UNL     1      34.027 -22.319 -18.458  0.00  0.00    +0.059 C 
ATOM     19  H   UNL     1      37.884 -20.910 -19.337  0.00  0.00    +0.170 HD
ENDBRANCH   2  10
BRANCH   1  20
ATOM     20  C   UNL     1      34.628 -14.865 -24.239  0.00  0.00    -0.075 C 
BRANCH  20  21
ATOM     21  C   UNL     1      34.221 -13.635 -23.423  0.00  0.00    +0.002 C 
BRANCH  21  22
ATOM     22  C   UNL     1      32.723 -13.340 -23.432  0.00  0.00    +0.108 C 
BRANCH  22  24
ATOM     23  O   UNL     1      31.810 -13.958 -20.622  0.00  0.00    -0.247 OA
ATOM     24  N   UNL     1      32.332 -12.442 -22.379  0.00  0.00    -0.280 N 
ATOM     25  N   UNL     1      31.629 -11.613 -20.383  0.00  0.00    -0.305 N 
ATOM     26  C   UNL     1      32.302 -11.040 -22.468  0.00  0.00    +0.079 A 
ATOM     27  C   UNL     1      31.911 -12.825 -21.072  0.00  0.00    +0.328 A 
ATOM     28  C   UNL     1      31.869 -10.539 -21.242  0.00  0.00    +0.076 A 
ATOM     29  C   UNL     1      32.617 -10.202 -23.518  0.00  0.00    +0.019 C 
ATOM     30  C   UNL     1      31.731  -9.190 -21.001  0.00  0.00    +0.019 C 
ATOM     31  C   UNL     1      32.485  -8.827 -23.298  0.00  0.00    +0.002 C 
ATOM     32  C   UNL     1      32.047  -8.326 -22.054  0.00  0.00    +0.002 C 
ATOM     33  H   UNL     1      31.313 -11.542 -19.452  0.00  0.00    +0.170 HD
ENDBRANCH  22  24
ENDBRANCH  21  22
ENDBRANCH  20  21
ENDBRANCH   1  20
TORSDOF 5
ENDMDL
MODEL 2
REMARK VINA RESULT:     -11.7      2.890      4.774
REMARK  Name = 3151
REMARK  5 active torsions:
REMARK  status: ('A' for Active; 'I' for Inactive)
REMARK    1  A    between atoms: N_1  and  C_20
REMARK    2  A    between atoms: C_2  and  N_10
REMARK    3  A    between atoms: C_20  and  C_21
REMARK    4  A    between atoms: C_21  and  C_22
REMARK    5  A    between atoms: C_22  and  N_24
REMARK                            x       y       z     vdW  Elec       q    Type
REMARK                         _______ _______ _______ _____ _____    ______ ____
ROOT
ATOM      1  N   UNL     1      35.788 -18.941 -20.796  0.00  0.00    +0.387 N 
ATOM      2  C   UNL     1      35.251 -21.412 -19.326  0.00  0.00    +0.086 C 
ATOM      3  C   UNL     1      34.131 -20.550 -19.908  0.00  0.00    -0.000 C 
ATOM      4  C   UNL     1      36.493 -20.560 -19.065  0.00  0.00    -0.000 C 
ATOM      5  C   UNL     1      34.614 -19.762 -21.127  0.00  0.00    -0.075 C 
ATOM      6  C   UNL     1      36.898 -19.773 -20.312  0.00  0.00    -0.075 C 
ATOM      7  H   UNL     1      35.524 -18.301 -20.048  0.00  0.00    -0.080 HD
ENDROOT
BRANCH   2  10
ATOM      8 CL   UNL     1      37.465 -23.591 -13.127  0.00  0.00    -0.082 Cl
ATOM      9  O   UNL     1      32.521 -22.512 -18.572  0.00  0.00    -0.247 OA
ATOM     10  N   UNL     1      34.814 -22.076 -18.123  0.00  0.00    -0.282 N 
ATOM     11  N   UNL     1      33.574 -23.132 -16.547  0.00  0.00    -0.305 N 
ATOM     12  C   UNL     1      35.642 -22.341 -17.024  0.00  0.00    +0.079 A 
ATOM     13  C   UNL     1      33.507 -22.562 -17.850  0.00  0.00    +0.328 A 
ATOM     14  C   UNL     1      34.873 -22.990 -16.060  0.00  0.00    +0.077 A 
ATOM     15  C   UNL     1      36.977 -22.064 -16.815  0.00  0.00    +0.020 C 
ATOM     16  C   UNL     1      35.392 -23.391 -14.849  0.00  0.00    +0.030 C 
ATOM     17  C   UNL     1      37.528 -22.463 -15.592  0.00  0.00    +0.013 C 
ATOM     18  C   UNL     1      36.743 -23.119 -14.621  0.00  0.00    +0.059 C 
ATOM     19  H   UNL     1      32.825 -23.555 -16.068  0.00  0.00    +0.170 HD
ENDBRANCH   2  10
BRANCH   1  20
ATOM     20  C   UNL     1      36.206 -18.156 -21.959  0.00  0.00    -0.075 C 
BRANCH  20  21
ATOM     21  C   UNL     1      35.019 -17.767 -22.844  0.00  0.00    +0.002 C 
BRANCH  21  22
ATOM     22  C   UNL     1      35.290 -16.596 -23.786  0.00  0.00    +0.108 C 
BRANCH  22  24
ATOM     23  O   UNL     1      33.462 -15.437 -25.890  0.00  0.00    -0.247 OA
ATOM     24  N   UNL     1      34.305 -15.555 -23.668  0.00  0.00    -0.280 N 
ATOM     25  N   UNL     1      32.670 -14.050 -24.147  0.00  0.00    -0.305 N 
ATOM     26  C   UNL     1      33.996 -14.849 -22.494  0.00  0.00    +0.079 A 
ATOM     27  C   UNL     1      33.481 -15.068 -24.724  0.00  0.00    +0.328 A 
ATOM     28  C   UNL     1      32.994 -13.929 -22.794  0.00  0.00    +0.076 A 
ATOM     29  C   UNL     1      34.518 -14.956 -21.221  0.00  0.00    +0.019 C 
ATOM     30  C   UNL     1      32.465 -13.077 -21.851  0.00  0.00    +0.019 C 
ATOM     31  C   UNL     1      33.997 -14.101 -20.244  0.00  0.00    +0.002 C 
ATOM     32  C   UNL     1      32.981 -13.172 -20.555  0.00  0.00    +0.002 C 
ATOM     33  H   UNL     1      31.992 -13.518 -24.623  0.00  0.00    +0.170 HD
ENDBRANCH  22  24
ENDBRANCH  21  22
ENDBRANCH  20  21
ENDBRANCH   1  20
TORSDOF 5
ENDMDL
MODEL 3
REMARK VINA RESULT:     -11.2      3.621     10.267
REMARK  Name = 3151
REMARK  5 active torsions:
REMARK  status: ('A' for Active; 'I' for Inactive)
REMARK    1  A    between atoms: N_1  and  C_20
REMARK    2  A    between atoms: C_2  and  N_10
REMARK    3  A    between atoms: C_20  and  C_21
REMARK    4  A    between atoms: C_21  and  C_22
REMARK    5  A    between atoms: C_22  and  N_24
REMARK                            x       y       z     vdW  Elec       q    Type
REMARK                         _______ _______ _______ _____ _____    ______ ____
ROOT
ATOM      1  N   UNL     1      34.690 -14.887 -23.209  0.00  0.00    +0.387 N 
ATOM      2  C   UNL     1      32.804 -12.728 -22.627  0.00  0.00    +0.086 C 
ATOM      3  C   UNL     1      33.339 -12.986 -24.036  0.00  0.00    -0.000 C 
ATOM      4  C   UNL     1      33.788 -13.257 -21.583  0.00  0.00    -0.000 C 
ATOM      5  C   UNL     1      33.718 -14.456 -24.224  0.00  0.00    -0.075 C 
ATOM      6  C   UNL     1      34.151 -14.718 -21.853  0.00  0.00    -0.075 C 
ATOM      7  H   UNL     1      35.517 -14.298 -23.295  0.00  0.00    -0.080 HD
ENDROOT
BRANCH   2  10
ATOM      8 CL   UNL     1      35.403  -6.412 -23.823  0.00  0.00    -0.082 Cl
ATOM      9  O   UNL     1      30.458 -11.345 -21.279  0.00  0.00    -0.247 OA
ATOM     10  N   UNL     1      32.540 -11.325 -22.428  0.00  0.00    -0.282 N 
ATOM     11  N   UNL     1      31.600  -9.349 -21.834  0.00  0.00    -0.305 N 
ATOM     12  C   UNL     1      33.387 -10.294 -22.857  0.00  0.00    +0.079 A 
ATOM     13  C   UNL     1      31.408 -10.759 -21.782  0.00  0.00    +0.328 A 
ATOM     14  C   UNL     1      32.803  -9.084 -22.488  0.00  0.00    +0.077 A 
ATOM     15  C   UNL     1      34.593 -10.340 -23.525  0.00  0.00    +0.020 C 
ATOM     16  C   UNL     1      33.387  -7.868 -22.765  0.00  0.00    +0.030 C 
ATOM     17  C   UNL     1      35.207  -9.117 -23.817  0.00  0.00    +0.013 C 
ATOM     18  C   UNL     1      34.610  -7.895 -23.441  0.00  0.00    +0.059 C 
ATOM     19  H   UNL     1      30.985  -8.674 -21.470  0.00  0.00    +0.170 HD
ENDBRANCH   2  10
BRANCH   1  20
ATOM     20  C   UNL     1      35.079 -16.280 -23.434  0.00  0.00    -0.075 C 
BRANCH  20  21
ATOM     21  C   UNL     1      35.267 -17.041 -22.118  0.00  0.00    +0.002 C 
BRANCH  21  22
ATOM     22  C   UNL     1      34.978 -18.538 -22.208  0.00  0.00    +0.108 C 
BRANCH  22  24
ATOM     23  O   UNL     1      37.842 -18.510 -21.254  0.00  0.00    -0.247 OA
ATOM     24  N   UNL     1      35.594 -19.283 -21.143  0.00  0.00    -0.280 N 
ATOM     25  N   UNL     1      37.116 -20.111 -19.673  0.00  0.00    -0.305 N 
ATOM     26  C   UNL     1      34.945 -20.208 -20.309  0.00  0.00    +0.079 A 
ATOM     27  C   UNL     1      36.965 -19.206 -20.760  0.00  0.00    +0.328 A 
ATOM     28  C   UNL     1      35.884 -20.711 -19.410  0.00  0.00    +0.076 A 
ATOM     29  C   UNL     1      33.629 -20.623 -20.285  0.00  0.00    +0.019 C 
ATOM     30  C   UNL     1      35.562 -21.645 -18.452  0.00  0.00    +0.019 C 
ATOM     31  C   UNL     1      33.278 -21.573 -19.320  0.00  0.00    +0.002 C 
ATOM     32  C   UNL     1      34.233 -22.078 -18.412  0.00  0.00    +0.002 C 
ATOM     33  H   UNL     1      37.954 -20.287 -19.185  0.00  0.00    +0.170 HD
ENDBRANCH  22  24
ENDBRANCH  21  22
ENDBRANCH  20  21
ENDBRANCH   1  20
TORSDOF 5
ENDMDL
MODEL 4
REMARK VINA RESULT:     -11.2      4.941     11.426
REMARK  Name = 3151
REMARK  5 active torsions:
REMARK  status: ('A' for Active; 'I' for Inactive)
REMARK    1  A    between atoms: N_1  and  C_20
REMARK    2  A    between atoms: C_2  and  N_10
REMARK    3  A    between atoms: C_20  and  C_21
REMARK    4  A    between atoms: C_21  and  C_22
REMARK    5  A    between atoms: C_22  and  N_24
REMARK                            x       y       z     vdW  Elec       q    Type
REMARK                         _______ _______ _______ _____ _____    ______ ____
ROOT
ATOM      1  N   UNL     1      32.585 -11.883 -22.126  0.00  0.00    +0.387 N 
ATOM      2  C   UNL     1      31.795  -9.066 -22.143  0.00  0.00    +0.086 C 
ATOM      3  C   UNL     1      33.048  -9.566 -22.862  0.00  0.00    -0.000 C 
ATOM      4  C   UNL     1      31.433 -10.009 -20.996  0.00  0.00    -0.000 C 
ATOM      5  C   UNL     1      32.900 -11.030 -23.281  0.00  0.00    -0.075 C 
ATOM      6  C   UNL     1      31.338 -11.458 -21.477  0.00  0.00    -0.075 C 
ATOM      7  H   UNL     1      33.341 -11.787 -21.449  0.00  0.00    -0.080 HD
ENDROOT
BRANCH   2  10
ATOM      8 CL   UNL     1      30.754  -2.431 -23.864  0.00  0.00    -0.082 Cl
ATOM      9  O   UNL     1      33.009  -8.048 -19.550  0.00  0.00    -0.247 OA
ATOM     10  N   UNL     1      31.980  -7.718 -21.668  0.00  0.00    -0.282 N 
ATOM     11  N   UNL     1      32.521  -5.904 -20.421  0.00  0.00    -0.305 N 
ATOM     12  C   UNL     1      31.601  -6.572 -22.380  0.00  0.00    +0.079 A 
ATOM     13  C   UNL     1      32.561  -7.328 -20.431  0.00  0.00    +0.328 A 
ATOM     14  C   UNL     1      31.936  -5.461 -21.607  0.00  0.00    +0.077 A 
ATOM     15  C   UNL     1      31.002  -6.436 -23.615  0.00  0.00    +0.020 C 
ATOM     16  C   UNL     1      31.694  -4.172 -22.024  0.00  0.00    +0.030 C 
ATOM     17  C   UNL     1      30.747  -5.136 -24.061  0.00  0.00    +0.013 C 
ATOM     18  C   UNL     1      31.089  -4.016 -23.274  0.00  0.00    +0.059 C 
ATOM     19  H   UNL     1      32.851  -5.328 -19.694  0.00  0.00    +0.170 HD
ENDBRANCH   2  10
BRANCH   1  20
ATOM     20  C   UNL     1      32.497 -13.285 -22.535  0.00  0.00    -0.075 C 
BRANCH  20  21
ATOM     21  C   UNL     1      33.591 -14.140 -21.889  0.00  0.00    +0.002 C 
BRANCH  21  22
ATOM     22  C   UNL     1      34.737 -14.514 -22.827  0.00  0.00    +0.108 C 
BRANCH  22  24
ATOM     23  O   UNL     1      33.782 -15.454 -25.533  0.00  0.00    -0.247 OA
ATOM     24  N   UNL     1      34.615 -15.852 -23.339  0.00  0.00    -0.280 N 
ATOM     25  N   UNL     1      34.201 -17.626 -24.698  0.00  0.00    -0.305 N 
ATOM     26  C   UNL     1      34.933 -17.028 -22.641  0.00  0.00    +0.079 A 
ATOM     27  C   UNL     1      34.150 -16.205 -24.640  0.00  0.00    +0.328 A 
ATOM     28  C   UNL     1      34.676 -18.111 -23.479  0.00  0.00    +0.076 A 
ATOM     29  C   UNL     1      35.416 -17.207 -21.361  0.00  0.00    +0.019 C 
ATOM     30  C   UNL     1      34.887 -19.414 -23.089  0.00  0.00    +0.019 C 
ATOM     31  C   UNL     1      35.638 -18.522 -20.941  0.00  0.00    +0.002 C 
ATOM     32  C   UNL     1      35.377 -19.614 -21.795  0.00  0.00    +0.002 C 
ATOM     33  H   UNL     1      33.941 -18.178 -25.472  0.00  0.00    +0.170 HD
ENDBRANCH  22  24
ENDBRANCH  21  22
ENDBRANCH  20  21
ENDBRANCH   1  20
TORSDOF 5
ENDMDL
MODEL 5
REMARK VINA RESULT:     -11.1      3.622      6.253
REMARK  Name = 3151
REMARK  5 active torsions:
REMARK  status: ('A' for Active; 'I' for Inactive)
REMARK    1  A    between atoms: N_1  and  C_20
REMARK    2  A    between atoms: C_2  and  N_10
REMARK    3  A    between atoms: C_20  and  C_21
REMARK    4  A    between atoms: C_21  and  C_22
REMARK    5  A    between atoms: C_22  and  N_24
REMARK                            x       y       z     vdW  Elec       q    Type
REMARK                         _______ _______ _______ _____ _____    ______ ____
ROOT
ATOM      1  N   UNL     1      31.745 -10.460 -22.761  0.00  0.00    +0.387 N 
ATOM      2  C   UNL     1      33.399 -12.872 -22.707  0.00  0.00    +0.086 C 
ATOM      3  C   UNL     1      33.633 -11.745 -23.712  0.00  0.00    -0.000 C 
ATOM      4  C   UNL     1      31.943 -12.869 -22.240  0.00  0.00    -0.000 C 
ATOM      5  C   UNL     1      33.159 -10.400 -23.158  0.00  0.00    -0.075 C 
ATOM      6  C   UNL     1      31.525 -11.488 -21.734  0.00  0.00    -0.075 C 
ATOM      7  H   UNL     1      31.197 -10.713 -23.582  0.00  0.00    -0.080 HD
ENDROOT
BRANCH   2  10
ATOM      8 CL   UNL     1      36.227 -19.000 -21.118  0.00  0.00    -0.082 Cl
ATOM      9  O   UNL     1      33.092 -13.917 -25.544  0.00  0.00    -0.247 OA
ATOM     10  N   UNL     1      33.760 -14.148 -23.274  0.00  0.00    -0.282 N 
ATOM     11  N   UNL     1      34.088 -15.886 -24.692  0.00  0.00    -0.305 N 
ATOM     12  C   UNL     1      34.356 -15.191 -22.552  0.00  0.00    +0.079 A 
ATOM     13  C   UNL     1      33.579 -14.557 -24.622  0.00  0.00    +0.328 A 
ATOM     14  C   UNL     1      34.554 -16.255 -23.430  0.00  0.00    +0.077 A 
ATOM     15  C   UNL     1      34.724 -15.272 -21.225  0.00  0.00    +0.020 C 
ATOM     16  C   UNL     1      35.125 -17.443 -23.032  0.00  0.00    +0.030 C 
ATOM     17  C   UNL     1      35.307 -16.469 -20.797  0.00  0.00    +0.013 C 
ATOM     18  C   UNL     1      35.505 -17.543 -21.691  0.00  0.00    +0.059 C 
ATOM     19  H   UNL     1      34.106 -16.450 -25.497  0.00  0.00    +0.170 HD
ENDBRANCH   2  10
BRANCH   1  20
ATOM     20  C   UNL     1      31.293  -9.153 -22.281  0.00  0.00    -0.075 C 
BRANCH  20  21
ATOM     21  C   UNL     1      31.879  -8.816 -20.906  0.00  0.00    +0.002 C 
BRANCH  21  22
ATOM     22  C   UNL     1      32.021  -7.321 -20.630  0.00  0.00    +0.108 C 
BRANCH  22  24
ATOM     23  O   UNL     1      30.010  -5.508 -21.965  0.00  0.00    -0.247 OA
ATOM     24  N   UNL     1      32.147  -6.547 -21.835  0.00  0.00    -0.280 N 
ATOM     25  N   UNL     1      31.705  -5.153 -23.575  0.00  0.00    -0.305 N 
ATOM     26  C   UNL     1      33.286  -6.488 -22.655  0.00  0.00    +0.079 A 
ATOM     27  C   UNL     1      31.137  -5.712 -22.396  0.00  0.00    +0.328 A 
ATOM     28  C   UNL     1      33.008  -5.633 -23.720  0.00  0.00    +0.076 A 
ATOM     29  C   UNL     1      34.509  -7.115 -22.534  0.00  0.00    +0.019 C 
ATOM     30  C   UNL     1      33.927  -5.361 -24.708  0.00  0.00    +0.019 C 
ATOM     31  C   UNL     1      35.460  -6.854 -23.527  0.00  0.00    +0.002 C 
ATOM     32  C   UNL     1      35.172  -5.986 -24.601  0.00  0.00    +0.002 C 
ATOM     33  H   UNL     1      31.253  -4.530 -24.190  0.00  0.00    +0.170 HD
ENDBRANCH  22  24
ENDBRANCH  21  22
ENDBRANCH  20  21
ENDBRANCH   1  20
TORSDOF 5
ENDMDL
MODEL 6
REMARK VINA RESULT:     -11.0      1.633      2.332
REMARK  Name = 3151
REMARK  5 active torsions:
REMARK  status: ('A' for Active; 'I' for Inactive)
REMARK    1  A    between atoms: N_1  and  C_20
REMARK    2  A    between atoms: C_2  and  N_10
REMARK    3  A    between atoms: C_20  and  C_21
REMARK    4  A    between atoms: C_21  and  C_22
REMARK    5  A    between atoms: C_22  and  N_24
REMARK                            x       y       z     vdW  Elec       q    Type
REMARK                         _______ _______ _______ _____ _____    ______ ____
ROOT
ATOM      1  N   UNL     1      33.816 -15.519 -23.281  0.00  0.00    +0.387 N 
ATOM      2  C   UNL     1      35.807 -17.343 -22.156  0.00  0.00    +0.086 C 
ATOM      3  C   UNL     1      34.931 -17.727 -23.348  0.00  0.00    -0.000 C 
ATOM      4  C   UNL     1      35.115 -16.270 -21.315  0.00  0.00    -0.000 C 
ATOM      5  C   UNL     1      34.503 -16.491 -24.142  0.00  0.00    -0.075 C 
ATOM      6  C   UNL     1      34.682 -15.083 -22.177  0.00  0.00    -0.075 C 
ATOM      7  H   UNL     1      33.000 -15.976 -22.878  0.00  0.00    -0.080 HD
ENDROOT
BRANCH   2  10
ATOM      8 CL   UNL     1      32.916 -22.447 -18.460  0.00  0.00    -0.082 Cl
ATOM      9  O   UNL     1      38.502 -18.546 -21.432  0.00  0.00    -0.247 OA
ATOM     10  N   UNL     1      36.126 -18.501 -21.359  0.00  0.00    -0.282 N 
ATOM     11  N   UNL     1      37.222 -20.150 -20.255  0.00  0.00    -0.305 N 
ATOM     12  C   UNL     1      35.171 -19.322 -20.744  0.00  0.00    +0.079 A 
ATOM     13  C   UNL     1      37.425 -18.999 -21.069  0.00  0.00    +0.328 A 
ATOM     14  C   UNL     1      35.852 -20.332 -20.067  0.00  0.00    +0.077 A 
ATOM     15  C   UNL     1      33.794 -19.250 -20.734  0.00  0.00    +0.020 C 
ATOM     16  C   UNL     1      35.200 -21.313 -19.353  0.00  0.00    +0.030 C 
ATOM     17  C   UNL     1      33.108 -20.234 -20.015  0.00  0.00    +0.013 C 
ATOM     18  C   UNL     1      33.804 -21.254 -19.333  0.00  0.00    +0.059 C 
ATOM     19  H   UNL     1      37.933 -20.722 -19.886  0.00  0.00    +0.170 HD
ENDBRANCH   2  10
BRANCH   1  20
ATOM     20  C   UNL     1      33.370 -14.367 -24.065  0.00  0.00    -0.075 C 
BRANCH  20  21
ATOM     21  C   UNL     1      33.459 -13.063 -23.268  0.00  0.00    +0.002 C 
BRANCH  21  22
ATOM     22  C   UNL     1      32.133 -12.597 -22.669  0.00  0.00    +0.108 C 
BRANCH  22  24
ATOM     23  O   UNL     1      32.537 -10.166 -24.413  0.00  0.00    -0.247 OA
ATOM     24  N   UNL     1      32.150 -11.206 -22.308  0.00  0.00    -0.280 N 
ATOM     25  N   UNL     1      32.286  -8.939 -22.407  0.00  0.00    -0.305 N 
ATOM     26  C   UNL     1      31.973 -10.694 -21.011  0.00  0.00    +0.079 A 
ATOM     27  C   UNL     1      32.349 -10.116 -23.205  0.00  0.00    +0.328 A 
ATOM     28  C   UNL     1      32.058  -9.305 -21.080  0.00  0.00    +0.076 A 
ATOM     29  C   UNL     1      31.749 -11.344 -19.815  0.00  0.00    +0.019 C 
ATOM     30  C   UNL     1      31.925  -8.501 -19.970  0.00  0.00    +0.019 C 
ATOM     31  C   UNL     1      31.612 -10.548 -18.673  0.00  0.00    +0.002 C 
ATOM     32  C   UNL     1      31.698  -9.142 -18.750  0.00  0.00    +0.002 C 
ATOM     33  H   UNL     1      32.388  -8.016 -22.737  0.00  0.00    +0.170 HD
ENDBRANCH  22  24
ENDBRANCH  21  22
ENDBRANCH  20  21
ENDBRANCH   1  20
TORSDOF 5
ENDMDL
MODEL 7
REMARK VINA RESULT:     -10.9      1.609      2.056
REMARK  Name = 3151
REMARK  5 active torsions:
REMARK  status: ('A' for Active; 'I' for Inactive)
REMARK    1  A    between atoms: N_1  and  C_20
REMARK    2  A    between atoms: C_2  and  N_10
REMARK    3  A    between atoms: C_20  and  C_21
REMARK    4  A    between atoms: C_21  and  C_22
REMARK    5  A    between atoms: C_22  and  N_24
REMARK                            x       y       z     vdW  Elec       q    Type
REMARK                         _______ _______ _______ _____ _____    ______ ____
ROOT
ATOM      1  N   UNL     1      33.842 -15.508 -23.265  0.00  0.00    +0.387 N 
ATOM      2  C   UNL     1      35.834 -17.319 -22.121  0.00  0.00    +0.086 C 
ATOM      3  C   UNL     1      35.002 -17.692 -23.348  0.00  0.00    -0.000 C 
ATOM      4  C   UNL     1      35.095 -16.280 -21.277  0.00  0.00    -0.000 C 
ATOM      5  C   UNL     1      34.574 -16.446 -24.127  0.00  0.00    -0.075 C 
ATOM      6  C   UNL     1      34.665 -15.081 -22.125  0.00  0.00    -0.075 C 
ATOM      7  H   UNL     1      33.023 -15.990 -22.898  0.00  0.00    -0.080 HD
ENDROOT
BRANCH   2  10
ATOM      8 CL   UNL     1      32.937 -22.453 -18.469  0.00  0.00    -0.082 Cl
ATOM      9  O   UNL     1      38.526 -18.548 -21.432  0.00  0.00    -0.247 OA
ATOM     10  N   UNL     1      36.151 -18.490 -21.341  0.00  0.00    -0.282 N 
ATOM     11  N   UNL     1      37.245 -20.158 -20.266  0.00  0.00    -0.305 N 
ATOM     12  C   UNL     1      35.195 -19.312 -20.729  0.00  0.00    +0.079 A 
ATOM     13  C   UNL     1      37.449 -18.998 -21.067  0.00  0.00    +0.328 A 
ATOM     14  C   UNL     1      35.875 -20.335 -20.070  0.00  0.00    +0.077 A 
ATOM     15  C   UNL     1      33.818 -19.232 -20.709  0.00  0.00    +0.020 C 
ATOM     16  C   UNL     1      35.221 -21.321 -19.365  0.00  0.00    +0.030 C 
ATOM     17  C   UNL     1      33.132 -20.221 -19.998  0.00  0.00    +0.013 C 
ATOM     18  C   UNL     1      33.826 -21.254 -19.333  0.00  0.00    +0.059 C 
ATOM     19  H   UNL     1      37.954 -20.740 -19.910  0.00  0.00    +0.170 HD
ENDBRANCH   2  10
BRANCH   1  20
ATOM     20  C   UNL     1      33.397 -14.346 -24.036  0.00  0.00    -0.075 C 
BRANCH  20  21
ATOM     21  C   UNL     1      33.561 -13.041 -23.252  0.00  0.00    +0.002 C 
BRANCH  21  22
ATOM     22  C   UNL     1      33.354 -11.776 -24.081  0.00  0.00    +0.108 C 
BRANCH  22  24
ATOM     23  O   UNL     1      30.939 -11.358 -22.319  0.00  0.00    -0.247 OA
ATOM     24  N   UNL     1      32.996 -10.641 -23.274  0.00  0.00    -0.280 N 
ATOM     25  N   UNL     1      31.894  -9.245 -21.859  0.00  0.00    -0.305 N 
ATOM     26  C   UNL     1      33.742  -9.456 -23.150  0.00  0.00    +0.079 A 
ATOM     27  C   UNL     1      31.826 -10.530 -22.468  0.00  0.00    +0.328 A 
ATOM     28  C   UNL     1      33.061  -8.606 -22.282  0.00  0.00    +0.076 A 
ATOM     29  C   UNL     1      34.939  -9.087 -23.730  0.00  0.00    +0.019 C 
ATOM     30  C   UNL     1      33.533  -7.357 -21.949  0.00  0.00    +0.019 C 
ATOM     31  C   UNL     1      35.439  -7.821 -23.407  0.00  0.00    +0.002 C 
ATOM     32  C   UNL     1      34.745  -6.966 -22.526  0.00  0.00    +0.002 C 
ATOM     33  H   UNL     1      31.227  -8.868 -21.239  0.00  0.00    +0.170 HD
ENDBRANCH  22  24
ENDBRANCH  21  22
ENDBRANCH  20  21
ENDBRANCH   1  20
TORSDOF 5
ENDMDL
MODEL 8
REMARK VINA RESULT:     -10.8      4.174     10.348
REMARK  Name = 3151
REMARK  5 active torsions:
REMARK  status: ('A' for Active; 'I' for Inactive)
REMARK    1  A    between atoms: N_1  and  C_20
REMARK    2  A    between atoms: C_2  and  N_10
REMARK    3  A    between atoms: C_20  and  C_21
REMARK    4  A    between atoms: C_21  and  C_22
REMARK    5  A    between atoms: C_22  and  N_24
REMARK                            x       y       z     vdW  Elec       q    Type
REMARK                         _______ _______ _______ _____ _____    ______ ____
ROOT
ATOM      1  N   UNL     1      35.651 -21.070 -19.890  0.00  0.00    +0.387 N 
ATOM      2  C   UNL     1      35.045 -18.484 -21.116  0.00  0.00    +0.086 C 
ATOM      3  C   UNL     1      34.013 -19.609 -21.033  0.00  0.00    -0.000 C 
ATOM      4  C   UNL     1      36.460 -19.061 -21.085  0.00  0.00    -0.000 C 
ATOM      5  C   UNL     1      34.287 -20.525 -19.839  0.00  0.00    -0.075 C 
ATOM      6  C   UNL     1      36.652 -19.994 -19.889  0.00  0.00    -0.075 C 
ATOM      7  H   UNL     1      35.749 -21.590 -20.761  0.00  0.00    -0.080 HD
ENDROOT
BRANCH   2  10
ATOM      8 CL   UNL     1      34.123 -11.950 -23.247  0.00  0.00    -0.082 Cl
ATOM      9  O   UNL     1      34.830 -19.308 -24.033  0.00  0.00    -0.247 OA
ATOM     10  N   UNL     1      34.836 -17.683 -22.297  0.00  0.00    -0.282 N 
ATOM     11  N   UNL     1      34.540 -16.995 -24.436  0.00  0.00    -0.305 N 
ATOM     12  C   UNL     1      34.687 -16.290 -22.289  0.00  0.00    +0.079 A 
ATOM     13  C   UNL     1      34.748 -18.154 -23.635  0.00  0.00    +0.328 A 
ATOM     14  C   UNL     1      34.506 -15.874 -23.607  0.00  0.00    +0.077 A 
ATOM     15  C   UNL     1      34.700 -15.389 -21.244  0.00  0.00    +0.020 C 
ATOM     16  C   UNL     1      34.329 -14.552 -23.946  0.00  0.00    +0.030 C 
ATOM     17  C   UNL     1      34.521 -14.039 -21.564  0.00  0.00    +0.013 C 
ATOM     18  C   UNL     1      34.338 -13.625 -22.900  0.00  0.00    +0.059 C 
ATOM     19  H   UNL     1      34.439 -16.987 -25.415  0.00  0.00    +0.170 HD
ENDBRANCH   2  10
BRANCH   1  20
ATOM     20  C   UNL     1      35.880 -21.982 -18.769  0.00  0.00    -0.075 C 
BRANCH  20  21
ATOM     21  C   UNL     1      34.700 -21.996 -17.793  0.00  0.00    +0.002 C 
BRANCH  21  22
ATOM     22  C   UNL     1      34.101 -23.379 -17.546  0.00  0.00    +0.108 C 
BRANCH  22  24
ATOM     23  O   UNL     1      35.989 -24.321 -15.387  0.00  0.00    -0.247 OA
ATOM     24  N   UNL     1      33.846 -23.628 -16.153  0.00  0.00    -0.280 N 
ATOM     25  N   UNL     1      34.107 -24.180 -13.964  0.00  0.00    -0.305 N 
ATOM     26  C   UNL     1      32.608 -23.471 -15.506  0.00  0.00    +0.079 A 
ATOM     27  C   UNL     1      34.806 -24.075 -15.199  0.00  0.00    +0.328 A 
ATOM     28  C   UNL     1      32.776 -23.811 -14.165  0.00  0.00    +0.076 A 
ATOM     29  C   UNL     1      31.386 -23.062 -15.999  0.00  0.00    +0.019 C 
ATOM     30  C   UNL     1      31.744 -23.763 -13.256  0.00  0.00    +0.019 C 
ATOM     31  C   UNL     1      30.321 -23.005 -15.094  0.00  0.00    +0.002 C 
ATOM     32  C   UNL     1      30.497 -23.351 -13.737  0.00  0.00    +0.002 C 
ATOM     33  H   UNL     1      34.498 -24.468 -13.106  0.00  0.00    +0.170 HD
ENDBRANCH  22  24
ENDBRANCH  21  22
ENDBRANCH  20  21
ENDBRANCH   1  20
TORSDOF 5
ENDMDL
MODEL 9
REMARK VINA RESULT:     -10.7      3.099      5.391
REMARK  Name = 3151
REMARK  5 active torsions:
REMARK  status: ('A' for Active; 'I' for Inactive)
REMARK    1  A    between atoms: N_1  and  C_20
REMARK    2  A    between atoms: C_2  and  N_10
REMARK    3  A    between atoms: C_20  and  C_21
REMARK    4  A    between atoms: C_21  and  C_22
REMARK    5  A    between atoms: C_22  and  N_24
REMARK                            x       y       z     vdW  Elec       q    Type
REMARK                         _______ _______ _______ _____ _____    ______ ____
ROOT
ATOM      1  N   UNL     1      35.251 -20.164 -19.890  0.00  0.00    +0.387 N 
ATOM      2  C   UNL     1      35.197 -22.350 -17.947  0.00  0.00    +0.086 C 
ATOM      3  C   UNL     1      33.924 -21.652 -18.426  0.00  0.00    -0.000 C 
ATOM      4  C   UNL     1      36.398 -21.415 -18.090  0.00  0.00    -0.000 C 
ATOM      5  C   UNL     1      34.102 -21.078 -19.832  0.00  0.00    -0.075 C 
ATOM      6  C   UNL     1      36.494 -20.849 -19.509  0.00  0.00    -0.075 C 
ATOM      7  H   UNL     1      35.089 -19.411 -19.222  0.00  0.00    -0.080 HD
ENDROOT
BRANCH   2  10
ATOM      8 CL   UNL     1      30.483 -24.443 -13.313  0.00  0.00    -0.082 Cl
ATOM      9  O   UNL     1      37.290 -22.770 -15.785  0.00  0.00    -0.247 OA
ATOM     10  N   UNL     1      35.052 -22.804 -16.586  0.00  0.00    -0.282 N 
ATOM     11  N   UNL     1      35.457 -23.435 -14.447  0.00  0.00    -0.305 N 
ATOM     12  C   UNL     1      33.829 -23.151 -15.996  0.00  0.00    +0.079 A 
ATOM     13  C   UNL     1      36.093 -22.973 -15.634  0.00  0.00    +0.328 A 
ATOM     14  C   UNL     1      34.086 -23.538 -14.682  0.00  0.00    +0.077 A 
ATOM     15  C   UNL     1      32.549 -23.153 -16.511  0.00  0.00    +0.020 C 
ATOM     16  C   UNL     1      33.088 -23.942 -13.823  0.00  0.00    +0.030 C 
ATOM     17  C   UNL     1      31.519 -23.559 -15.658  0.00  0.00    +0.013 C 
ATOM     18  C   UNL     1      31.786 -23.949 -14.329  0.00  0.00    +0.059 C 
ATOM     19  H   UNL     1      35.911 -23.648 -13.600  0.00  0.00    +0.170 HD
ENDBRANCH   2  10
BRANCH   1  20
ATOM     20  C   UNL     1      35.377 -19.585 -21.228  0.00  0.00    -0.075 C 
BRANCH  20  21
ATOM     21  C   UNL     1      34.890 -18.134 -21.271  0.00  0.00    +0.002 C 
BRANCH  21  22
ATOM     22  C   UNL     1      35.660 -17.238 -22.240  0.00  0.00    +0.108 C 
BRANCH  22  24
ATOM     23  O   UNL     1      34.833 -16.732 -25.099  0.00  0.00    -0.247 OA
ATOM     24  N   UNL     1      34.845 -16.186 -22.783  0.00  0.00    -0.280 N 
ATOM     25  N   UNL     1      33.691 -14.857 -24.221  0.00  0.00    -0.305 N 
ATOM     26  C   UNL     1      34.252 -15.146 -22.047  0.00  0.00    +0.079 A 
ATOM     27  C   UNL     1      34.504 -16.023 -24.158  0.00  0.00    +0.328 A 
ATOM     28  C   UNL     1      33.547 -14.336 -22.935  0.00  0.00    +0.076 A 
ATOM     29  C   UNL     1      34.289 -14.872 -20.695  0.00  0.00    +0.019 C 
ATOM     30  C   UNL     1      32.849 -13.222 -22.524  0.00  0.00    +0.019 C 
ATOM     31  C   UNL     1      33.588 -13.745 -20.253  0.00  0.00    +0.002 C 
ATOM     32  C   UNL     1      32.875 -12.930 -21.157  0.00  0.00    +0.002 C 
ATOM     33  H   UNL     1      33.294 -14.478 -25.040  0.00  0.00    +0.170 HD
ENDBRANCH  22  24
ENDBRANCH  21  22
ENDBRANCH  20  21
ENDBRANCH   1  20
TORSDOF 5
ENDMDL
