MODEL 1
REMARK VINA RESULT:     -11.7      0.000      0.000
REMARK  Name = 24941248
REMARK  7 active torsions:
REMARK  status: ('A' for Active; 'I' for Inactive)
REMARK    1  A    between atoms: N_2  and  C_24
REMARK    2  A    between atoms: C_6  and  C_14
REMARK    3  A    between atoms: C_13  and  C_19
REMARK    4  A    between atoms: C_19  and  C_20
REMARK    5  A    between atoms: C_20  and  C_21
REMARK    6  A    between atoms: C_21  and  O_22
REMARK    7  A    between atoms: C_24  and  C_26
REMARK                            x       y       z     vdW  Elec       q    Type
REMARK                         _______ _______ _______ _____ _____    ______ ____
ROOT
ATOM      1  O   UNL     1      33.409 -15.647 -25.807  0.00  0.00    -0.352 OA
ATOM      2  N   UNL     1      35.579 -17.734 -21.289  0.00  0.00    -0.316 N 
ATOM      3  N   UNL     1      33.062 -14.357 -25.422  0.00  0.00    -0.077 NA
ATOM      4  N   UNL     1      34.982 -18.055 -23.572  0.00  0.00    -0.226 NA
ATOM      5  C   UNL     1      34.010 -15.450 -23.657  0.00  0.00    +0.062 A 
ATOM      6  C   UNL     1      33.427 -14.261 -24.139  0.00  0.00    +0.123 A 
ATOM      7  C   UNL     1      35.020 -17.231 -22.493  0.00  0.00    +0.129 C 
ATOM      8  C   UNL     1      34.555 -15.920 -22.460  0.00  0.00    +0.039 C 
ATOM      9  C   UNL     1      33.973 -16.294 -24.753  0.00  0.00    +0.196 A 
ATOM     10  C   UNL     1      34.451 -17.590 -24.729  0.00  0.00    +0.140 C 
ATOM     11  H   UNL     1      35.613 -17.145 -20.500  0.00  0.00    +0.148 HD
ENDROOT
BRANCH   6  14
ATOM     12 CL   UNL     1      34.418  -9.229 -23.612  0.00  0.00    -0.082 Cl
ATOM     13  C   UNL     1      32.158 -11.842 -21.596  0.00  0.00    -0.021 C 
ATOM     14  C   UNL     1      33.212 -13.038 -23.411  0.00  0.00    +0.021 C 
ATOM     15  C   UNL     1      32.368 -13.027 -22.301  0.00  0.00    -0.003 C 
ATOM     16  C   UNL     1      32.792 -10.668 -22.002  0.00  0.00    +0.007 C 
ATOM     17  C   UNL     1      33.846 -11.863 -23.817  0.00  0.00    +0.013 C 
ATOM     18  C   UNL     1      33.636 -10.678 -23.113  0.00  0.00    +0.057 C 
BRANCH  13  19
ATOM     19  C   UNL     1      31.256 -11.830 -20.409  0.00  0.00    +0.029 C 
BRANCH  19  20
ATOM     20  C   UNL     1      31.014 -10.411 -19.877  0.00  0.00    +0.036 C 
BRANCH  20  21
ATOM     21  C   UNL     1      31.458 -10.259 -18.429  0.00  0.00    +0.138 C 
BRANCH  21  22
ATOM     22  O   UNL     1      32.724  -9.614 -18.402  0.00  0.00    -0.382 OA
ATOM     23  H   UNL     1      33.424 -10.281 -18.340  0.00  0.00    +0.210 HD
ENDBRANCH  21  22
ENDBRANCH  20  21
ENDBRANCH  19  20
ENDBRANCH  13  19
ENDBRANCH   6  14
BRANCH   2  24
ATOM     24  C   UNL     1      36.093 -19.059 -21.175  0.00  0.00    +0.093 C 
ATOM     25  C   UNL     1      37.476 -19.014 -20.530  0.00  0.00    +0.026 C 
BRANCH  24  26
ATOM     26  C   UNL     1      35.117 -19.935 -20.420  0.00  0.00    -0.005 C 
ATOM     27  C   UNL     1      35.589 -20.921 -19.556  0.00  0.00    -0.003 C 
ATOM     28  C   UNL     1      33.744 -19.756 -20.590  0.00  0.00    -0.003 C 
ATOM     29  C   UNL     1      34.689 -21.731 -18.861  0.00  0.00    -0.000 C 
ATOM     30  C   UNL     1      32.844 -20.565 -19.896  0.00  0.00    -0.000 C 
ATOM     31  C   UNL     1      33.317 -21.551 -19.030  0.00  0.00    -0.000 C 
ENDBRANCH  24  26
ENDBRANCH   2  24
TORSDOF 7
ENDMDL
MODEL 2
REMARK VINA RESULT:     -11.6      1.770      2.657
REMARK  Name = 24941248
REMARK  7 active torsions:
REMARK  status: ('A' for Active; 'I' for Inactive)
REMARK    1  A    between atoms: N_2  and  C_24
REMARK    2  A    between atoms: C_6  and  C_14
REMARK    3  A    between atoms: C_13  and  C_19
REMARK    4  A    between atoms: C_19  and  C_20
REMARK    5  A    between atoms: C_20  and  C_21
REMARK    6  A    between atoms: C_21  and  O_22
REMARK    7  A    between atoms: C_24  and  C_26
REMARK                            x       y       z     vdW  Elec       q    Type
REMARK                         _______ _______ _______ _____ _____    ______ ____
ROOT
ATOM      1  O   UNL     1      33.461 -15.446 -25.742  0.00  0.00    -0.352 OA
ATOM      2  N   UNL     1      35.522 -17.718 -21.262  0.00  0.00    -0.316 N 
ATOM      3  N   UNL     1      33.048 -14.196 -25.298  0.00  0.00    -0.077 NA
ATOM      4  N   UNL     1      35.033 -17.924 -23.584  0.00  0.00    -0.226 NA
ATOM      5  C   UNL     1      33.964 -15.356 -23.560  0.00  0.00    +0.062 A 
ATOM      6  C   UNL     1      33.356 -14.163 -23.998  0.00  0.00    +0.123 A 
ATOM      7  C   UNL     1      34.994 -17.165 -22.458  0.00  0.00    +0.129 C 
ATOM      8  C   UNL     1      34.477 -15.876 -22.370  0.00  0.00    +0.039 C 
ATOM      9  C   UNL     1      34.005 -16.134 -24.704  0.00  0.00    +0.196 A 
ATOM     10  C   UNL     1      34.533 -17.411 -24.734  0.00  0.00    +0.140 C 
ATOM     11  H   UNL     1      35.500 -17.176 -20.440  0.00  0.00    +0.148 HD
ENDROOT
BRANCH   6  14
ATOM     12 CL   UNL     1      31.951 -12.163 -19.458  0.00  0.00    -0.082 Cl
ATOM     13  C   UNL     1      32.865 -10.594 -23.022  0.00  0.00    -0.021 C 
ATOM     14  C   UNL     1      33.062 -12.994 -23.210  0.00  0.00    +0.021 C 
ATOM     15  C   UNL     1      33.148 -11.727 -23.785  0.00  0.00    -0.003 C 
ATOM     16  C   UNL     1      32.494 -10.729 -21.684  0.00  0.00    +0.007 C 
ATOM     17  C   UNL     1      32.692 -13.130 -21.872  0.00  0.00    +0.013 C 
ATOM     18  C   UNL     1      32.408 -11.997 -21.109  0.00  0.00    +0.057 C 
BRANCH  13  19
ATOM     19  C   UNL     1      32.958  -9.238 -23.636  0.00  0.00    +0.029 C 
BRANCH  19  20
ATOM     20  C   UNL     1      33.940  -8.327 -22.888  0.00  0.00    +0.036 C 
BRANCH  20  21
ATOM     21  C   UNL     1      35.232  -8.118 -23.663  0.00  0.00    +0.138 C 
BRANCH  21  22
ATOM     22  O   UNL     1      35.994  -9.317 -23.620  0.00  0.00    -0.382 OA
ATOM     23  H   UNL     1      36.020  -9.714 -24.505  0.00  0.00    +0.210 HD
ENDBRANCH  21  22
ENDBRANCH  20  21
ENDBRANCH  19  20
ENDBRANCH  13  19
ENDBRANCH   6  14
BRANCH   2  24
ATOM     24  C   UNL     1      36.082 -19.028 -21.203  0.00  0.00    +0.093 C 
ATOM     25  C   UNL     1      37.494 -18.952 -20.627  0.00  0.00    +0.026 C 
BRANCH  24  26
ATOM     26  C   UNL     1      35.174 -19.951 -20.420  0.00  0.00    -0.005 C 
ATOM     27  C   UNL     1      33.790 -19.803 -20.504  0.00  0.00    -0.003 C 
ATOM     28  C   UNL     1      35.721 -20.949 -19.614  0.00  0.00    -0.003 C 
ATOM     29  C   UNL     1      32.952 -20.654 -19.781  0.00  0.00    -0.000 C 
ATOM     30  C   UNL     1      34.884 -21.799 -18.892  0.00  0.00    -0.000 C 
ATOM     31  C   UNL     1      33.500 -21.652 -18.976  0.00  0.00    -0.000 C 
ENDBRANCH  24  26
ENDBRANCH   2  24
TORSDOF 7
ENDMDL
MODEL 3
REMARK VINA RESULT:     -10.8      7.686     12.752
REMARK  Name = 24941248
REMARK  7 active torsions:
REMARK  status: ('A' for Active; 'I' for Inactive)
REMARK    1  A    between atoms: N_2  and  C_24
REMARK    2  A    between atoms: C_6  and  C_14
REMARK    3  A    between atoms: C_13  and  C_19
REMARK    4  A    between atoms: C_19  and  C_20
REMARK    5  A    between atoms: C_20  and  C_21
REMARK    6  A    between atoms: C_21  and  O_22
REMARK    7  A    between atoms: C_24  and  C_26
REMARK                            x       y       z     vdW  Elec       q    Type
REMARK                         _______ _______ _______ _____ _____    ______ ____
ROOT
ATOM      1  O   UNL     1      31.375 -23.952 -14.627  0.00  0.00    -0.352 OA
ATOM      2  N   UNL     1      34.511 -21.916 -18.564  0.00  0.00    -0.316 N 
ATOM      3  N   UNL     1      32.299 -24.410 -13.695  0.00  0.00    -0.077 NA
ATOM      4  N   UNL     1      32.311 -22.352 -17.763  0.00  0.00    -0.226 NA
ATOM      5  C   UNL     1      33.400 -23.495 -15.473  0.00  0.00    +0.062 A 
ATOM      6  C   UNL     1      33.497 -24.129 -14.218  0.00  0.00    +0.123 A 
ATOM      7  C   UNL     1      33.652 -22.435 -17.561  0.00  0.00    +0.129 C 
ATOM      8  C   UNL     1      34.267 -22.992 -16.443  0.00  0.00    +0.039 C 
ATOM      9  C   UNL     1      32.035 -23.409 -15.684  0.00  0.00    +0.196 A 
ATOM     10  C   UNL     1      31.477 -22.843 -16.815  0.00  0.00    +0.140 C 
ATOM     11  H   UNL     1      35.485 -21.969 -18.427  0.00  0.00    +0.148 HD
ENDROOT
BRANCH   6  14
ATOM     12 CL   UNL     1      36.083 -24.234  -9.759  0.00  0.00    -0.082 Cl
ATOM     13  C   UNL     1      36.932 -25.394 -13.491  0.00  0.00    -0.021 C 
ATOM     14  C   UNL     1      34.699 -24.472 -13.505  0.00  0.00    +0.021 C 
ATOM     15  C   UNL     1      35.767 -25.061 -14.182  0.00  0.00    -0.003 C 
ATOM     16  C   UNL     1      37.029 -25.138 -12.123  0.00  0.00    +0.007 C 
ATOM     17  C   UNL     1      34.797 -24.216 -12.137  0.00  0.00    +0.013 C 
ATOM     18  C   UNL     1      35.962 -24.550 -11.446  0.00  0.00    +0.057 C 
BRANCH  13  19
ATOM     19  C   UNL     1      38.074 -26.025 -14.215  0.00  0.00    +0.029 C 
BRANCH  19  20
ATOM     20  C   UNL     1      39.404 -25.845 -13.471  0.00  0.00    +0.036 C 
BRANCH  20  21
ATOM     21  C   UNL     1      40.552 -25.531 -14.419  0.00  0.00    +0.138 C 
BRANCH  21  22
ATOM     22  O   UNL     1      40.187 -25.933 -15.732  0.00  0.00    -0.382 OA
ATOM     23  H   UNL     1      40.260 -25.175 -16.333  0.00  0.00    +0.210 HD
ENDBRANCH  21  22
ENDBRANCH  20  21
ENDBRANCH  19  20
ENDBRANCH  13  19
ENDBRANCH   6  14
BRANCH   2  24
ATOM     24  C   UNL     1      34.021 -21.319 -19.762  0.00  0.00    +0.093 C 
ATOM     25  C   UNL     1      32.685 -20.636 -19.481  0.00  0.00    +0.026 C 
BRANCH  24  26
ATOM     26  C   UNL     1      35.056 -20.378 -20.339  0.00  0.00    -0.005 C 
ATOM     27  C   UNL     1      36.324 -20.298 -19.764  0.00  0.00    -0.003 C 
ATOM     28  C   UNL     1      34.742 -19.591 -21.448  0.00  0.00    -0.003 C 
ATOM     29  C   UNL     1      37.278 -19.430 -20.296  0.00  0.00    -0.000 C 
ATOM     30  C   UNL     1      35.696 -18.724 -21.979  0.00  0.00    -0.000 C 
ATOM     31  C   UNL     1      36.964 -18.644 -21.404  0.00  0.00    -0.000 C 
ENDBRANCH  24  26
ENDBRANCH   2  24
TORSDOF 7
ENDMDL
MODEL 4
REMARK VINA RESULT:      -9.6      7.602     12.439
REMARK  Name = 24941248
REMARK  7 active torsions:
REMARK  status: ('A' for Active; 'I' for Inactive)
REMARK    1  A    between atoms: N_2  and  C_24
REMARK    2  A    between atoms: C_6  and  C_14
REMARK    3  A    between atoms: C_13  and  C_19
REMARK    4  A    between atoms: C_19  and  C_20
REMARK    5  A    between atoms: C_20  and  C_21
REMARK    6  A    between atoms: C_21  and  O_22
REMARK    7  A    between atoms: C_24  and  C_26
REMARK                            x       y       z     vdW  Elec       q    Type
REMARK                         _______ _______ _______ _____ _____    ______ ____
ROOT
ATOM      1  O   UNL     1      31.272 -23.861 -14.746  0.00  0.00    -0.352 OA
ATOM      2  N   UNL     1      34.425 -21.915 -18.714  0.00  0.00    -0.316 N 
ATOM      3  N   UNL     1      32.187 -24.430 -13.868  0.00  0.00    -0.077 NA
ATOM      4  N   UNL     1      32.226 -22.209 -17.849  0.00  0.00    -0.226 NA
ATOM      5  C   UNL     1      33.297 -23.531 -15.648  0.00  0.00    +0.062 A 
ATOM      6  C   UNL     1      33.385 -24.223 -14.424  0.00  0.00    +0.123 A 
ATOM      7  C   UNL     1      33.562 -22.407 -17.700  0.00  0.00    +0.129 C 
ATOM      8  C   UNL     1      34.168 -23.057 -16.630  0.00  0.00    +0.039 C 
ATOM      9  C   UNL     1      31.937 -23.327 -15.804  0.00  0.00    +0.196 A 
ATOM     10  C   UNL     1      31.388 -22.672 -16.890  0.00  0.00    +0.140 C 
ATOM     11  H   UNL     1      35.396 -22.052 -18.616  0.00  0.00    +0.148 HD
ENDROOT
BRANCH   6  14
ATOM     12 CL   UNL     1      37.871 -26.743 -14.751  0.00  0.00    -0.082 Cl
ATOM     13  C   UNL     1      35.941 -24.880 -11.784  0.00  0.00    -0.021 C 
ATOM     14  C   UNL     1      34.580 -24.691 -13.771  0.00  0.00    +0.021 C 
ATOM     15  C   UNL     1      34.783 -24.428 -12.416  0.00  0.00    -0.003 C 
ATOM     16  C   UNL     1      36.896 -25.596 -12.506  0.00  0.00    +0.007 C 
ATOM     17  C   UNL     1      35.535 -25.407 -14.493  0.00  0.00    +0.013 C 
ATOM     18  C   UNL     1      36.693 -25.859 -13.860  0.00  0.00    +0.057 C 
BRANCH  13  19
ATOM     19  C   UNL     1      36.158 -24.598 -10.336  0.00  0.00    +0.029 C 
BRANCH  19  20
ATOM     20  C   UNL     1      36.675 -23.174 -10.092  0.00  0.00    +0.036 C 
BRANCH  20  21
ATOM     21  C   UNL     1      37.489 -22.650 -11.267  0.00  0.00    +0.138 C 
BRANCH  21  22
ATOM     22  O   UNL     1      38.842 -23.052 -11.103  0.00  0.00    -0.382 OA
ATOM     23  H   UNL     1      38.998 -23.290 -10.176  0.00  0.00    +0.210 HD
ENDBRANCH  21  22
ENDBRANCH  20  21
ENDBRANCH  19  20
ENDBRANCH  13  19
ENDBRANCH   6  14
BRANCH   2  24
ATOM     24  C   UNL     1      33.944 -21.231 -19.868  0.00  0.00    +0.093 C 
ATOM     25  C   UNL     1      32.654 -20.493 -19.521  0.00  0.00    +0.026 C 
BRANCH  24  26
ATOM     26  C   UNL     1      35.017 -20.318 -20.420  0.00  0.00    -0.005 C 
ATOM     27  C   UNL     1      34.751 -19.522 -21.533  0.00  0.00    -0.003 C 
ATOM     28  C   UNL     1      36.274 -20.272 -19.815  0.00  0.00    -0.003 C 
ATOM     29  C   UNL     1      35.741 -18.680 -22.043  0.00  0.00    -0.000 C 
ATOM     30  C   UNL     1      37.263 -19.431 -20.324  0.00  0.00    -0.000 C 
ATOM     31  C   UNL     1      36.996 -18.634 -21.437  0.00  0.00    -0.000 C 
ENDBRANCH  24  26
ENDBRANCH   2  24
TORSDOF 7
ENDMDL
MODEL 5
REMARK VINA RESULT:      -8.9      4.086     10.223
REMARK  Name = 24941248
REMARK  7 active torsions:
REMARK  status: ('A' for Active; 'I' for Inactive)
REMARK    1  A    between atoms: N_2  and  C_24
REMARK    2  A    between atoms: C_6  and  C_14
REMARK    3  A    between atoms: C_13  and  C_19
REMARK    4  A    between atoms: C_19  and  C_20
REMARK    5  A    between atoms: C_20  and  C_21
REMARK    6  A    between atoms: C_21  and  O_22
REMARK    7  A    between atoms: C_24  and  C_26
REMARK                            x       y       z     vdW  Elec       q    Type
REMARK                         _______ _______ _______ _____ _____    ______ ____
ROOT
ATOM      1  O   UNL     1      31.477 -11.800 -19.778  0.00  0.00    -0.352 OA
ATOM      2  N   UNL     1      33.097  -8.229 -23.534  0.00  0.00    -0.316 N 
ATOM      3  N   UNL     1      31.967 -13.007 -20.261  0.00  0.00    -0.077 NA
ATOM      4  N   UNL     1      31.949  -8.616 -21.484  0.00  0.00    -0.226 NA
ATOM      5  C   UNL     1      32.533 -11.327 -21.698  0.00  0.00    +0.062 A 
ATOM      6  C   UNL     1      32.592 -12.704 -21.404  0.00  0.00    +0.123 A 
ATOM      7  C   UNL     1      32.653  -9.126 -22.527  0.00  0.00    +0.129 C 
ATOM      8  C   UNL     1      32.982 -10.467 -22.701  0.00  0.00    +0.039 C 
ATOM      9  C   UNL     1      31.816 -10.802 -20.637  0.00  0.00    +0.196 A 
ATOM     10  C   UNL     1      31.517  -9.458 -20.514  0.00  0.00    +0.140 C 
ATOM     11  H   UNL     1      33.609  -8.587 -24.295  0.00  0.00    +0.148 HD
ENDROOT
BRANCH   6  14
ATOM     12 CL   UNL     1      33.352 -14.894 -26.009  0.00  0.00    -0.082 Cl
ATOM     13  C   UNL     1      34.678 -15.662 -22.314  0.00  0.00    -0.021 C 
ATOM     14  C   UNL     1      33.227 -13.735 -22.182  0.00  0.00    +0.021 C 
ATOM     15  C   UNL     1      34.062 -14.663 -21.560  0.00  0.00    -0.003 C 
ATOM     16  C   UNL     1      34.458 -15.733 -23.690  0.00  0.00    +0.007 C 
ATOM     17  C   UNL     1      33.007 -13.806 -23.558  0.00  0.00    +0.013 C 
ATOM     18  C   UNL     1      33.623 -14.805 -24.311  0.00  0.00    +0.057 C 
BRANCH  13  19
ATOM     19  C   UNL     1      35.572 -16.653 -21.649  0.00  0.00    +0.029 C 
BRANCH  19  20
ATOM     20  C   UNL     1      35.364 -18.075 -22.187  0.00  0.00    +0.036 C 
BRANCH  20  21
ATOM     21  C   UNL     1      35.711 -19.136 -21.152  0.00  0.00    +0.138 C 
BRANCH  21  22
ATOM     22  O   UNL     1      36.746 -18.639 -20.314  0.00  0.00    -0.382 OA
ATOM     23  H   UNL     1      36.419 -17.873 -19.817  0.00  0.00    +0.210 HD
ENDBRANCH  21  22
ENDBRANCH  20  21
ENDBRANCH  19  20
ENDBRANCH  13  19
ENDBRANCH   6  14
BRANCH   2  24
ATOM     24  C   UNL     1      32.831  -6.829 -23.488  0.00  0.00    +0.093 C 
ATOM     25  C   UNL     1      33.264  -6.273 -22.134  0.00  0.00    +0.026 C 
BRANCH  24  26
ATOM     26  C   UNL     1      33.497  -6.132 -24.654  0.00  0.00    -0.005 C 
ATOM     27  C   UNL     1      32.727  -5.661 -25.717  0.00  0.00    -0.003 C 
ATOM     28  C   UNL     1      34.881  -5.959 -24.665  0.00  0.00    -0.003 C 
ATOM     29  C   UNL     1      33.342  -5.018 -26.793  0.00  0.00    -0.000 C 
ATOM     30  C   UNL     1      35.495  -5.317 -25.740  0.00  0.00    -0.000 C 
ATOM     31  C   UNL     1      34.725  -4.846 -26.803  0.00  0.00    -0.000 C 
ENDBRANCH  24  26
ENDBRANCH   2  24
TORSDOF 7
ENDMDL
