MODEL 1
REMARK VINA RESULT:     -11.9      0.000      0.000
REMARK  Name = 42611257
REMARK  7 active torsions:
REMARK  status: ('A' for Active; 'I' for Inactive)
REMARK    1  A    between atoms: C_2  and  C_6
REMARK    2  A    between atoms: C_2  and  C_22
REMARK    3  A    between atoms: C_10  and  C_14
REMARK    4  A    between atoms: C_23  and  N_28
REMARK    5  A    between atoms: N_28  and  S_30
REMARK    6  A    between atoms: S_30  and  C_33
REMARK    7  A    between atoms: C_33  and  C_34
REMARK                            x       y       z     vdW  Elec       q    Type
REMARK                         _______ _______ _______ _____ _____    ______ ____
ROOT
ATOM      1  O   UNL     1      34.907 -13.346 -21.487  0.00  0.00    -0.286 OA
ATOM      2  C   UNL     1      33.974 -13.409 -22.316  0.00  0.00    +0.201 C 
ENDROOT
BRANCH   2   6
ATOM      3  N   UNL     1      33.687 -15.393 -25.315  0.00  0.00    -0.297 N 
ATOM      4  N   UNL     1      34.299 -17.664 -24.794  0.00  0.00    -0.229 NA
ATOM      5  C   UNL     1      34.278 -15.801 -23.200  0.00  0.00    +0.036 C 
ATOM      6  C   UNL     1      33.952 -14.425 -23.329  0.00  0.00    +0.056 C 
ATOM      7  C   UNL     1      34.103 -16.376 -24.456  0.00  0.00    +0.132 C 
ATOM      8  C   UNL     1      34.706 -16.641 -22.158  0.00  0.00    +0.004 C 
ATOM      9  C   UNL     1      33.592 -14.204 -24.640  0.00  0.00    +0.066 C 
ATOM     10  C   UNL     1      34.924 -17.985 -22.455  0.00  0.00    +0.019 C 
ATOM     11  C   UNL     1      34.710 -18.426 -23.755  0.00  0.00    +0.100 C 
ATOM     12  H   UNL     1      33.488 -15.522 -26.270  0.00  0.00    +0.154 HD
BRANCH  10  14
ATOM     13 CL   UNL     1      36.740 -21.757 -18.218  0.00  0.00    -0.082 Cl
ATOM     14  C   UNL     1      35.366 -18.901 -21.428  0.00  0.00    +0.002 C 
ATOM     15  C   UNL     1      36.679 -18.847 -20.963  0.00  0.00    +0.001 C 
ATOM     16  C   UNL     1      34.477 -19.838 -20.902  0.00  0.00    +0.001 C 
ATOM     17  C   UNL     1      37.104 -19.730 -19.970  0.00  0.00    +0.011 C 
ATOM     18  C   UNL     1      34.902 -20.721 -19.910  0.00  0.00    +0.011 C 
ATOM     19  C   UNL     1      36.215 -20.668 -19.443  0.00  0.00    +0.058 C 
ENDBRANCH  10  14
ENDBRANCH   2   6
BRANCH   2  22
ATOM     20  F   UNL     1      33.973 -11.008 -23.799  0.00  0.00    -0.203 F 
ATOM     21  F   UNL     1      31.778 -13.676 -20.547  0.00  0.00    -0.204 F 
ATOM     22  C   UNL     1      32.900 -12.365 -22.178  0.00  0.00    +0.095 C 
ATOM     23  C   UNL     1      31.965 -10.229 -22.814  0.00  0.00    +0.092 C 
ATOM     24  C   UNL     1      32.960 -11.199 -22.942  0.00  0.00    +0.160 C 
ATOM     25  C   UNL     1      31.845 -12.560 -21.286  0.00  0.00    +0.145 C 
ATOM     26  C   UNL     1      30.910 -10.426 -21.922  0.00  0.00    +0.020 C 
ATOM     27  C   UNL     1      30.850 -11.591 -21.159  0.00  0.00    +0.031 C 
BRANCH  23  28
ATOM     28  N   UNL     1      32.023  -9.035 -23.595  0.00  0.00    -0.217 N 
ATOM     29  H   UNL     1      31.968  -9.071 -24.577  0.00  0.00    +0.173 HD
BRANCH  28  30
ATOM     30  S   UNL     1      32.191  -7.533 -22.771  0.00  0.00    +0.054 S 
ATOM     31  O   UNL     1      30.943  -6.800 -22.894  0.00  0.00    -0.154 OA
ATOM     32  O   UNL     1      32.811  -7.719 -21.474  0.00  0.00    -0.154 OA
BRANCH  30  33
ATOM     33  C   UNL     1      33.369  -6.724 -23.829  0.00  0.00    +0.172 C 
BRANCH  33  34
ATOM     34  C   UNL     1      34.772  -6.791 -23.248  0.00  0.00    +0.027 C 
ATOM     35  C   UNL     1      35.447  -8.113 -23.572  0.00  0.00    +0.002 C 
ENDBRANCH  33  34
ENDBRANCH  30  33
ENDBRANCH  28  30
ENDBRANCH  23  28
ENDBRANCH   2  22
TORSDOF 7
ENDMDL
MODEL 2
REMARK VINA RESULT:     -11.5      4.020      6.873
REMARK  Name = 42611257
REMARK  7 active torsions:
REMARK  status: ('A' for Active; 'I' for Inactive)
REMARK    1  A    between atoms: C_2  and  C_6
REMARK    2  A    between atoms: C_2  and  C_22
REMARK    3  A    between atoms: C_10  and  C_14
REMARK    4  A    between atoms: C_23  and  N_28
REMARK    5  A    between atoms: N_28  and  S_30
REMARK    6  A    between atoms: S_30  and  C_33
REMARK    7  A    between atoms: C_33  and  C_34
REMARK                            x       y       z     vdW  Elec       q    Type
REMARK                         _______ _______ _______ _____ _____    ______ ____
ROOT
ATOM      1  O   UNL     1      36.524 -19.319 -20.270  0.00  0.00    -0.286 OA
ATOM      2  C   UNL     1      35.374 -19.249 -20.757  0.00  0.00    +0.201 C 
ENDROOT
BRANCH   2   6
ATOM      3  N   UNL     1      32.292 -20.993 -20.067  0.00  0.00    -0.297 N 
ATOM      4  N   UNL     1      32.652 -22.481 -18.209  0.00  0.00    -0.229 NA
ATOM      5  C   UNL     1      34.345 -21.001 -19.187  0.00  0.00    +0.036 C 
ATOM      6  C   UNL     1      34.310 -20.075 -20.263  0.00  0.00    +0.056 C 
ATOM      7  C   UNL     1      33.071 -21.555 -19.092  0.00  0.00    +0.132 C 
ATOM      8  C   UNL     1      35.312 -21.443 -18.269  0.00  0.00    +0.004 C 
ATOM      9  C   UNL     1      33.035 -20.091 -20.785  0.00  0.00    +0.066 C 
ATOM     10  C   UNL     1      34.930 -22.401 -17.332  0.00  0.00    +0.019 C 
ATOM     11  C   UNL     1      33.623 -22.870 -17.351  0.00  0.00    +0.100 C 
ATOM     12  H   UNL     1      31.344 -21.204 -20.229  0.00  0.00    +0.154 HD
BRANCH  10  14
ATOM     13 CL   UNL     1      38.836 -24.445 -13.327  0.00  0.00    -0.082 Cl
ATOM     14  C   UNL     1      35.879 -22.897 -16.362  0.00  0.00    +0.002 C 
ATOM     15  C   UNL     1      37.183 -22.404 -16.344  0.00  0.00    +0.001 C 
ATOM     16  C   UNL     1      35.489 -23.870 -15.441  0.00  0.00    +0.001 C 
ATOM     17  C   UNL     1      38.098 -22.882 -15.405  0.00  0.00    +0.011 C 
ATOM     18  C   UNL     1      36.403 -24.349 -14.503  0.00  0.00    +0.011 C 
ATOM     19  C   UNL     1      37.708 -23.855 -14.485  0.00  0.00    +0.058 C 
ENDBRANCH  10  14
ENDBRANCH   2   6
BRANCH   2  22
ATOM     20  F   UNL     1      35.218 -16.464 -20.325  0.00  0.00    -0.203 F 
ATOM     21  F   UNL     1      35.159 -20.012 -23.476  0.00  0.00    -0.204 F 
ATOM     22  C   UNL     1      35.192 -18.258 -21.875  0.00  0.00    +0.095 C 
ATOM     23  C   UNL     1      34.953 -15.975 -22.627  0.00  0.00    +0.092 C 
ATOM     24  C   UNL     1      35.122 -16.894 -21.592  0.00  0.00    +0.160 C 
ATOM     25  C   UNL     1      35.093 -18.703 -23.193  0.00  0.00    +0.145 C 
ATOM     26  C   UNL     1      34.854 -16.421 -23.946  0.00  0.00    +0.020 C 
ATOM     27  C   UNL     1      34.924 -17.784 -24.228  0.00  0.00    +0.031 C 
BRANCH  23  28
ATOM     28  N   UNL     1      34.881 -14.578 -22.341  0.00  0.00    -0.217 N 
ATOM     29  H   UNL     1      35.493 -14.163 -21.690  0.00  0.00    +0.173 HD
BRANCH  28  30
ATOM     30  S   UNL     1      33.697 -13.639 -23.167  0.00  0.00    +0.054 S 
ATOM     31  O   UNL     1      34.266 -12.335 -23.456  0.00  0.00    -0.154 OA
ATOM     32  O   UNL     1      33.058 -14.412 -24.212  0.00  0.00    -0.154 OA
BRANCH  30  33
ATOM     33  C   UNL     1      32.514 -13.407 -21.859  0.00  0.00    +0.172 C 
BRANCH  33  34
ATOM     34  C   UNL     1      33.168 -13.524 -20.493  0.00  0.00    +0.027 C 
ATOM     35  C   UNL     1      32.377 -14.439 -19.574  0.00  0.00    +0.002 C 
ENDBRANCH  33  34
ENDBRANCH  30  33
ENDBRANCH  28  30
ENDBRANCH  23  28
ENDBRANCH   2  22
TORSDOF 7
ENDMDL
MODEL 3
REMARK VINA RESULT:     -11.3      5.447     10.464
REMARK  Name = 42611257
REMARK  7 active torsions:
REMARK  status: ('A' for Active; 'I' for Inactive)
REMARK    1  A    between atoms: C_2  and  C_6
REMARK    2  A    between atoms: C_2  and  C_22
REMARK    3  A    between atoms: C_10  and  C_14
REMARK    4  A    between atoms: C_23  and  N_28
REMARK    5  A    between atoms: N_28  and  S_30
REMARK    6  A    between atoms: S_30  and  C_33
REMARK    7  A    between atoms: C_33  and  C_34
REMARK                            x       y       z     vdW  Elec       q    Type
REMARK                         _______ _______ _______ _____ _____    ______ ____
ROOT
ATOM      1  O   UNL     1      35.326 -16.690 -20.442  0.00  0.00    -0.286 OA
ATOM      2  C   UNL     1      35.208 -17.649 -21.235  0.00  0.00    +0.201 C 
ENDROOT
BRANCH   2   6
ATOM      3  N   UNL     1      34.515 -17.837 -24.770  0.00  0.00    -0.297 N 
ATOM      4  N   UNL     1      33.672 -15.703 -25.501  0.00  0.00    -0.229 NA
ATOM      5  C   UNL     1      34.338 -16.253 -23.207  0.00  0.00    +0.036 C 
ATOM      6  C   UNL     1      34.846 -17.435 -22.607  0.00  0.00    +0.056 C 
ATOM      7  C   UNL     1      34.142 -16.537 -24.555  0.00  0.00    +0.132 C 
ATOM      8  C   UNL     1      34.015 -14.959 -22.765  0.00  0.00    +0.004 C 
ATOM      9  C   UNL     1      34.945 -18.393 -23.593  0.00  0.00    +0.066 C 
ATOM     10  C   UNL     1      33.524 -14.055 -23.706  0.00  0.00    +0.019 C 
ATOM     11  C   UNL     1      33.378 -14.473 -25.022  0.00  0.00    +0.100 C 
ATOM     12  H   UNL     1      34.480 -18.302 -25.638  0.00  0.00    +0.154 HD
BRANCH  10  14
ATOM     13 CL   UNL     1      32.069  -8.507 -22.099  0.00  0.00    -0.082 Cl
ATOM     14  C   UNL     1      33.173 -12.709 -23.315  0.00  0.00    +0.002 C 
ATOM     15  C   UNL     1      33.763 -11.619 -23.956  0.00  0.00    +0.001 C 
ATOM     16  C   UNL     1      32.242 -12.499 -22.298  0.00  0.00    +0.001 C 
ATOM     17  C   UNL     1      33.422 -10.320 -23.580  0.00  0.00    +0.011 C 
ATOM     18  C   UNL     1      31.901 -11.200 -21.921  0.00  0.00    +0.011 C 
ATOM     19  C   UNL     1      32.490 -10.110 -22.562  0.00  0.00    +0.058 C 
ENDBRANCH  10  14
ENDBRANCH   2   6
BRANCH   2  22
ATOM     20  F   UNL     1      33.146 -19.325 -20.282  0.00  0.00    -0.203 F 
ATOM     21  F   UNL     1      37.802 -18.765 -21.009  0.00  0.00    -0.204 F 
ATOM     22  C   UNL     1      35.467 -19.015 -20.658  0.00  0.00    +0.095 C 
ATOM     23  C   UNL     1      34.640 -21.058 -19.669  0.00  0.00    +0.092 C 
ATOM     24  C   UNL     1      34.401 -19.793 -20.205  0.00  0.00    +0.160 C 
ATOM     25  C   UNL     1      36.771 -19.503 -20.576  0.00  0.00    +0.145 C 
ATOM     26  C   UNL     1      35.945 -21.547 -19.588  0.00  0.00    +0.020 C 
ATOM     27  C   UNL     1      37.009 -20.769 -20.041  0.00  0.00    +0.031 C 
BRANCH  23  28
ATOM     28  N   UNL     1      33.551 -21.857 -19.204  0.00  0.00    -0.217 N 
ATOM     29  H   UNL     1      32.652 -21.762 -19.593  0.00  0.00    +0.173 HD
BRANCH  28  30
ATOM     30  S   UNL     1      33.855 -22.991 -17.944  0.00  0.00    +0.054 S 
ATOM     31  O   UNL     1      33.784 -24.329 -18.505  0.00  0.00    -0.154 OA
ATOM     32  O   UNL     1      34.995 -22.587 -17.147  0.00  0.00    -0.154 OA
BRANCH  30  33
ATOM     33  C   UNL     1      32.392 -22.766 -16.959  0.00  0.00    +0.172 C 
BRANCH  33  34
ATOM     34  C   UNL     1      32.523 -23.450 -15.608  0.00  0.00    +0.027 C 
ATOM     35  C   UNL     1      31.706 -22.738 -14.543  0.00  0.00    +0.002 C 
ENDBRANCH  33  34
ENDBRANCH  30  33
ENDBRANCH  28  30
ENDBRANCH  23  28
ENDBRANCH   2  22
TORSDOF 7
ENDMDL
MODEL 4
REMARK VINA RESULT:     -11.0      4.684     10.006
REMARK  Name = 42611257
REMARK  7 active torsions:
REMARK  status: ('A' for Active; 'I' for Inactive)
REMARK    1  A    between atoms: C_2  and  C_6
REMARK    2  A    between atoms: C_2  and  C_22
REMARK    3  A    between atoms: C_10  and  C_14
REMARK    4  A    between atoms: C_23  and  N_28
REMARK    5  A    between atoms: N_28  and  S_30
REMARK    6  A    between atoms: S_30  and  C_33
REMARK    7  A    between atoms: C_33  and  C_34
REMARK                            x       y       z     vdW  Elec       q    Type
REMARK                         _______ _______ _______ _____ _____    ______ ____
ROOT
ATOM      1  O   UNL     1      34.140 -12.248 -24.010  0.00  0.00    -0.286 OA
ATOM      2  C   UNL     1      33.676 -13.144 -23.271  0.00  0.00    +0.201 C 
ENDROOT
BRANCH   2   6
ATOM      3  N   UNL     1      31.854 -13.068 -20.159  0.00  0.00    -0.297 N 
ATOM      4  N   UNL     1      31.172 -10.799 -19.724  0.00  0.00    -0.229 NA
ATOM      5  C   UNL     1      32.449 -11.545 -21.680  0.00  0.00    +0.036 C 
ATOM      6  C   UNL     1      32.929 -12.816 -22.091  0.00  0.00    +0.056 C 
ATOM      7  C   UNL     1      31.784 -11.737 -20.472  0.00  0.00    +0.132 C 
ATOM      8  C   UNL     1      32.498 -10.237 -22.191  0.00  0.00    +0.004 C 
ATOM      9  C   UNL     1      32.548 -13.734 -21.136  0.00  0.00    +0.066 C 
ATOM     10  C   UNL     1      31.879  -9.229 -21.455  0.00  0.00    +0.019 C 
ATOM     11  C   UNL     1      31.250  -9.561 -20.262  0.00  0.00    +0.100 C 
ATOM     12  H   UNL     1      31.466 -13.483 -19.355  0.00  0.00    +0.154 HD
BRANCH  10  14
ATOM     13 CL   UNL     1      31.938  -3.595 -23.390  0.00  0.00    -0.082 Cl
ATOM     14  C   UNL     1      31.894  -7.862 -21.926  0.00  0.00    +0.002 C 
ATOM     15  C   UNL     1      31.437  -7.560 -23.209  0.00  0.00    +0.001 C 
ATOM     16  C   UNL     1      32.365  -6.845 -21.096  0.00  0.00    +0.001 C 
ATOM     17  C   UNL     1      31.451  -6.241 -23.661  0.00  0.00    +0.011 C 
ATOM     18  C   UNL     1      32.379  -5.526 -21.548  0.00  0.00    +0.011 C 
ATOM     19  C   UNL     1      31.922  -5.223 -22.831  0.00  0.00    +0.058 C 
ENDBRANCH  10  14
ENDBRANCH   2   6
BRANCH   2  22
ATOM     20  F   UNL     1      35.492 -14.827 -21.917  0.00  0.00    -0.203 F 
ATOM     21  F   UNL     1      32.425 -14.353 -25.507  0.00  0.00    -0.204 F 
ATOM     22  C   UNL     1      33.953 -14.559 -23.701  0.00  0.00    +0.095 C 
ATOM     23  C   UNL     1      35.123 -16.650 -23.384  0.00  0.00    +0.092 C 
ATOM     24  C   UNL     1      34.864 -15.338 -22.986  0.00  0.00    +0.160 C 
ATOM     25  C   UNL     1      33.302 -15.092 -24.813  0.00  0.00    +0.145 C 
ATOM     26  C   UNL     1      34.469 -17.183 -24.496  0.00  0.00    +0.020 C 
ATOM     27  C   UNL     1      33.560 -16.404 -25.210  0.00  0.00    +0.031 C 
BRANCH  23  28
ATOM     28  N   UNL     1      36.053 -17.450 -22.654  0.00  0.00    -0.217 N 
ATOM     29  H   UNL     1      36.932 -17.679 -23.037  0.00  0.00    +0.173 HD
BRANCH  28  30
ATOM     30  S   UNL     1      35.598 -18.001 -21.088  0.00  0.00    +0.054 S 
ATOM     31  O   UNL     1      36.785 -18.496 -20.413  0.00  0.00    -0.154 OA
ATOM     32  O   UNL     1      34.725 -17.047 -20.435  0.00  0.00    -0.154 OA
BRANCH  30  33
ATOM     33  C   UNL     1      34.624 -19.423 -21.526  0.00  0.00    +0.172 C 
BRANCH  33  34
ATOM     34  C   UNL     1      34.461 -20.368 -20.347  0.00  0.00    +0.027 C 
ATOM     35  C   UNL     1      33.008 -20.473 -19.916  0.00  0.00    +0.002 C 
ENDBRANCH  33  34
ENDBRANCH  30  33
ENDBRANCH  28  30
ENDBRANCH  23  28
ENDBRANCH   2  22
TORSDOF 7
ENDMDL
MODEL 5
REMARK VINA RESULT:     -10.5      3.307      5.236
REMARK  Name = 42611257
REMARK  7 active torsions:
REMARK  status: ('A' for Active; 'I' for Inactive)
REMARK    1  A    between atoms: C_2  and  C_6
REMARK    2  A    between atoms: C_2  and  C_22
REMARK    3  A    between atoms: C_10  and  C_14
REMARK    4  A    between atoms: C_23  and  N_28
REMARK    5  A    between atoms: N_28  and  S_30
REMARK    6  A    between atoms: S_30  and  C_33
REMARK    7  A    between atoms: C_33  and  C_34
REMARK                            x       y       z     vdW  Elec       q    Type
REMARK                         _______ _______ _______ _____ _____    ______ ____
ROOT
ATOM      1  O   UNL     1      32.683 -10.438 -24.724  0.00  0.00    -0.286 OA
ATOM      2  C   UNL     1      32.657  -9.686 -23.725  0.00  0.00    +0.201 C 
ENDROOT
BRANCH   2   6
ATOM      3  N   UNL     1      31.195 -10.223 -20.472  0.00  0.00    -0.297 N 
ATOM      4  N   UNL     1      31.858 -12.400 -19.682  0.00  0.00    -0.229 NA
ATOM      5  C   UNL     1      32.508 -11.413 -21.830  0.00  0.00    +0.036 C 
ATOM      6  C   UNL     1      32.217 -10.168 -22.447  0.00  0.00    +0.056 C 
ATOM      7  C   UNL     1      31.856 -11.415 -20.601  0.00  0.00    +0.132 C 
ATOM      8  C   UNL     1      33.256 -12.554 -22.168  0.00  0.00    +0.004 C 
ATOM      9  C   UNL     1      31.407  -9.457 -21.588  0.00  0.00    +0.066 C 
ATOM     10  C   UNL     1      33.291 -13.603 -21.252  0.00  0.00    +0.019 C 
ATOM     11  C   UNL     1      32.591 -13.472 -20.059  0.00  0.00    +0.100 C 
ATOM     12  H   UNL     1      30.650  -9.958 -19.696  0.00  0.00    +0.154 HD
BRANCH  10  14
ATOM     13 CL   UNL     1      36.375 -18.557 -22.444  0.00  0.00    -0.082 Cl
ATOM     14  C   UNL     1      34.041 -14.804 -21.540  0.00  0.00    +0.002 C 
ATOM     15  C   UNL     1      34.524 -15.593 -20.496  0.00  0.00    +0.001 C 
ATOM     16  C   UNL     1      34.280 -15.175 -22.864  0.00  0.00    +0.001 C 
ATOM     17  C   UNL     1      35.246 -16.754 -20.776  0.00  0.00    +0.011 C 
ATOM     18  C   UNL     1      35.002 -16.335 -23.143  0.00  0.00    +0.011 C 
ATOM     19  C   UNL     1      35.485 -17.125 -22.099  0.00  0.00    +0.058 C 
ENDBRANCH  10  14
ENDBRANCH   2   6
BRANCH   2  22
ATOM     20  F   UNL     1      30.941  -7.669 -24.700  0.00  0.00    -0.203 F 
ATOM     21  F   UNL     1      35.304  -8.810 -23.223  0.00  0.00    -0.204 F 
ATOM     22  C   UNL     1      33.110  -8.270 -23.957  0.00  0.00    +0.095 C 
ATOM     23  C   UNL     1      32.629  -6.008 -24.656  0.00  0.00    +0.092 C 
ATOM     24  C   UNL     1      32.210  -7.321 -24.441  0.00  0.00    +0.160 C 
ATOM     25  C   UNL     1      34.430  -7.906 -23.689  0.00  0.00    +0.145 C 
ATOM     26  C   UNL     1      33.950  -5.644 -24.387  0.00  0.00    +0.020 C 
ATOM     27  C   UNL     1      34.849  -6.594 -23.903  0.00  0.00    +0.031 C 
BRANCH  23  28
ATOM     28  N   UNL     1      31.710  -5.034 -25.151  0.00  0.00    -0.217 N 
ATOM     29  H   UNL     1      31.451  -5.020 -26.101  0.00  0.00    +0.173 HD
BRANCH  28  30
ATOM     30  S   UNL     1      31.067  -3.885 -24.041  0.00  0.00    +0.054 S 
ATOM     31  O   UNL     1      32.137  -2.992 -23.634  0.00  0.00    -0.154 OA
ATOM     32  O   UNL     1      29.806  -3.355 -24.516  0.00  0.00    -0.154 OA
BRANCH  30  33
ATOM     33  C   UNL     1      30.726  -4.946 -22.655  0.00  0.00    +0.172 C 
BRANCH  33  34
ATOM     34  C   UNL     1      31.611  -4.607 -21.467  0.00  0.00    +0.027 C 
ATOM     35  C   UNL     1      32.364  -5.829 -20.968  0.00  0.00    +0.002 C 
ENDBRANCH  33  34
ENDBRANCH  30  33
ENDBRANCH  28  30
ENDBRANCH  23  28
ENDBRANCH   2  22
TORSDOF 7
ENDMDL
MODEL 6
REMARK VINA RESULT:     -10.0      5.564     10.592
REMARK  Name = 42611257
REMARK  7 active torsions:
REMARK  status: ('A' for Active; 'I' for Inactive)
REMARK    1  A    between atoms: C_2  and  C_6
REMARK    2  A    between atoms: C_2  and  C_22
REMARK    3  A    between atoms: C_10  and  C_14
REMARK    4  A    between atoms: C_23  and  N_28
REMARK    5  A    between atoms: N_28  and  S_30
REMARK    6  A    between atoms: S_30  and  C_33
REMARK    7  A    between atoms: C_33  and  C_34
REMARK                            x       y       z     vdW  Elec       q    Type
REMARK                         _______ _______ _______ _____ _____    ______ ____
ROOT
ATOM      1  O   UNL     1      36.261 -17.859 -20.541  0.00  0.00    -0.286 OA
ATOM      2  C   UNL     1      35.526 -18.707 -21.091  0.00  0.00    +0.201 C 
ENDROOT
BRANCH   2   6
ATOM      3  N   UNL     1      34.602 -19.013 -24.565  0.00  0.00    -0.297 N 
ATOM      4  N   UNL     1      33.792 -16.879 -25.335  0.00  0.00    -0.229 NA
ATOM      5  C   UNL     1      34.583 -17.359 -23.064  0.00  0.00    +0.036 C 
ATOM      6  C   UNL     1      35.085 -18.535 -22.446  0.00  0.00    +0.056 C 
ATOM      7  C   UNL     1      34.291 -17.691 -24.384  0.00  0.00    +0.132 C 
ATOM      8  C   UNL     1      34.337 -16.036 -22.660  0.00  0.00    +0.004 C 
ATOM      9  C   UNL     1      35.086 -19.536 -23.394  0.00  0.00    +0.066 C 
ATOM     10  C   UNL     1      33.820 -15.154 -23.607  0.00  0.00    +0.019 C 
ATOM     11  C   UNL     1      33.575 -15.620 -24.892  0.00  0.00    +0.100 C 
ATOM     12  H   UNL     1      34.494 -19.511 -25.407  0.00  0.00    +0.154 HD
BRANCH  10  14
ATOM     13 CL   UNL     1      32.689  -9.489 -22.154  0.00  0.00    -0.082 Cl
ATOM     14  C   UNL     1      33.544 -13.780 -23.255  0.00  0.00    +0.002 C 
ATOM     15  C   UNL     1      32.770 -13.488 -22.132  0.00  0.00    +0.001 C 
ATOM     16  C   UNL     1      34.054 -12.744 -24.038  0.00  0.00    +0.001 C 
ATOM     17  C   UNL     1      32.506 -12.162 -21.791  0.00  0.00    +0.011 C 
ATOM     18  C   UNL     1      33.789 -11.418 -23.698  0.00  0.00    +0.011 C 
ATOM     19  C   UNL     1      33.015 -11.126 -22.575  0.00  0.00    +0.058 C 
ENDBRANCH  10  14
ENDBRANCH   2   6
BRANCH   2  22
ATOM     20  F   UNL     1      37.377 -20.102 -19.482  0.00  0.00    -0.203 F 
ATOM     21  F   UNL     1      32.889 -19.736 -20.978  0.00  0.00    -0.204 F 
ATOM     22  C   UNL     1      35.143 -19.893 -20.248  0.00  0.00    +0.095 C 
ATOM     23  C   UNL     1      35.755 -21.638 -18.694  0.00  0.00    +0.092 C 
ATOM     24  C   UNL     1      36.109 -20.538 -19.475  0.00  0.00    +0.160 C 
ATOM     25  C   UNL     1      33.825 -20.348 -20.240  0.00  0.00    +0.145 C 
ATOM     26  C   UNL     1      34.436 -22.093 -18.685  0.00  0.00    +0.020 C 
ATOM     27  C   UNL     1      33.471 -21.447 -19.458  0.00  0.00    +0.031 C 
BRANCH  23  28
ATOM     28  N   UNL     1      36.741 -22.301 -17.901  0.00  0.00    -0.217 N 
ATOM     29  H   UNL     1      37.287 -23.029 -18.278  0.00  0.00    +0.173 HD
BRANCH  28  30
ATOM     30  S   UNL     1      36.949 -21.791 -16.270  0.00  0.00    +0.054 S 
ATOM     31  O   UNL     1      37.712 -20.556 -16.269  0.00  0.00    -0.154 OA
ATOM     32  O   UNL     1      35.705 -21.888 -15.534  0.00  0.00    -0.154 OA
BRANCH  30  33
ATOM     33  C   UNL     1      38.035 -23.068 -15.678  0.00  0.00    +0.172 C 
BRANCH  33  34
ATOM     34  C   UNL     1      37.540 -23.652 -14.365  0.00  0.00    +0.027 C 
ATOM     35  C   UNL     1      37.009 -25.064 -14.548  0.00  0.00    +0.002 C 
ENDBRANCH  33  34
ENDBRANCH  30  33
ENDBRANCH  28  30
ENDBRANCH  23  28
ENDBRANCH   2  22
TORSDOF 7
ENDMDL
MODEL 7
REMARK VINA RESULT:     -10.0      6.494     10.370
REMARK  Name = 42611257
REMARK  7 active torsions:
REMARK  status: ('A' for Active; 'I' for Inactive)
REMARK    1  A    between atoms: C_2  and  C_6
REMARK    2  A    between atoms: C_2  and  C_22
REMARK    3  A    between atoms: C_10  and  C_14
REMARK    4  A    between atoms: C_23  and  N_28
REMARK    5  A    between atoms: N_28  and  S_30
REMARK    6  A    between atoms: S_30  and  C_33
REMARK    7  A    between atoms: C_33  and  C_34
REMARK                            x       y       z     vdW  Elec       q    Type
REMARK                         _______ _______ _______ _____ _____    ______ ____
ROOT
ATOM      1  O   UNL     1      33.741 -23.785 -19.408  0.00  0.00    -0.286 OA
ATOM      2  C   UNL     1      33.963 -22.862 -18.595  0.00  0.00    +0.201 C 
ENDROOT
BRANCH   2   6
ATOM      3  N   UNL     1      32.127 -22.758 -15.492  0.00  0.00    -0.297 N 
ATOM      4  N   UNL     1      33.542 -23.600 -13.734  0.00  0.00    -0.229 NA
ATOM      5  C   UNL     1      34.179 -23.401 -16.093  0.00  0.00    +0.036 C 
ATOM      6  C   UNL     1      33.488 -22.936 -17.243  0.00  0.00    +0.056 C 
ATOM      7  C   UNL     1      33.303 -23.276 -15.019  0.00  0.00    +0.132 C 
ATOM      8  C   UNL     1      35.458 -23.918 -15.829  0.00  0.00    +0.004 C 
ATOM      9  C   UNL     1      32.228 -22.547 -16.842  0.00  0.00    +0.066 C 
ATOM     10  C   UNL     1      35.758 -24.269 -14.514  0.00  0.00    +0.019 C 
ATOM     11  C   UNL     1      34.786 -24.092 -13.537  0.00  0.00    +0.100 C 
ATOM     12  H   UNL     1      31.331 -22.566 -14.945  0.00  0.00    +0.154 HD
BRANCH  10  14
ATOM     13 CL   UNL     1      41.106 -26.494 -13.127  0.00  0.00    -0.082 Cl
ATOM     14  C   UNL     1      37.055 -24.808 -14.176  0.00  0.00    +0.002 C 
ATOM     15  C   UNL     1      37.189 -25.683 -13.098  0.00  0.00    +0.001 C 
ATOM     16  C   UNL     1      38.174 -24.454 -14.929  0.00  0.00    +0.001 C 
ATOM     17  C   UNL     1      38.441 -26.205 -12.774  0.00  0.00    +0.011 C 
ATOM     18  C   UNL     1      39.427 -24.975 -14.605  0.00  0.00    +0.011 C 
ATOM     19  C   UNL     1      39.561 -25.850 -13.527  0.00  0.00    +0.058 C 
ENDBRANCH  10  14
ENDBRANCH   2   6
BRANCH   2  22
ATOM     20  F   UNL     1      32.855 -20.946 -20.346  0.00  0.00    -0.203 F 
ATOM     21  F   UNL     1      36.675 -22.388 -17.929  0.00  0.00    -0.204 F 
ATOM     22  C   UNL     1      34.746 -21.692 -19.126  0.00  0.00    +0.095 C 
ATOM     23  C   UNL     1      34.862 -19.696 -20.484  0.00  0.00    +0.092 C 
ATOM     24  C   UNL     1      34.137 -20.781 -19.990  0.00  0.00    +0.160 C 
ATOM     25  C   UNL     1      36.080 -21.519 -18.757  0.00  0.00    +0.145 C 
ATOM     26  C   UNL     1      36.197 -19.523 -20.113  0.00  0.00    +0.020 C 
ATOM     27  C   UNL     1      36.805 -20.434 -19.251  0.00  0.00    +0.031 C 
BRANCH  23  28
ATOM     28  N   UNL     1      34.242 -18.762 -21.367  0.00  0.00    -0.217 N 
ATOM     29  H   UNL     1      33.318 -18.457 -21.214  0.00  0.00    +0.173 HD
BRANCH  28  30
ATOM     30  S   UNL     1      35.155 -18.181 -22.707  0.00  0.00    +0.054 S 
ATOM     31  O   UNL     1      36.531 -18.616 -22.548  0.00  0.00    -0.154 OA
ATOM     32  O   UNL     1      34.450 -18.409 -23.952  0.00  0.00    -0.154 OA
BRANCH  30  33
ATOM     33  C   UNL     1      35.124 -16.435 -22.374  0.00  0.00    +0.172 C 
BRANCH  33  34
ATOM     34  C   UNL     1      34.962 -16.157 -20.889  0.00  0.00    +0.027 C 
ATOM     35  C   UNL     1      34.523 -14.724 -20.636  0.00  0.00    +0.002 C 
ENDBRANCH  33  34
ENDBRANCH  30  33
ENDBRANCH  28  30
ENDBRANCH  23  28
ENDBRANCH   2  22
TORSDOF 7
ENDMDL
MODEL 8
REMARK VINA RESULT:      -9.9      9.543     12.651
REMARK  Name = 42611257
REMARK  7 active torsions:
REMARK  status: ('A' for Active; 'I' for Inactive)
REMARK    1  A    between atoms: C_2  and  C_6
REMARK    2  A    between atoms: C_2  and  C_22
REMARK    3  A    between atoms: C_10  and  C_14
REMARK    4  A    between atoms: C_23  and  N_28
REMARK    5  A    between atoms: N_28  and  S_30
REMARK    6  A    between atoms: S_30  and  C_33
REMARK    7  A    between atoms: C_33  and  C_34
REMARK                            x       y       z     vdW  Elec       q    Type
REMARK                         _______ _______ _______ _____ _____    ______ ____
ROOT
ATOM      1  O   UNL     1      34.768 -25.530 -15.590  0.00  0.00    -0.286 OA
ATOM      2  C   UNL     1      34.653 -24.340 -15.225  0.00  0.00    +0.201 C 
ENDROOT
BRANCH   2   6
ATOM      3  N   UNL     1      37.654 -22.456 -14.544  0.00  0.00    -0.297 N 
ATOM      4  N   UNL     1      38.016 -20.909 -16.354  0.00  0.00    -0.229 NA
ATOM      5  C   UNL     1      36.148 -22.489 -16.193  0.00  0.00    +0.036 C 
ATOM      6  C   UNL     1      35.784 -23.456 -15.219  0.00  0.00    +0.056 C 
ATOM      7  C   UNL     1      37.318 -21.884 -15.742  0.00  0.00    +0.132 C 
ATOM      8  C   UNL     1      35.622 -22.047 -17.418  0.00  0.00    +0.004 C 
ATOM      9  C   UNL     1      36.728 -23.413 -14.216  0.00  0.00    +0.066 C 
ATOM     10  C   UNL     1      36.306 -21.037 -18.092  0.00  0.00    +0.019 C 
ATOM     11  C   UNL     1      37.465 -20.522 -17.527  0.00  0.00    +0.100 C 
ATOM     12  H   UNL     1      38.440 -22.218 -14.002  0.00  0.00    +0.154 HD
BRANCH  10  14
ATOM     13 CL   UNL     1      34.293 -18.977 -23.306  0.00  0.00    -0.082 Cl
ATOM     14  C   UNL     1      35.817 -20.539 -19.358  0.00  0.00    +0.002 C 
ATOM     15  C   UNL     1      34.492 -20.763 -19.732  0.00  0.00    +0.001 C 
ATOM     16  C   UNL     1      36.671 -19.832 -20.205  0.00  0.00    +0.001 C 
ATOM     17  C   UNL     1      34.021 -20.280 -20.953  0.00  0.00    +0.011 C 
ATOM     18  C   UNL     1      36.200 -19.349 -21.425  0.00  0.00    +0.011 C 
ATOM     19  C   UNL     1      34.875 -19.573 -21.800  0.00  0.00    +0.058 C 
ENDBRANCH  10  14
ENDBRANCH   2   6
BRANCH   2  22
ATOM     20  F   UNL     1      32.629 -23.649 -17.067  0.00  0.00    -0.203 F 
ATOM     21  F   UNL     1      33.860 -24.154 -12.512  0.00  0.00    -0.204 F 
ATOM     22  C   UNL     1      33.275 -23.911 -14.801  0.00  0.00    +0.095 C 
ATOM     23  C   UNL     1      31.042 -23.184 -15.371  0.00  0.00    +0.092 C 
ATOM     24  C   UNL     1      32.320 -23.583 -15.763  0.00  0.00    +0.160 C 
ATOM     25  C   UNL     1      32.951 -23.841 -13.445  0.00  0.00    +0.145 C 
ATOM     26  C   UNL     1      30.719 -23.115 -14.015  0.00  0.00    +0.020 C 
ATOM     27  C   UNL     1      31.673 -23.444 -13.053  0.00  0.00    +0.031 C 
BRANCH  23  28
ATOM     28  N   UNL     1      30.063 -22.848 -16.354  0.00  0.00    -0.217 N 
ATOM     29  H   UNL     1      30.277 -22.230 -17.091  0.00  0.00    +0.173 HD
BRANCH  28  30
ATOM     30  S   UNL     1      28.498 -23.553 -16.216  0.00  0.00    +0.054 S 
ATOM     31  O   UNL     1      27.919 -23.649 -17.544  0.00  0.00    -0.154 OA
ATOM     32  O   UNL     1      28.524 -24.706 -15.339  0.00  0.00    -0.154 OA
BRANCH  30  33
ATOM     33  C   UNL     1      27.638 -22.245 -15.373  0.00  0.00    +0.172 C 
BRANCH  33  34
ATOM     34  C   UNL     1      26.193 -22.144 -15.834  0.00  0.00    +0.027 C 
ATOM     35  C   UNL     1      26.059 -21.248 -17.054  0.00  0.00    +0.002 C 
ENDBRANCH  33  34
ENDBRANCH  30  33
ENDBRANCH  28  30
ENDBRANCH  23  28
ENDBRANCH   2  22
TORSDOF 7
ENDMDL
MODEL 9
REMARK VINA RESULT:      -9.9      4.467     10.150
REMARK  Name = 42611257
REMARK  7 active torsions:
REMARK  status: ('A' for Active; 'I' for Inactive)
REMARK    1  A    between atoms: C_2  and  C_6
REMARK    2  A    between atoms: C_2  and  C_22
REMARK    3  A    between atoms: C_10  and  C_14
REMARK    4  A    between atoms: C_23  and  N_28
REMARK    5  A    between atoms: N_28  and  S_30
REMARK    6  A    between atoms: S_30  and  C_33
REMARK    7  A    between atoms: C_33  and  C_34
REMARK                            x       y       z     vdW  Elec       q    Type
REMARK                         _______ _______ _______ _____ _____    ______ ____
ROOT
ATOM      1  O   UNL     1      30.092 -11.581 -21.253  0.00  0.00    -0.286 OA
ATOM      2  C   UNL     1      31.305 -11.299 -21.140  0.00  0.00    +0.201 C 
ENDROOT
BRANCH   2   6
ATOM      3  N   UNL     1      32.145  -9.068 -18.432  0.00  0.00    -0.297 N 
ATOM      4  N   UNL     1      33.141  -7.080 -19.357  0.00  0.00    -0.229 NA
ATOM      5  C   UNL     1      32.342  -9.000 -20.656  0.00  0.00    +0.036 C 
ATOM      6  C   UNL     1      31.740 -10.232 -20.286  0.00  0.00    +0.056 C 
ATOM      7  C   UNL     1      32.582  -8.299 -19.478  0.00  0.00    +0.132 C 
ATOM      8  C   UNL     1      32.718  -8.386 -21.862  0.00  0.00    +0.004 C 
ATOM      9  C   UNL     1      31.631 -10.245 -18.912  0.00  0.00    +0.066 C 
ATOM     10  C   UNL     1      33.302  -7.122 -21.794  0.00  0.00    +0.019 C 
ATOM     11  C   UNL     1      33.483  -6.536 -20.548  0.00  0.00    +0.100 C 
ATOM     12  H   UNL     1      32.193  -8.815 -17.482  0.00  0.00    +0.154 HD
BRANCH  10  14
ATOM     13 CL   UNL     1      34.986  -4.302 -26.762  0.00  0.00    -0.082 Cl
ATOM     14  C   UNL     1      33.712  -6.437 -22.998  0.00  0.00    +0.002 C 
ATOM     15  C   UNL     1      34.970  -6.684 -23.548  0.00  0.00    +0.001 C 
ATOM     16  C   UNL     1      32.848  -5.530 -23.612  0.00  0.00    +0.001 C 
ATOM     17  C   UNL     1      35.364  -6.024 -24.712  0.00  0.00    +0.011 C 
ATOM     18  C   UNL     1      33.242  -4.870 -24.775  0.00  0.00    +0.011 C 
ATOM     19  C   UNL     1      34.500  -5.116 -25.326  0.00  0.00    +0.058 C 
ENDBRANCH  10  14
ENDBRANCH   2   6
BRANCH   2  22
ATOM     20  F   UNL     1      32.287 -13.789 -20.244  0.00  0.00    -0.203 F 
ATOM     21  F   UNL     1      32.263 -10.528 -23.692  0.00  0.00    -0.204 F 
ATOM     22  C   UNL     1      32.254 -12.141 -21.949  0.00  0.00    +0.095 C 
ATOM     23  C   UNL     1      33.582 -14.144 -22.196  0.00  0.00    +0.092 C 
ATOM     24  C   UNL     1      32.702 -13.363 -21.447  0.00  0.00    +0.160 C 
ATOM     25  C   UNL     1      32.687 -11.700 -23.200  0.00  0.00    +0.145 C 
ATOM     26  C   UNL     1      34.014 -13.703 -23.447  0.00  0.00    +0.020 C 
ATOM     27  C   UNL     1      33.566 -12.482 -23.949  0.00  0.00    +0.031 C 
BRANCH  23  28
ATOM     28  N   UNL     1      34.042 -15.396 -21.685  0.00  0.00    -0.217 N 
ATOM     29  H   UNL     1      33.821 -15.680 -20.768  0.00  0.00    +0.173 HD
BRANCH  28  30
ATOM     30  S   UNL     1      34.993 -16.395 -22.716  0.00  0.00    +0.054 S 
ATOM     31  O   UNL     1      34.100 -17.114 -23.607  0.00  0.00    -0.154 OA
ATOM     32  O   UNL     1      36.128 -15.664 -23.243  0.00  0.00    -0.154 OA
BRANCH  30  33
ATOM     33  C   UNL     1      35.603 -17.575 -21.535  0.00  0.00    +0.172 C 
BRANCH  33  34
ATOM     34  C   UNL     1      35.281 -18.999 -21.956  0.00  0.00    +0.027 C 
ATOM     35  C   UNL     1      34.558 -19.755 -20.855  0.00  0.00    +0.002 C 
ENDBRANCH  33  34
ENDBRANCH  30  33
ENDBRANCH  28  30
ENDBRANCH  23  28
ENDBRANCH   2  22
TORSDOF 7
ENDMDL
