MODEL 1
REMARK VINA RESULT:     -11.5      0.000      0.000
REMARK  Name = 447734
REMARK  5 active torsions:
REMARK  status: ('A' for Active; 'I' for Inactive)
REMARK    1  A    between atoms: C_3  and  C_19
REMARK    2  A    between atoms: C_9  and  C_13
REMARK    3  A    between atoms: N_18  and  C_24
REMARK    4  A    between atoms: C_21  and  O_27
REMARK    5  A    between atoms: O_27  and  C_28
REMARK                            x       y       z     vdW  Elec       q    Type
REMARK                         _______ _______ _______ _____ _____    ______ ____
ROOT
ATOM      1  C   UNL     1      31.674  -8.917 -22.260  0.00  0.00    +0.000 C 
ATOM      2  C   UNL     1      31.634  -8.419 -20.936  0.00  0.00    +0.000 C 
ATOM      3  C   UNL     1      32.134 -11.144 -21.396  0.00  0.00    +0.054 C 
ATOM      4  C   UNL     1      31.926 -10.282 -22.473  0.00  0.00    +0.005 C 
ATOM      5  C   UNL     1      31.846  -9.301 -19.864  0.00  0.00    +0.000 C 
ATOM      6  C   UNL     1      32.094 -10.654 -20.094  0.00  0.00    +0.005 C 
ATOM      7  C   UNL     1      31.383  -7.053 -20.723  0.00  0.00    +0.003 C 
ATOM      8  C   UNL     1      31.462  -8.035 -23.332  0.00  0.00    +0.000 C 
ATOM      9  C   UNL     1      31.174  -6.191 -21.800  0.00  0.00    +0.031 C 
ATOM     10  C   UNL     1      31.213  -6.682 -23.102  0.00  0.00    +0.003 C 
ENDROOT
BRANCH   9  13
ATOM     11  N   UNL     1      29.614  -4.286 -21.479  0.00  0.00    -0.343 N 
ATOM     12  N   UNL     1      31.925  -3.940 -21.428  0.00  0.00    -0.285 NA
ATOM     13  C   UNL     1      30.915  -4.780 -21.563  0.00  0.00    +0.117 C 
ATOM     14  H   UNL     1      29.462  -3.327 -21.317  0.00  0.00    +0.144 HD
ATOM     15  H   UNL     1      28.848  -4.897 -21.581  0.00  0.00    +0.144 HD
ATOM     16  H   UNL     1      31.752  -2.984 -21.266  0.00  0.00    +0.188 HD
ENDBRANCH   9  13
BRANCH   3  19
ATOM     17  O   UNL     1      31.765 -13.403 -20.979  0.00  0.00    -0.270 OA
ATOM     18  N   UNL     1      33.341 -12.845 -22.626  0.00  0.00    -0.280 N 
ATOM     19  C   UNL     1      32.394 -12.555 -21.633  0.00  0.00    +0.249 C 
ATOM     20  H   UNL     1      33.758 -12.066 -23.059  0.00  0.00    +0.155 HD
BRANCH  18  24
ATOM     21  C   UNL     1      34.897 -16.191 -22.675  0.00  0.00    +0.140 C 
ATOM     22  C   UNL     1      34.467 -14.945 -22.222  0.00  0.00    +0.052 C 
ATOM     23  C   UNL     1      34.629 -16.586 -23.986  0.00  0.00    +0.037 C 
ATOM     24  C   UNL     1      33.776 -14.111 -23.086  0.00  0.00    +0.054 C 
ATOM     25  C   UNL     1      33.933 -15.734 -24.843  0.00  0.00    +0.004 C 
ATOM     26  C   UNL     1      33.503 -14.488 -24.390  0.00  0.00    +0.015 C 
BRANCH  21  27
ATOM     27  O   UNL     1      35.576 -17.022 -21.839  0.00  0.00    -0.479 OA
BRANCH  27  28
ATOM     28  C   UNL     1      36.008 -18.267 -22.376  0.00  0.00    +0.166 C 
ATOM     29  C   UNL     1      34.981 -19.341 -22.050  0.00  0.00    +0.044 C 
ATOM     30  C   UNL     1      37.254 -18.752 -21.651  0.00  0.00    +0.044 C 
ATOM     31  C   UNL     1      35.276 -19.726 -20.600  0.00  0.00    +0.004 C 
ATOM     32  C   UNL     1      36.726 -19.319 -20.335  0.00  0.00    +0.004 C 
ENDBRANCH  27  28
ENDBRANCH  21  27
ENDBRANCH  18  24
ENDBRANCH   3  19
TORSDOF 5
ENDMDL
MODEL 2
REMARK VINA RESULT:     -11.3      7.929     12.203
REMARK  Name = 447734
REMARK  5 active torsions:
REMARK  status: ('A' for Active; 'I' for Inactive)
REMARK    1  A    between atoms: C_3  and  C_19
REMARK    2  A    between atoms: C_9  and  C_13
REMARK    3  A    between atoms: N_18  and  C_24
REMARK    4  A    between atoms: C_21  and  O_27
REMARK    5  A    between atoms: O_27  and  C_28
REMARK                            x       y       z     vdW  Elec       q    Type
REMARK                         _______ _______ _______ _____ _____    ______ ____
ROOT
ATOM      1  C   UNL     1      35.208 -20.339 -20.080  0.00  0.00    +0.000 C 
ATOM      2  C   UNL     1      33.994 -19.921 -20.673  0.00  0.00    +0.000 C 
ATOM      3  C   UNL     1      33.974 -21.903 -18.684  0.00  0.00    +0.054 C 
ATOM      4  C   UNL     1      35.181 -21.331 -19.086  0.00  0.00    +0.005 C 
ATOM      5  C   UNL     1      32.788 -20.507 -20.257  0.00  0.00    +0.000 C 
ATOM      6  C   UNL     1      32.779 -21.492 -19.269  0.00  0.00    +0.005 C 
ATOM      7  C   UNL     1      34.021 -18.928 -21.667  0.00  0.00    +0.003 C 
ATOM      8  C   UNL     1      36.414 -19.753 -20.497  0.00  0.00    +0.000 C 
ATOM      9  C   UNL     1      35.228 -18.357 -22.070  0.00  0.00    +0.031 C 
ATOM     10  C   UNL     1      36.423 -18.769 -21.486  0.00  0.00    +0.003 C 
ENDROOT
BRANCH   9  13
ATOM     11  N   UNL     1      34.689 -17.562 -24.360  0.00  0.00    -0.343 N 
ATOM     12  N   UNL     1      35.784 -16.154 -22.851  0.00  0.00    -0.285 NA
ATOM     13  C   UNL     1      35.239 -17.331 -23.100  0.00  0.00    +0.117 C 
ATOM     14  H   UNL     1      34.707 -16.853 -25.042  0.00  0.00    +0.144 HD
ATOM     15  H   UNL     1      34.282 -18.434 -24.566  0.00  0.00    +0.144 HD
ATOM     16  H   UNL     1      35.792 -15.457 -23.546  0.00  0.00    +0.188 HD
ENDBRANCH   9  13
BRANCH   3  19
ATOM     17  O   UNL     1      33.863 -24.121 -17.989  0.00  0.00    -0.270 OA
ATOM     18  N   UNL     1      34.094 -22.472 -16.334  0.00  0.00    -0.280 N 
ATOM     19  C   UNL     1      33.963 -22.929 -17.653  0.00  0.00    +0.249 C 
ATOM     20  H   UNL     1      34.163 -21.497 -16.224  0.00  0.00    +0.155 HD
BRANCH  18  24
ATOM     21  C   UNL     1      35.408 -24.222 -13.362  0.00  0.00    +0.140 C 
ATOM     22  C   UNL     1      35.363 -23.473 -14.537  0.00  0.00    +0.052 C 
ATOM     23  C   UNL     1      34.228 -24.718 -12.806  0.00  0.00    +0.037 C 
ATOM     24  C   UNL     1      34.139 -23.232 -15.139  0.00  0.00    +0.054 C 
ATOM     25  C   UNL     1      33.005 -24.466 -13.425  0.00  0.00    +0.004 C 
ATOM     26  C   UNL     1      32.960 -23.717 -14.601  0.00  0.00    +0.015 C 
BRANCH  21  27
ATOM     27  O   UNL     1      36.601 -24.469 -12.757  0.00  0.00    -0.479 OA
BRANCH  27  28
ATOM     28  C   UNL     1      36.975 -25.831 -12.595  0.00  0.00    +0.166 C 
ATOM     29  C   UNL     1      38.376 -25.905 -12.007  0.00  0.00    +0.044 C 
ATOM     30  C   UNL     1      37.135 -26.501 -13.950  0.00  0.00    +0.044 C 
ATOM     31  C   UNL     1      39.304 -25.667 -13.199  0.00  0.00    +0.004 C 
ATOM     32  C   UNL     1      38.497 -26.020 -14.448  0.00  0.00    +0.004 C 
ENDBRANCH  27  28
ENDBRANCH  21  27
ENDBRANCH  18  24
ENDBRANCH   3  19
TORSDOF 5
ENDMDL
MODEL 3
REMARK VINA RESULT:     -11.2      5.835     12.471
REMARK  Name = 447734
REMARK  5 active torsions:
REMARK  status: ('A' for Active; 'I' for Inactive)
REMARK    1  A    between atoms: C_3  and  C_19
REMARK    2  A    between atoms: C_9  and  C_13
REMARK    3  A    between atoms: N_18  and  C_24
REMARK    4  A    between atoms: C_21  and  O_27
REMARK    5  A    between atoms: O_27  and  C_28
REMARK                            x       y       z     vdW  Elec       q    Type
REMARK                         _______ _______ _______ _____ _____    ______ ____
ROOT
ATOM      1  C   UNL     1      34.611 -22.493 -17.216  0.00  0.00    +0.000 C 
ATOM      2  C   UNL     1      35.986 -22.381 -16.900  0.00  0.00    +0.000 C 
ATOM      3  C   UNL     1      34.950 -21.051 -19.147  0.00  0.00    +0.054 C 
ATOM      4  C   UNL     1      34.109 -21.821 -18.343  0.00  0.00    +0.005 C 
ATOM      5  C   UNL     1      36.818 -21.601 -17.720  0.00  0.00    +0.000 C 
ATOM      6  C   UNL     1      36.302 -20.941 -18.835  0.00  0.00    +0.005 C 
ATOM      7  C   UNL     1      36.489 -23.052 -15.773  0.00  0.00    +0.003 C 
ATOM      8  C   UNL     1      33.779 -23.272 -16.396  0.00  0.00    +0.000 C 
ATOM      9  C   UNL     1      35.648 -23.823 -14.970  0.00  0.00    +0.031 C 
ATOM     10  C   UNL     1      34.296 -23.933 -15.281  0.00  0.00    +0.003 C 
ENDROOT
BRANCH   9  13
ATOM     11  N   UNL     1      35.345 -25.039 -12.827  0.00  0.00    -0.343 N 
ATOM     12  N   UNL     1      37.491 -24.642 -13.663  0.00  0.00    -0.285 NA
ATOM     13  C   UNL     1      36.184 -24.512 -13.807  0.00  0.00    +0.117 C 
ATOM     14  H   UNL     1      35.730 -25.502 -12.047  0.00  0.00    +0.144 HD
ATOM     15  H   UNL     1      34.369 -24.950 -12.914  0.00  0.00    +0.144 HD
ATOM     16  H   UNL     1      37.856 -25.108 -12.877  0.00  0.00    +0.188 HD
ENDBRANCH   9  13
BRANCH   3  19
ATOM     17  O   UNL     1      33.227 -20.546 -20.626  0.00  0.00    -0.270 OA
ATOM     18  N   UNL     1      35.301 -19.505 -20.976  0.00  0.00    -0.280 N 
ATOM     19  C   UNL     1      34.414 -20.362 -20.309  0.00  0.00    +0.249 C 
ATOM     20  H   UNL     1      36.213 -19.463 -20.607  0.00  0.00    +0.155 HD
BRANCH  18  24
ATOM     21  C   UNL     1      34.917 -16.518 -23.109  0.00  0.00    +0.140 C 
ATOM     22  C   UNL     1      35.158 -17.317 -21.993  0.00  0.00    +0.052 C 
ATOM     23  C   UNL     1      34.579 -17.107 -24.328  0.00  0.00    +0.037 C 
ATOM     24  C   UNL     1      35.058 -18.694 -22.111  0.00  0.00    +0.054 C 
ATOM     25  C   UNL     1      34.482 -18.495 -24.429  0.00  0.00    +0.004 C 
ATOM     26  C   UNL     1      34.723 -19.294 -23.313  0.00  0.00    +0.015 C 
BRANCH  21  27
ATOM     27  O   UNL     1      35.011 -15.165 -23.011  0.00  0.00    -0.479 OA
BRANCH  27  28
ATOM     28  C   UNL     1      33.873 -14.471 -22.514  0.00  0.00    +0.166 C 
ATOM     29  C   UNL     1      32.902 -14.209 -23.656  0.00  0.00    +0.044 C 
ATOM     30  C   UNL     1      34.261 -13.072 -22.064  0.00  0.00    +0.044 C 
ATOM     31  C   UNL     1      33.480 -12.990 -24.377  0.00  0.00    +0.004 C 
ATOM     32  C   UNL     1      34.376 -12.278 -23.364  0.00  0.00    +0.004 C 
ENDBRANCH  27  28
ENDBRANCH  21  27
ENDBRANCH  18  24
ENDBRANCH   3  19
TORSDOF 5
ENDMDL
MODEL 4
REMARK VINA RESULT:     -10.9      4.863     11.909
REMARK  Name = 447734
REMARK  5 active torsions:
REMARK  status: ('A' for Active; 'I' for Inactive)
REMARK    1  A    between atoms: C_3  and  C_19
REMARK    2  A    between atoms: C_9  and  C_13
REMARK    3  A    between atoms: N_18  and  C_24
REMARK    4  A    between atoms: C_21  and  O_27
REMARK    5  A    between atoms: O_27  and  C_28
REMARK                            x       y       z     vdW  Elec       q    Type
REMARK                         _______ _______ _______ _____ _____    ______ ____
ROOT
ATOM      1  C   UNL     1      34.462 -21.717 -18.467  0.00  0.00    +0.000 C 
ATOM      2  C   UNL     1      35.744 -21.777 -17.871  0.00  0.00    +0.000 C 
ATOM      3  C   UNL     1      35.327 -20.181 -20.143  0.00  0.00    +0.054 C 
ATOM      4  C   UNL     1      34.271 -20.914 -19.603  0.00  0.00    +0.005 C 
ATOM      5  C   UNL     1      36.797 -21.033 -18.427  0.00  0.00    +0.000 C 
ATOM      6  C   UNL     1      36.588 -20.241 -19.556  0.00  0.00    +0.005 C 
ATOM      7  C   UNL     1      35.935 -22.581 -16.734  0.00  0.00    +0.003 C 
ATOM      8  C   UNL     1      33.410 -22.462 -17.910  0.00  0.00    +0.000 C 
ATOM      9  C   UNL     1      34.879 -23.315 -16.194  0.00  0.00    +0.031 C 
ATOM     10  C   UNL     1      33.618 -23.256 -16.782  0.00  0.00    +0.003 C 
ENDROOT
BRANCH   9  13
ATOM     11  N   UNL     1      34.695 -23.718 -13.752  0.00  0.00    -0.343 N 
ATOM     12  N   UNL     1      35.684 -25.318 -15.138  0.00  0.00    -0.285 NA
ATOM     13  C   UNL     1      35.094 -24.142 -15.018  0.00  0.00    +0.117 C 
ATOM     14  H   UNL     1      34.849 -24.295 -12.968  0.00  0.00    +0.144 HD
ATOM     15  H   UNL     1      34.256 -22.843 -13.640  0.00  0.00    +0.144 HD
ATOM     16  H   UNL     1      35.830 -25.879 -14.343  0.00  0.00    +0.188 HD
ENDBRANCH   9  13
BRANCH   3  19
ATOM     17  O   UNL     1      34.921 -19.903 -22.417  0.00  0.00    -0.270 OA
ATOM     18  N   UNL     1      35.116 -17.969 -21.102  0.00  0.00    -0.280 N 
ATOM     19  C   UNL     1      35.112 -19.354 -21.319  0.00  0.00    +0.249 C 
ATOM     20  H   UNL     1      35.282 -17.682 -20.176  0.00  0.00    +0.155 HD
BRANCH  18  24
ATOM     21  C   UNL     1      34.231 -14.682 -22.528  0.00  0.00    +0.140 C 
ATOM     22  C   UNL     1      34.433 -15.705 -21.603  0.00  0.00    +0.052 C 
ATOM     23  C   UNL     1      34.509 -14.897 -23.878  0.00  0.00    +0.037 C 
ATOM     24  C   UNL     1      34.911 -16.928 -22.041  0.00  0.00    +0.054 C 
ATOM     25  C   UNL     1      34.990 -16.135 -24.302  0.00  0.00    +0.004 C 
ATOM     26  C   UNL     1      35.192 -17.159 -23.377  0.00  0.00    +0.015 C 
BRANCH  21  27
ATOM     27  O   UNL     1      33.761 -13.473 -22.115  0.00  0.00    -0.479 OA
BRANCH  27  28
ATOM     28  C   UNL     1      32.352 -13.335 -21.988  0.00  0.00    +0.166 C 
ATOM     29  C   UNL     1      31.960 -11.888 -22.245  0.00  0.00    +0.044 C 
ATOM     30  C   UNL     1      31.926 -13.555 -20.545  0.00  0.00    +0.044 C 
ATOM     31  C   UNL     1      32.269 -11.169 -20.932  0.00  0.00    +0.004 C 
ATOM     32  C   UNL     1      32.278 -12.244 -19.846  0.00  0.00    +0.004 C 
ENDBRANCH  27  28
ENDBRANCH  21  27
ENDBRANCH  18  24
ENDBRANCH   3  19
TORSDOF 5
ENDMDL
MODEL 5
REMARK VINA RESULT:     -10.7      0.696      1.504
REMARK  Name = 447734
REMARK  5 active torsions:
REMARK  status: ('A' for Active; 'I' for Inactive)
REMARK    1  A    between atoms: C_3  and  C_19
REMARK    2  A    between atoms: C_9  and  C_13
REMARK    3  A    between atoms: N_18  and  C_24
REMARK    4  A    between atoms: C_21  and  O_27
REMARK    5  A    between atoms: O_27  and  C_28
REMARK                            x       y       z     vdW  Elec       q    Type
REMARK                         _______ _______ _______ _____ _____    ______ ____
ROOT
ATOM      1  C   UNL     1      31.987  -9.064 -21.352  0.00  0.00    +0.000 C 
ATOM      2  C   UNL     1      31.980  -8.387 -22.595  0.00  0.00    +0.000 C 
ATOM      3  C   UNL     1      32.424 -11.159 -22.508  0.00  0.00    +0.054 C 
ATOM      4  C   UNL     1      32.210 -10.450 -21.326  0.00  0.00    +0.005 C 
ATOM      5  C   UNL     1      32.197  -9.116 -23.775  0.00  0.00    +0.000 C 
ATOM      6  C   UNL     1      32.417 -10.493 -23.731  0.00  0.00    +0.005 C 
ATOM      7  C   UNL     1      31.756  -7.000 -22.621  0.00  0.00    +0.003 C 
ATOM      8  C   UNL     1      31.770  -8.334 -20.172  0.00  0.00    +0.000 C 
ATOM      9  C   UNL     1      31.543  -6.291 -21.439  0.00  0.00    +0.031 C 
ATOM     10  C   UNL     1      31.550  -6.957 -20.216  0.00  0.00    +0.003 C 
ENDROOT
BRANCH   9  13
ATOM     11  N   UNL     1      30.042  -4.333 -21.717  0.00  0.00    -0.343 N 
ATOM     12  N   UNL     1      32.321  -4.022 -21.305  0.00  0.00    -0.285 NA
ATOM     13  C   UNL     1      31.312  -4.856 -21.483  0.00  0.00    +0.117 C 
ATOM     14  H   UNL     1      29.909  -3.357 -21.742  0.00  0.00    +0.144 HD
ATOM     15  H   UNL     1      29.278  -4.938 -21.855  0.00  0.00    +0.144 HD
ATOM     16  H   UNL     1      32.168  -3.050 -21.334  0.00  0.00    +0.188 HD
ENDBRANCH   9  13
BRANCH   3  19
ATOM     17  O   UNL     1      32.106 -13.266 -21.574  0.00  0.00    -0.270 OA
ATOM     18  N   UNL     1      33.477 -13.113 -23.473  0.00  0.00    -0.280 N 
ATOM     19  C   UNL     1      32.654 -12.594 -22.464  0.00  0.00    +0.249 C 
ATOM     20  H   UNL     1      33.840 -12.456 -24.109  0.00  0.00    +0.155 HD
BRANCH  18  24
ATOM     21  C   UNL     1      34.980 -16.445 -22.960  0.00  0.00    +0.140 C 
ATOM     22  C   UNL     1      34.607 -15.120 -22.740  0.00  0.00    +0.052 C 
ATOM     23  C   UNL     1      34.594 -17.091 -24.135  0.00  0.00    +0.037 C 
ATOM     24  C   UNL     1      33.854 -14.460 -23.697  0.00  0.00    +0.054 C 
ATOM     25  C   UNL     1      33.837 -16.412 -25.089  0.00  0.00    +0.004 C 
ATOM     26  C   UNL     1      33.464 -15.087 -24.868  0.00  0.00    +0.015 C 
BRANCH  21  27
ATOM     27  O   UNL     1      35.720 -17.108 -22.031  0.00  0.00    -0.479 OA
BRANCH  27  28
ATOM     28  C   UNL     1      36.199 -18.400 -22.386  0.00  0.00    +0.166 C 
ATOM     29  C   UNL     1      35.123 -19.435 -22.098  0.00  0.00    +0.044 C 
ATOM     30  C   UNL     1      37.333 -18.816 -21.463  0.00  0.00    +0.044 C 
ATOM     31  C   UNL     1      35.222 -19.681 -20.592  0.00  0.00    +0.004 C 
ATOM     32  C   UNL     1      36.631 -19.254 -20.180  0.00  0.00    +0.004 C 
ENDBRANCH  27  28
ENDBRANCH  21  27
ENDBRANCH  18  24
ENDBRANCH   3  19
TORSDOF 5
ENDMDL
MODEL 6
REMARK VINA RESULT:     -10.5      6.026     12.753
REMARK  Name = 447734
REMARK  5 active torsions:
REMARK  status: ('A' for Active; 'I' for Inactive)
REMARK    1  A    between atoms: C_3  and  C_19
REMARK    2  A    between atoms: C_9  and  C_13
REMARK    3  A    between atoms: N_18  and  C_24
REMARK    4  A    between atoms: C_21  and  O_27
REMARK    5  A    between atoms: O_27  and  C_28
REMARK                            x       y       z     vdW  Elec       q    Type
REMARK                         _______ _______ _______ _____ _____    ______ ____
ROOT
ATOM      1  C   UNL     1      36.031 -22.317 -16.809  0.00  0.00    +0.000 C 
ATOM      2  C   UNL     1      35.072 -23.166 -16.208  0.00  0.00    +0.000 C 
ATOM      3  C   UNL     1      34.390 -21.670 -18.484  0.00  0.00    +0.054 C 
ATOM      4  C   UNL     1      35.674 -21.576 -17.947  0.00  0.00    +0.005 C 
ATOM      5  C   UNL     1      33.785 -23.250 -16.761  0.00  0.00    +0.000 C 
ATOM      6  C   UNL     1      33.447 -22.506 -17.892  0.00  0.00    +0.005 C 
ATOM      7  C   UNL     1      35.430 -23.908 -15.069  0.00  0.00    +0.003 C 
ATOM      8  C   UNL     1      37.319 -22.235 -16.255  0.00  0.00    +0.000 C 
ATOM      9  C   UNL     1      36.714 -23.813 -14.531  0.00  0.00    +0.031 C 
ATOM     10  C   UNL     1      37.657 -22.978 -15.123  0.00  0.00    +0.003 C 
ENDROOT
BRANCH   9  13
ATOM     11  N   UNL     1      36.235 -25.596 -12.871  0.00  0.00    -0.343 N 
ATOM     12  N   UNL     1      38.195 -24.334 -12.713  0.00  0.00    -0.285 NA
ATOM     13  C   UNL     1      37.068 -24.587 -13.352  0.00  0.00    +0.117 C 
ATOM     14  H   UNL     1      36.495 -26.109 -12.071  0.00  0.00    +0.144 HD
ATOM     15  H   UNL     1      35.388 -25.797 -13.332  0.00  0.00    +0.144 HD
ATOM     16  H   UNL     1      38.437 -24.858 -11.915  0.00  0.00    +0.188 HD
ENDBRANCH   9  13
BRANCH   3  19
ATOM     17  O   UNL     1      32.895 -21.012 -20.141  0.00  0.00    -0.270 OA
ATOM     18  N   UNL     1      35.035 -20.047 -20.160  0.00  0.00    -0.280 N 
ATOM     19  C   UNL     1      34.036 -20.897 -19.664  0.00  0.00    +0.249 C 
ATOM     20  H   UNL     1      35.891 -20.065 -19.676  0.00  0.00    +0.155 HD
BRANCH  18  24
ATOM     21  C   UNL     1      34.925 -16.932 -22.137  0.00  0.00    +0.140 C 
ATOM     22  C   UNL     1      34.989 -17.799 -21.047  0.00  0.00    +0.052 C 
ATOM     23  C   UNL     1      34.845 -17.445 -23.432  0.00  0.00    +0.037 C 
ATOM     24  C   UNL     1      34.971 -19.166 -21.268  0.00  0.00    +0.054 C 
ATOM     25  C   UNL     1      34.828 -18.824 -23.636  0.00  0.00    +0.004 C 
ATOM     26  C   UNL     1      34.892 -19.691 -22.546  0.00  0.00    +0.015 C 
BRANCH  21  27
ATOM     27  O   UNL     1      34.941 -15.586 -21.938  0.00  0.00    -0.479 OA
BRANCH  27  28
ATOM     28  C   UNL     1      34.616 -15.120 -20.634  0.00  0.00    +0.166 C 
ATOM     29  C   UNL     1      33.106 -15.136 -20.453  0.00  0.00    +0.044 C 
ATOM     30  C   UNL     1      34.963 -13.646 -20.496  0.00  0.00    +0.044 C 
ATOM     31  C   UNL     1      32.622 -13.868 -21.157  0.00  0.00    +0.004 C 
ATOM     32  C   UNL     1      33.823 -12.925 -21.212  0.00  0.00    +0.004 C 
ENDBRANCH  27  28
ENDBRANCH  21  27
ENDBRANCH  18  24
ENDBRANCH   3  19
TORSDOF 5
ENDMDL
MODEL 7
REMARK VINA RESULT:     -10.4      1.375      1.775
REMARK  Name = 447734
REMARK  5 active torsions:
REMARK  status: ('A' for Active; 'I' for Inactive)
REMARK    1  A    between atoms: C_3  and  C_19
REMARK    2  A    between atoms: C_9  and  C_13
REMARK    3  A    between atoms: N_18  and  C_24
REMARK    4  A    between atoms: C_21  and  O_27
REMARK    5  A    between atoms: O_27  and  C_28
REMARK                            x       y       z     vdW  Elec       q    Type
REMARK                         _______ _______ _______ _____ _____    ______ ____
ROOT
ATOM      1  C   UNL     1      31.855  -8.455 -22.909  0.00  0.00    +0.000 C 
ATOM      2  C   UNL     1      33.101  -7.824 -23.139  0.00  0.00    +0.000 C 
ATOM      3  C   UNL     1      32.939 -10.627 -23.066  0.00  0.00    +0.054 C 
ATOM      4  C   UNL     1      31.792  -9.857 -22.876  0.00  0.00    +0.005 C 
ATOM      5  C   UNL     1      34.246  -8.614 -23.329  0.00  0.00    +0.000 C 
ATOM      6  C   UNL     1      34.164 -10.006 -23.293  0.00  0.00    +0.005 C 
ATOM      7  C   UNL     1      33.164  -6.421 -23.172  0.00  0.00    +0.003 C 
ATOM      8  C   UNL     1      30.710  -7.664 -22.718  0.00  0.00    +0.000 C 
ATOM      9  C   UNL     1      32.017  -5.651 -22.980  0.00  0.00    +0.031 C 
ATOM     10  C   UNL     1      30.792  -6.272 -22.754  0.00  0.00    +0.003 C 
ENDROOT
BRANCH   9  13
ATOM     11  N   UNL     1      32.385  -3.521 -24.200  0.00  0.00    -0.343 N 
ATOM     12  N   UNL     1      31.908  -3.501 -21.913  0.00  0.00    -0.285 NA
ATOM     13  C   UNL     1      32.100  -4.200 -23.017  0.00  0.00    +0.117 C 
ATOM     14  H   UNL     1      32.436  -2.537 -24.203  0.00  0.00    +0.144 HD
ATOM     15  H   UNL     1      32.534  -4.024 -25.034  0.00  0.00    +0.144 HD
ATOM     16  H   UNL     1      31.963  -2.518 -21.936  0.00  0.00    +0.188 HD
ENDBRANCH   9  13
BRANCH   3  19
ATOM     17  O   UNL     1      31.924 -12.614 -22.408  0.00  0.00    -0.270 OA
ATOM     18  N   UNL     1      33.850 -12.766 -23.741  0.00  0.00    -0.280 N 
ATOM     19  C   UNL     1      32.856 -12.078 -23.030  0.00  0.00    +0.249 C 
ATOM     20  H   UNL     1      34.525 -12.204 -24.185  0.00  0.00    +0.155 HD
BRANCH  18  24
ATOM     21  C   UNL     1      34.838 -16.262 -23.090  0.00  0.00    +0.140 C 
ATOM     22  C   UNL     1      34.680 -14.886 -22.930  0.00  0.00    +0.052 C 
ATOM     23  C   UNL     1      34.325 -16.895 -24.222  0.00  0.00    +0.037 C 
ATOM     24  C   UNL     1      34.010 -14.164 -23.903  0.00  0.00    +0.054 C 
ATOM     25  C   UNL     1      33.653 -16.153 -25.193  0.00  0.00    +0.004 C 
ATOM     26  C   UNL     1      33.495 -14.777 -25.033  0.00  0.00    +0.015 C 
BRANCH  21  27
ATOM     27  O   UNL     1      35.494 -16.987 -22.144  0.00  0.00    -0.479 OA
BRANCH  27  28
ATOM     28  C   UNL     1      35.979 -18.267 -22.530  0.00  0.00    +0.166 C 
ATOM     29  C   UNL     1      34.945 -19.326 -22.181  0.00  0.00    +0.044 C 
ATOM     30  C   UNL     1      37.175 -18.659 -21.677  0.00  0.00    +0.044 C 
ATOM     31  C   UNL     1      35.139 -19.571 -20.684  0.00  0.00    +0.004 C 
ATOM     32  C   UNL     1      36.560 -19.114 -20.356  0.00  0.00    +0.004 C 
ENDBRANCH  27  28
ENDBRANCH  21  27
ENDBRANCH  18  24
ENDBRANCH   3  19
TORSDOF 5
ENDMDL
MODEL 8
REMARK VINA RESULT:     -10.4      5.486     12.386
REMARK  Name = 447734
REMARK  5 active torsions:
REMARK  status: ('A' for Active; 'I' for Inactive)
REMARK    1  A    between atoms: C_3  and  C_19
REMARK    2  A    between atoms: C_9  and  C_13
REMARK    3  A    between atoms: N_18  and  C_24
REMARK    4  A    between atoms: C_21  and  O_27
REMARK    5  A    between atoms: O_27  and  C_28
REMARK                            x       y       z     vdW  Elec       q    Type
REMARK                         _______ _______ _______ _____ _____    ______ ____
ROOT
ATOM      1  C   UNL     1      36.398 -21.817 -17.151  0.00  0.00    +0.000 C 
ATOM      2  C   UNL     1      35.155 -22.490 -17.090  0.00  0.00    +0.000 C 
ATOM      3  C   UNL     1      35.718 -20.775 -19.241  0.00  0.00    +0.054 C 
ATOM      4  C   UNL     1      36.664 -20.963 -18.233  0.00  0.00    +0.005 C 
ATOM      5  C   UNL     1      34.214 -22.290 -18.114  0.00  0.00    +0.000 C 
ATOM      6  C   UNL     1      34.496 -21.438 -19.182  0.00  0.00    +0.005 C 
ATOM      7  C   UNL     1      34.888 -23.345 -16.007  0.00  0.00    +0.003 C 
ATOM      8  C   UNL     1      37.338 -22.018 -16.127  0.00  0.00    +0.000 C 
ATOM      9  C   UNL     1      35.833 -23.532 -14.998  0.00  0.00    +0.031 C 
ATOM     10  C   UNL     1      37.056 -22.869 -15.058  0.00  0.00    +0.003 C 
ENDROOT
BRANCH   9  13
ATOM     11  N   UNL     1      34.958 -23.943 -12.712  0.00  0.00    -0.343 N 
ATOM     12  N   UNL     1      35.837 -25.704 -13.972  0.00  0.00    -0.285 NA
ATOM     13  C   UNL     1      35.542 -24.420 -13.884  0.00  0.00    +0.117 C 
ATOM     14  H   UNL     1      34.769 -24.563 -11.969  0.00  0.00    +0.144 HD
ATOM     15  H   UNL     1      34.734 -22.988 -12.626  0.00  0.00    +0.144 HD
ATOM     16  H   UNL     1      35.641 -26.307 -13.219  0.00  0.00    +0.188 HD
ENDBRANCH   9  13
BRANCH   3  19
ATOM     17  O   UNL     1      37.178 -19.803 -20.770  0.00  0.00    -0.270 OA
ATOM     18  N   UNL     1      34.912 -19.205 -20.898  0.00  0.00    -0.280 N 
ATOM     19  C   UNL     1      36.010 -19.888 -20.356  0.00  0.00    +0.249 C 
ATOM     20  H   UNL     1      34.046 -19.374 -20.462  0.00  0.00    +0.155 HD
BRANCH  18  24
ATOM     21  C   UNL     1      34.924 -16.055 -22.821  0.00  0.00    +0.140 C 
ATOM     22  C   UNL     1      34.951 -16.942 -21.746  0.00  0.00    +0.052 C 
ATOM     23  C   UNL     1      34.834 -16.542 -24.125  0.00  0.00    +0.037 C 
ATOM     24  C   UNL     1      34.886 -18.304 -21.990  0.00  0.00    +0.054 C 
ATOM     25  C   UNL     1      34.769 -17.917 -24.353  0.00  0.00    +0.004 C 
ATOM     26  C   UNL     1      34.796 -18.804 -23.278  0.00  0.00    +0.015 C 
BRANCH  21  27
ATOM     27  O   UNL     1      34.986 -14.714 -22.599  0.00  0.00    -0.479 OA
BRANCH  27  28
ATOM     28  C   UNL     1      34.334 -13.871 -23.541  0.00  0.00    +0.166 C 
ATOM     29  C   UNL     1      34.342 -12.439 -23.029  0.00  0.00    +0.044 C 
ATOM     30  C   UNL     1      32.852 -14.203 -23.612  0.00  0.00    +0.044 C 
ATOM     31  C   UNL     1      33.200 -12.390 -22.014  0.00  0.00    +0.004 C 
ATOM     32  C   UNL     1      32.260 -13.541 -22.370  0.00  0.00    +0.004 C 
ENDBRANCH  27  28
ENDBRANCH  21  27
ENDBRANCH  18  24
ENDBRANCH   3  19
TORSDOF 5
ENDMDL
MODEL 9
REMARK VINA RESULT:     -10.3      3.094     10.218
REMARK  Name = 447734
REMARK  5 active torsions:
REMARK  status: ('A' for Active; 'I' for Inactive)
REMARK    1  A    between atoms: C_3  and  C_19
REMARK    2  A    between atoms: C_9  and  C_13
REMARK    3  A    between atoms: N_18  and  C_24
REMARK    4  A    between atoms: C_21  and  O_27
REMARK    5  A    between atoms: O_27  and  C_28
REMARK                            x       y       z     vdW  Elec       q    Type
REMARK                         _______ _______ _______ _____ _____    ______ ____
ROOT
ATOM      1  C   UNL     1      33.815 -14.230 -22.294  0.00  0.00    +0.000 C 
ATOM      2  C   UNL     1      33.794 -14.762 -20.983  0.00  0.00    +0.000 C 
ATOM      3  C   UNL     1      32.487 -12.338 -21.535  0.00  0.00    +0.054 C 
ATOM      4  C   UNL     1      33.156 -13.017 -22.554  0.00  0.00    +0.005 C 
ATOM      5  C   UNL     1      33.116 -14.066 -19.970  0.00  0.00    +0.000 C 
ATOM      6  C   UNL     1      32.467 -12.862 -20.246  0.00  0.00    +0.005 C 
ATOM      7  C   UNL     1      34.453 -15.976 -20.724  0.00  0.00    +0.003 C 
ATOM      8  C   UNL     1      34.493 -14.927 -23.308  0.00  0.00    +0.000 C 
ATOM      9  C   UNL     1      35.122 -16.654 -21.743  0.00  0.00    +0.031 C 
ATOM     10  C   UNL     1      35.142 -16.131 -23.032  0.00  0.00    +0.003 C 
ENDROOT
BRANCH   9  13
ATOM     11  N   UNL     1      37.023 -18.223 -22.046  0.00  0.00    -0.343 N 
ATOM     12  N   UNL     1      35.250 -18.780 -20.630  0.00  0.00    -0.285 NA
ATOM     13  C   UNL     1      35.799 -17.909 -21.458  0.00  0.00    +0.117 C 
ATOM     14  H   UNL     1      37.464 -19.078 -21.838  0.00  0.00    +0.144 HD
ATOM     15  H   UNL     1      37.447 -17.588 -22.668  0.00  0.00    +0.144 HD
ATOM     16  H   UNL     1      35.706 -19.631 -20.435  0.00  0.00    +0.188 HD
ENDBRANCH   9  13
BRANCH   3  19
ATOM     17  O   UNL     1      30.604 -11.103 -22.120  0.00  0.00    -0.270 OA
ATOM     18  N   UNL     1      32.592  -9.926 -21.705  0.00  0.00    -0.280 N 
ATOM     19  C   UNL     1      31.809 -11.084 -21.820  0.00  0.00    +0.249 C 
ATOM     20  H   UNL     1      33.534 -10.069 -21.460  0.00  0.00    +0.155 HD
BRANCH  18  24
ATOM     21  C   UNL     1      31.813  -6.722 -23.364  0.00  0.00    +0.140 C 
ATOM     22  C   UNL     1      32.194  -8.050 -23.177  0.00  0.00    +0.052 C 
ATOM     23  C   UNL     1      31.446  -5.941 -22.268  0.00  0.00    +0.037 C 
ATOM     24  C   UNL     1      32.203  -8.577 -21.896  0.00  0.00    +0.054 C 
ATOM     25  C   UNL     1      31.461  -6.487 -20.985  0.00  0.00    +0.004 C 
ATOM     26  C   UNL     1      31.842  -7.815 -20.798  0.00  0.00    +0.015 C 
BRANCH  21  27
ATOM     27  O   UNL     1      31.798  -6.188 -24.615  0.00  0.00    -0.479 OA
BRANCH  27  28
ATOM     28  C   UNL     1      32.534  -4.988 -24.816  0.00  0.00    +0.166 C 
ATOM     29  C   UNL     1      32.339  -4.508 -26.246  0.00  0.00    +0.044 C 
ATOM     30  C   UNL     1      34.028  -5.266 -24.747  0.00  0.00    +0.044 C 
ATOM     31  C   UNL     1      33.291  -5.373 -27.073  0.00  0.00    +0.004 C 
ATOM     32  C   UNL     1      34.357  -5.884 -26.104  0.00  0.00    +0.004 C 
ENDBRANCH  27  28
ENDBRANCH  21  27
ENDBRANCH  18  24
ENDBRANCH   3  19
TORSDOF 5
ENDMDL
