MODEL 1
REMARK VINA RESULT:     -12.2      0.000      0.000
REMARK  Name = 24941249
REMARK  6 active torsions:
REMARK  status: ('A' for Active; 'I' for Inactive)
REMARK    1  A    between atoms: N_1  and  C_13
REMARK    2  A    between atoms: N_2  and  C_26
REMARK    3  A    between atoms: C_14  and  C_19
REMARK    4  A    between atoms: C_19  and  C_20
REMARK    5  A    between atoms: C_20  and  C_23
REMARK    6  A    between atoms: C_26  and  C_28
REMARK                            x       y       z     vdW  Elec       q    Type
REMARK                         _______ _______ _______ _____ _____    ______ ____
ROOT
ATOM      1  N   UNL     1      34.083 -24.193 -13.401  0.00  0.00    -0.230 N 
ATOM      2  N   UNL     1      34.728 -22.260 -17.842  0.00  0.00    -0.316 N 
ATOM      3  N   UNL     1      33.010 -24.670 -12.745  0.00  0.00    -0.169 NA
ATOM      4  N   UNL     1      32.621 -23.004 -17.023  0.00  0.00    -0.229 NA
ATOM      5  C   UNL     1      33.810 -23.734 -14.660  0.00  0.00    +0.088 A 
ATOM      6  C   UNL     1      32.446 -23.930 -14.835  0.00  0.00    +0.052 A 
ATOM      7  C   UNL     1      32.016 -24.507 -13.621  0.00  0.00    +0.082 A 
ATOM      8  C   UNL     1      34.622 -23.176 -15.641  0.00  0.00    +0.053 C 
ATOM      9  C   UNL     1      33.948 -22.835 -16.803  0.00  0.00    +0.130 C 
ATOM     10  C   UNL     1      31.861 -23.552 -16.043  0.00  0.00    +0.103 C 
ATOM     11  C   UNL     1      30.651 -24.923 -13.255  0.00  0.00    +0.054 C 
ATOM     12  H   UNL     1      35.692 -22.131 -17.693  0.00  0.00    +0.148 HD
ENDROOT
BRANCH   1  13
ATOM     13  C   UNL     1      35.331 -24.204 -12.778  0.00  0.00    +0.082 C 
ATOM     14  C   UNL     1      37.514 -25.198 -12.483  0.00  0.00    -0.020 C 
ATOM     15  C   UNL     1      36.265 -25.187 -13.106  0.00  0.00    +0.015 C 
ATOM     16  C   UNL     1      35.646 -23.232 -11.829  0.00  0.00    +0.019 C 
ATOM     17  C   UNL     1      37.828 -24.225 -11.534  0.00  0.00    -0.004 C 
ATOM     18  C   UNL     1      36.894 -23.242 -11.207  0.00  0.00    +0.001 C 
BRANCH  14  19
ATOM     19  C   UNL     1      38.512 -26.249 -12.832  0.00  0.00    +0.036 C 
BRANCH  19  20
ATOM     20  C   UNL     1      38.921 -26.195 -14.308  0.00  0.00    +0.089 C 
BRANCH  20  23
ATOM     21  O   UNL     1      41.022 -24.982 -14.282  0.00  0.00    -0.275 OA
ATOM     22  N   UNL     1      39.207 -24.036 -15.331  0.00  0.00    -0.329 N 
ATOM     23  C   UNL     1      39.844 -25.032 -14.621  0.00  0.00    +0.220 C 
ATOM     24  H   UNL     1      39.703 -23.227 -15.594  0.00  0.00    +0.145 HD
ATOM     25  H   UNL     1      38.259 -24.134 -15.574  0.00  0.00    +0.145 HD
ENDBRANCH  20  23
ENDBRANCH  19  20
ENDBRANCH  14  19
ENDBRANCH   1  13
BRANCH   2  26
ATOM     26  C   UNL     1      34.169 -21.862 -19.091  0.00  0.00    +0.093 C 
ATOM     27  C   UNL     1      32.725 -21.409 -18.879  0.00  0.00    +0.026 C 
BRANCH  26  28
ATOM     28  C   UNL     1      35.033 -20.801 -19.737  0.00  0.00    -0.005 C 
ATOM     29  C   UNL     1      34.483 -19.930 -20.677  0.00  0.00    -0.003 C 
ATOM     30  C   UNL     1      36.380 -20.694 -19.391  0.00  0.00    -0.003 C 
ATOM     31  C   UNL     1      35.280 -18.953 -21.273  0.00  0.00    -0.000 C 
ATOM     32  C   UNL     1      37.177 -19.716 -19.987  0.00  0.00    -0.000 C 
ATOM     33  C   UNL     1      36.627 -18.845 -20.927  0.00  0.00    -0.000 C 
ENDBRANCH  26  28
ENDBRANCH   2  26
TORSDOF 6
ENDMDL
MODEL 2
REMARK VINA RESULT:     -12.0      7.775     13.092
REMARK  Name = 24941249
REMARK  6 active torsions:
REMARK  status: ('A' for Active; 'I' for Inactive)
REMARK    1  A    between atoms: N_1  and  C_13
REMARK    2  A    between atoms: N_2  and  C_26
REMARK    3  A    between atoms: C_14  and  C_19
REMARK    4  A    between atoms: C_19  and  C_20
REMARK    5  A    between atoms: C_20  and  C_23
REMARK    6  A    between atoms: C_26  and  C_28
REMARK                            x       y       z     vdW  Elec       q    Type
REMARK                         _______ _______ _______ _____ _____    ______ ____
ROOT
ATOM      1  N   UNL     1      33.207 -13.827 -22.868  0.00  0.00    -0.230 N 
ATOM      2  N   UNL     1      35.386 -17.741 -20.916  0.00  0.00    -0.316 N 
ATOM      3  N   UNL     1      32.953 -13.441 -24.131  0.00  0.00    -0.169 NA
ATOM      4  N   UNL     1      35.124 -17.411 -23.258  0.00  0.00    -0.229 NA
ATOM      5  C   UNL     1      33.857 -15.027 -22.769  0.00  0.00    +0.088 A 
ATOM      6  C   UNL     1      34.040 -15.454 -24.078  0.00  0.00    +0.052 A 
ATOM      7  C   UNL     1      33.462 -14.435 -24.864  0.00  0.00    +0.082 A 
ATOM      8  C   UNL     1      34.291 -15.759 -21.670  0.00  0.00    +0.053 C 
ATOM      9  C   UNL     1      34.921 -16.950 -22.000  0.00  0.00    +0.130 C 
ATOM     10  C   UNL     1      34.686 -16.669 -24.305  0.00  0.00    +0.103 C 
ATOM     11  C   UNL     1      33.374 -14.371 -26.333  0.00  0.00    +0.054 C 
ATOM     12  H   UNL     1      35.245 -17.415 -19.998  0.00  0.00    +0.148 HD
ENDROOT
BRANCH   1  13
ATOM     13  C   UNL     1      32.806 -13.015 -21.807  0.00  0.00    +0.082 C 
ATOM     14  C   UNL     1      32.000 -10.890 -20.986  0.00  0.00    -0.020 C 
ATOM     15  C   UNL     1      32.401 -11.702 -22.048  0.00  0.00    +0.015 C 
ATOM     16  C   UNL     1      32.810 -13.516 -20.505  0.00  0.00    +0.019 C 
ATOM     17  C   UNL     1      32.004 -11.391 -19.685  0.00  0.00    -0.004 C 
ATOM     18  C   UNL     1      32.408 -12.704 -19.444  0.00  0.00    +0.001 C 
BRANCH  14  19
ATOM     19  C   UNL     1      31.569  -9.486 -21.243  0.00  0.00    +0.036 C 
BRANCH  19  20
ATOM     20  C   UNL     1      31.903  -8.552 -20.074  0.00  0.00    +0.089 C 
BRANCH  20  23
ATOM     21  O   UNL     1      33.518  -7.436 -21.499  0.00  0.00    -0.275 OA
ATOM     22  N   UNL     1      33.559  -7.020 -19.237  0.00  0.00    -0.329 N 
ATOM     23  C   UNL     1      33.066  -7.626 -20.374  0.00  0.00    +0.220 C 
ATOM     24  H   UNL     1      34.316  -6.395 -19.303  0.00  0.00    +0.145 HD
ATOM     25  H   UNL     1      33.153  -7.214 -18.362  0.00  0.00    +0.145 HD
ENDBRANCH  20  23
ENDBRANCH  19  20
ENDBRANCH  14  19
ENDBRANCH   1  13
BRANCH   2  26
ATOM     26  C   UNL     1      36.049 -18.988 -21.106  0.00  0.00    +0.093 C 
ATOM     27  C   UNL     1      37.527 -18.836 -20.749  0.00  0.00    +0.026 C 
BRANCH  26  28
ATOM     28  C   UNL     1      35.358 -20.074 -20.311  0.00  0.00    -0.005 C 
ATOM     29  C   UNL     1      36.112 -20.984 -19.570  0.00  0.00    -0.003 C 
ATOM     30  C   UNL     1      33.966 -20.165 -20.318  0.00  0.00    -0.003 C 
ATOM     31  C   UNL     1      35.475 -21.985 -18.837  0.00  0.00    -0.000 C 
ATOM     32  C   UNL     1      33.329 -21.167 -19.586  0.00  0.00    -0.000 C 
ATOM     33  C   UNL     1      34.084 -22.077 -18.845  0.00  0.00    -0.000 C 
ENDBRANCH  26  28
ENDBRANCH   2  26
TORSDOF 6
ENDMDL
MODEL 3
REMARK VINA RESULT:     -11.1      3.882      8.659
REMARK  Name = 24941249
REMARK  6 active torsions:
REMARK  status: ('A' for Active; 'I' for Inactive)
REMARK    1  A    between atoms: N_1  and  C_13
REMARK    2  A    between atoms: N_2  and  C_26
REMARK    3  A    between atoms: C_14  and  C_19
REMARK    4  A    between atoms: C_19  and  C_20
REMARK    5  A    between atoms: C_20  and  C_23
REMARK    6  A    between atoms: C_26  and  C_28
REMARK                            x       y       z     vdW  Elec       q    Type
REMARK                         _______ _______ _______ _____ _____    ______ ____
ROOT
ATOM      1  N   UNL     1      32.270 -23.163 -16.338  0.00  0.00    -0.230 N 
ATOM      2  N   UNL     1      35.611 -23.545 -12.792  0.00  0.00    -0.316 N 
ATOM      3  N   UNL     1      32.329 -22.797 -17.630  0.00  0.00    -0.169 NA
ATOM      4  N   UNL     1      36.118 -22.846 -15.009  0.00  0.00    -0.229 NA
ATOM      5  C   UNL     1      33.475 -23.127 -15.691  0.00  0.00    +0.088 A 
ATOM      6  C   UNL     1      34.391 -22.703 -16.645  0.00  0.00    +0.052 A 
ATOM      7  C   UNL     1      33.622 -22.519 -17.813  0.00  0.00    +0.082 A 
ATOM      8  C   UNL     1      33.834 -23.423 -14.380  0.00  0.00    +0.053 C 
ATOM      9  C   UNL     1      35.185 -23.257 -14.116  0.00  0.00    +0.130 C 
ATOM     10  C   UNL     1      35.730 -22.567 -16.278  0.00  0.00    +0.103 C 
ATOM     11  C   UNL     1      34.088 -22.073 -19.137  0.00  0.00    +0.054 C 
ATOM     12  H   UNL     1      34.942 -23.843 -12.134  0.00  0.00    +0.148 HD
ENDROOT
BRANCH   1  13
ATOM     13  C   UNL     1      31.045 -23.533 -15.782  0.00  0.00    +0.082 C 
ATOM     14  C   UNL     1      28.673 -23.163 -15.511  0.00  0.00    -0.020 C 
ATOM     15  C   UNL     1      29.898 -22.793 -16.067  0.00  0.00    +0.015 C 
ATOM     16  C   UNL     1      30.968 -24.644 -14.942  0.00  0.00    +0.019 C 
ATOM     17  C   UNL     1      28.595 -24.274 -14.672  0.00  0.00    -0.004 C 
ATOM     18  C   UNL     1      29.743 -25.015 -14.387  0.00  0.00    +0.001 C 
BRANCH  14  19
ATOM     19  C   UNL     1      27.446 -22.371 -15.815  0.00  0.00    +0.036 C 
BRANCH  19  20
ATOM     20  C   UNL     1      26.910 -22.649 -17.224  0.00  0.00    +0.089 C 
BRANCH  20  23
ATOM     21  O   UNL     1      26.112 -20.359 -17.287  0.00  0.00    -0.275 OA
ATOM     22  N   UNL     1      25.569 -21.771 -19.019  0.00  0.00    -0.329 N 
ATOM     23  C   UNL     1      26.171 -21.464 -17.816  0.00  0.00    +0.220 C 
ATOM     24  H   UNL     1      25.059 -21.083 -19.502  0.00  0.00    +0.145 HD
ATOM     25  H   UNL     1      25.651 -22.678 -19.392  0.00  0.00    +0.145 HD
ENDBRANCH  20  23
ENDBRANCH  19  20
ENDBRANCH  14  19
ENDBRANCH   1  13
BRANCH   2  26
ATOM     26  C   UNL     1      36.969 -23.420 -12.378  0.00  0.00    +0.093 C 
ATOM     27  C   UNL     1      37.029 -23.325 -10.854  0.00  0.00    +0.026 C 
BRANCH  26  28
ATOM     28  C   UNL     1      37.791 -24.564 -12.931  0.00  0.00    -0.005 C 
ATOM     29  C   UNL     1      39.151 -24.386 -13.188  0.00  0.00    -0.003 C 
ATOM     30  C   UNL     1      37.190 -25.797 -13.184  0.00  0.00    -0.003 C 
ATOM     31  C   UNL     1      39.908 -25.439 -13.699  0.00  0.00    -0.000 C 
ATOM     32  C   UNL     1      37.948 -26.851 -13.694  0.00  0.00    -0.000 C 
ATOM     33  C   UNL     1      39.307 -26.672 -13.951  0.00  0.00    -0.000 C 
ENDBRANCH  26  28
ENDBRANCH   2  26
TORSDOF 6
ENDMDL
MODEL 4
REMARK VINA RESULT:     -11.0      2.834      8.175
REMARK  Name = 24941249
REMARK  6 active torsions:
REMARK  status: ('A' for Active; 'I' for Inactive)
REMARK    1  A    between atoms: N_1  and  C_13
REMARK    2  A    between atoms: N_2  and  C_26
REMARK    3  A    between atoms: C_14  and  C_19
REMARK    4  A    between atoms: C_19  and  C_20
REMARK    5  A    between atoms: C_20  and  C_23
REMARK    6  A    between atoms: C_26  and  C_28
REMARK                            x       y       z     vdW  Elec       q    Type
REMARK                         _______ _______ _______ _____ _____    ______ ____
ROOT
ATOM      1  N   UNL     1      33.411 -22.342 -17.550  0.00  0.00    -0.230 N 
ATOM      2  N   UNL     1      36.344 -24.795 -14.507  0.00  0.00    -0.316 N 
ATOM      3  N   UNL     1      32.081 -22.149 -17.601  0.00  0.00    -0.169 NA
ATOM      4  N   UNL     1      33.979 -24.687 -14.257  0.00  0.00    -0.229 NA
ATOM      5  C   UNL     1      33.824 -23.116 -16.502  0.00  0.00    +0.088 A 
ATOM      6  C   UNL     1      32.665 -23.453 -15.815  0.00  0.00    +0.052 A 
ATOM      7  C   UNL     1      31.631 -22.828 -16.543  0.00  0.00    +0.082 A 
ATOM      8  C   UNL     1      35.086 -23.542 -16.103  0.00  0.00    +0.053 C 
ATOM      9  C   UNL     1      35.081 -24.330 -14.962  0.00  0.00    +0.130 C 
ATOM     10  C   UNL     1      32.765 -24.253 -14.676  0.00  0.00    +0.103 C 
ATOM     11  C   UNL     1      30.186 -22.853 -16.258  0.00  0.00    +0.054 C 
ATOM     12  H   UNL     1      37.150 -24.542 -15.012  0.00  0.00    +0.148 HD
ENDROOT
BRANCH   1  13
ATOM     13  C   UNL     1      34.227 -21.765 -18.523  0.00  0.00    +0.082 C 
ATOM     14  C   UNL     1      34.486 -20.374 -20.482  0.00  0.00    -0.020 C 
ATOM     15  C   UNL     1      33.669 -20.951 -19.509  0.00  0.00    +0.015 C 
ATOM     16  C   UNL     1      35.602 -22.001 -18.509  0.00  0.00    +0.019 C 
ATOM     17  C   UNL     1      35.860 -20.610 -20.468  0.00  0.00    -0.004 C 
ATOM     18  C   UNL     1      36.419 -21.423 -19.482  0.00  0.00    +0.001 C 
BRANCH  14  19
ATOM     19  C   UNL     1      33.890 -19.505 -21.537  0.00  0.00    +0.036 C 
BRANCH  19  20
ATOM     20  C   UNL     1      34.958 -18.835 -22.410  0.00  0.00    +0.089 C 
BRANCH  20  23
ATOM     21  O   UNL     1      35.299 -17.082 -20.768  0.00  0.00    -0.275 OA
ATOM     22  N   UNL     1      35.626 -16.599 -22.993  0.00  0.00    -0.329 N 
ATOM     23  C   UNL     1      35.304 -17.434 -21.944  0.00  0.00    +0.220 C 
ATOM     24  H   UNL     1      35.869 -15.662 -22.818  0.00  0.00    +0.145 HD
ATOM     25  H   UNL     1      35.611 -16.940 -23.916  0.00  0.00    +0.145 HD
ENDBRANCH  20  23
ENDBRANCH  19  20
ENDBRANCH  14  19
ENDBRANCH   1  13
BRANCH   2  26
ATOM     26  C   UNL     1      36.489 -25.611 -13.348  0.00  0.00    +0.093 C 
ATOM     27  C   UNL     1      37.724 -26.497 -13.503  0.00  0.00    +0.026 C 
BRANCH  26  28
ATOM     28  C   UNL     1      36.531 -24.750 -12.104  0.00  0.00    -0.005 C 
ATOM     29  C   UNL     1      37.314 -23.596 -12.080  0.00  0.00    -0.003 C 
ATOM     30  C   UNL     1      35.786 -25.110 -10.982  0.00  0.00    -0.003 C 
ATOM     31  C   UNL     1      37.353 -22.803 -10.934  0.00  0.00    -0.000 C 
ATOM     32  C   UNL     1      35.825 -24.317  -9.835  0.00  0.00    -0.000 C 
ATOM     33  C   UNL     1      36.608 -23.163  -9.811  0.00  0.00    -0.000 C 
ENDBRANCH  26  28
ENDBRANCH   2  26
TORSDOF 6
ENDMDL
MODEL 5
REMARK VINA RESULT:     -10.6      1.859      2.840
REMARK  Name = 24941249
REMARK  6 active torsions:
REMARK  status: ('A' for Active; 'I' for Inactive)
REMARK    1  A    between atoms: N_1  and  C_13
REMARK    2  A    between atoms: N_2  and  C_26
REMARK    3  A    between atoms: C_14  and  C_19
REMARK    4  A    between atoms: C_19  and  C_20
REMARK    5  A    between atoms: C_20  and  C_23
REMARK    6  A    between atoms: C_26  and  C_28
REMARK                            x       y       z     vdW  Elec       q    Type
REMARK                         _______ _______ _______ _____ _____    ______ ____
ROOT
ATOM      1  N   UNL     1      34.111 -24.387 -14.666  0.00  0.00    -0.230 N 
ATOM      2  N   UNL     1      34.582 -21.995 -18.901  0.00  0.00    -0.316 N 
ATOM      3  N   UNL     1      33.066 -24.656 -13.865  0.00  0.00    -0.169 NA
ATOM      4  N   UNL     1      32.510 -22.263 -17.763  0.00  0.00    -0.229 NA
ATOM      5  C   UNL     1      33.790 -23.669 -15.785  0.00  0.00    +0.088 A 
ATOM      6  C   UNL     1      32.420 -23.455 -15.702  0.00  0.00    +0.052 A 
ATOM      7  C   UNL     1      32.038 -24.086 -14.500  0.00  0.00    +0.082 A 
ATOM      8  C   UNL     1      34.563 -23.199 -16.841  0.00  0.00    +0.053 C 
ATOM      9  C   UNL     1      33.844 -22.500 -17.798  0.00  0.00    +0.130 C 
ATOM     10  C   UNL     1      31.788 -22.738 -16.718  0.00  0.00    +0.103 C 
ATOM     11  C   UNL     1      30.688 -24.170 -13.916  0.00  0.00    +0.054 C 
ATOM     12  H   UNL     1      35.552 -22.160 -18.936  0.00  0.00    +0.148 HD
ENDROOT
BRANCH   1  13
ATOM     13  C   UNL     1      35.383 -24.840 -14.313  0.00  0.00    +0.082 C 
ATOM     14  C   UNL     1      37.381 -24.631 -12.970  0.00  0.00    -0.020 C 
ATOM     15  C   UNL     1      36.109 -24.178 -13.323  0.00  0.00    +0.015 C 
ATOM     16  C   UNL     1      35.927 -25.956 -14.949  0.00  0.00    +0.019 C 
ATOM     17  C   UNL     1      37.925 -25.746 -13.606  0.00  0.00    -0.004 C 
ATOM     18  C   UNL     1      37.199 -26.410 -14.595  0.00  0.00    +0.001 C 
BRANCH  14  19
ATOM     19  C   UNL     1      38.158 -23.922 -11.913  0.00  0.00    +0.036 C 
BRANCH  19  20
ATOM     20  C   UNL     1      37.288 -22.953 -11.104  0.00  0.00    +0.089 C 
BRANCH  20  23
ATOM     21  O   UNL     1      36.486 -24.327  -9.273  0.00  0.00    -0.275 OA
ATOM     22  N   UNL     1      34.963 -23.471 -10.768  0.00  0.00    -0.329 N 
ATOM     23  C   UNL     1      36.235 -23.661 -10.273  0.00  0.00    +0.220 C 
ATOM     24  H   UNL     1      34.193 -23.882 -10.314  0.00  0.00    +0.145 HD
ATOM     25  H   UNL     1      34.826 -22.925 -11.576  0.00  0.00    +0.145 HD
ENDBRANCH  20  23
ENDBRANCH  19  20
ENDBRANCH  14  19
ENDBRANCH   1  13
BRANCH   2  26
ATOM     26  C   UNL     1      33.975 -21.260 -19.960  0.00  0.00    +0.093 C 
ATOM     27  C   UNL     1      32.717 -20.566 -19.438  0.00  0.00    +0.026 C 
BRANCH  26  28
ATOM     28  C   UNL     1      34.972 -20.297 -20.567  0.00  0.00    -0.005 C 
ATOM     29  C   UNL     1      36.219 -20.114 -19.969  0.00  0.00    -0.003 C 
ATOM     30  C   UNL     1      34.644 -19.593 -21.726  0.00  0.00    -0.003 C 
ATOM     31  C   UNL     1      37.137 -19.226 -20.529  0.00  0.00    -0.000 C 
ATOM     32  C   UNL     1      35.563 -18.706 -22.286  0.00  0.00    -0.000 C 
ATOM     33  C   UNL     1      36.810 -18.523 -21.688  0.00  0.00    -0.000 C 
ENDBRANCH  26  28
ENDBRANCH   2  26
TORSDOF 6
ENDMDL
MODEL 6
REMARK VINA RESULT:     -10.5      3.435      6.464
REMARK  Name = 24941249
REMARK  6 active torsions:
REMARK  status: ('A' for Active; 'I' for Inactive)
REMARK    1  A    between atoms: N_1  and  C_13
REMARK    2  A    between atoms: N_2  and  C_26
REMARK    3  A    between atoms: C_14  and  C_19
REMARK    4  A    between atoms: C_19  and  C_20
REMARK    5  A    between atoms: C_20  and  C_23
REMARK    6  A    between atoms: C_26  and  C_28
REMARK                            x       y       z     vdW  Elec       q    Type
REMARK                         _______ _______ _______ _____ _____    ______ ____
ROOT
ATOM      1  N   UNL     1      33.615 -23.843 -14.112  0.00  0.00    -0.230 N 
ATOM      2  N   UNL     1      35.315 -21.761 -18.193  0.00  0.00    -0.316 N 
ATOM      3  N   UNL     1      34.182 -24.189 -12.942  0.00  0.00    -0.169 NA
ATOM      4  N   UNL     1      36.666 -22.223 -16.289  0.00  0.00    -0.229 NA
ATOM      5  C   UNL     1      34.479 -23.270 -15.005  0.00  0.00    +0.088 A 
ATOM      6  C   UNL     1      35.709 -23.243 -14.359  0.00  0.00    +0.052 A 
ATOM      7  C   UNL     1      35.456 -23.821 -13.098  0.00  0.00    +0.082 A 
ATOM      8  C   UNL     1      34.294 -22.785 -16.294  0.00  0.00    +0.053 C 
ATOM      9  C   UNL     1      35.444 -22.273 -16.874  0.00  0.00    +0.130 C 
ATOM     10  C   UNL     1      36.808 -22.706 -15.029  0.00  0.00    +0.103 C 
ATOM     11  C   UNL     1      36.414 -24.043 -12.001  0.00  0.00    +0.054 C 
ATOM     12  H   UNL     1      34.433 -21.794 -18.628  0.00  0.00    +0.148 HD
ENDROOT
BRANCH   1  13
ATOM     13  C   UNL     1      32.256 -24.082 -14.314  0.00  0.00    +0.082 C 
ATOM     14  C   UNL     1      30.144 -23.447 -15.303  0.00  0.00    -0.020 C 
ATOM     15  C   UNL     1      31.504 -23.208 -15.100  0.00  0.00    +0.015 C 
ATOM     16  C   UNL     1      31.649 -25.194 -13.732  0.00  0.00    +0.019 C 
ATOM     17  C   UNL     1      29.537 -24.560 -14.721  0.00  0.00    -0.004 C 
ATOM     18  C   UNL     1      30.289 -25.434 -13.936  0.00  0.00    +0.001 C 
BRANCH  14  19
ATOM     19  C   UNL     1      29.340 -22.513 -16.142  0.00  0.00    +0.036 C 
BRANCH  19  20
ATOM     20  C   UNL     1      28.030 -23.148 -16.625  0.00  0.00    +0.089 C 
BRANCH  20  23
ATOM     21  O   UNL     1      26.308 -22.387 -15.095  0.00  0.00    -0.275 OA
ATOM     22  N   UNL     1      26.311 -21.586 -17.251  0.00  0.00    -0.329 N 
ATOM     23  C   UNL     1      26.805 -22.352 -16.217  0.00  0.00    +0.220 C 
ATOM     24  H   UNL     1      25.515 -21.024 -17.109  0.00  0.00    +0.145 HD
ATOM     25  H   UNL     1      26.753 -21.602 -18.130  0.00  0.00    +0.145 HD
ENDBRANCH  20  23
ENDBRANCH  19  20
ENDBRANCH  14  19
ENDBRANCH   1  13
BRANCH   2  26
ATOM     26  C   UNL     1      36.413 -21.204 -18.910  0.00  0.00    +0.093 C 
ATOM     27  C   UNL     1      37.269 -22.331 -19.485  0.00  0.00    +0.026 C 
BRANCH  26  28
ATOM     28  C   UNL     1      35.913 -20.244 -19.968  0.00  0.00    -0.005 C 
ATOM     29  C   UNL     1      36.770 -19.279 -20.497  0.00  0.00    -0.003 C 
ATOM     30  C   UNL     1      34.594 -20.324 -20.415  0.00  0.00    -0.003 C 
ATOM     31  C   UNL     1      36.309 -18.394 -21.471  0.00  0.00    -0.000 C 
ATOM     32  C   UNL     1      34.133 -19.439 -21.389  0.00  0.00    -0.000 C 
ATOM     33  C   UNL     1      34.991 -18.475 -21.918  0.00  0.00    -0.000 C 
ENDBRANCH  26  28
ENDBRANCH   2  26
TORSDOF 6
ENDMDL
MODEL 7
REMARK VINA RESULT:     -10.5      2.514      7.528
REMARK  Name = 24941249
REMARK  6 active torsions:
REMARK  status: ('A' for Active; 'I' for Inactive)
REMARK    1  A    between atoms: N_1  and  C_13
REMARK    2  A    between atoms: N_2  and  C_26
REMARK    3  A    between atoms: C_14  and  C_19
REMARK    4  A    between atoms: C_19  and  C_20
REMARK    5  A    between atoms: C_20  and  C_23
REMARK    6  A    between atoms: C_26  and  C_28
REMARK                            x       y       z     vdW  Elec       q    Type
REMARK                         _______ _______ _______ _____ _____    ______ ____
ROOT
ATOM      1  N   UNL     1      32.635 -22.440 -17.210  0.00  0.00    -0.230 N 
ATOM      2  N   UNL     1      36.377 -24.570 -14.898  0.00  0.00    -0.316 N 
ATOM      3  N   UNL     1      31.309 -22.402 -16.987  0.00  0.00    -0.169 NA
ATOM      4  N   UNL     1      34.115 -24.740 -14.178  0.00  0.00    -0.229 NA
ATOM      5  C   UNL     1      33.336 -23.173 -16.291  0.00  0.00    +0.088 A 
ATOM      6  C   UNL     1      32.384 -23.650 -15.399  0.00  0.00    +0.052 A 
ATOM      7  C   UNL     1      31.161 -23.140 -15.884  0.00  0.00    +0.082 A 
ATOM      8  C   UNL     1      34.692 -23.454 -16.168  0.00  0.00    +0.053 C 
ATOM      9  C   UNL     1      35.004 -24.250 -15.076  0.00  0.00    +0.130 C 
ATOM     10  C   UNL     1      32.800 -24.444 -14.331  0.00  0.00    +0.103 C 
ATOM     11  C   UNL     1      29.816 -23.335 -15.317  0.00  0.00    +0.054 C 
ATOM     12  H   UNL     1      37.031 -24.220 -15.545  0.00  0.00    +0.148 HD
ENDROOT
BRANCH   1  13
ATOM     13  C   UNL     1      33.168 -21.762 -18.306  0.00  0.00    +0.082 C 
ATOM     14  C   UNL     1      35.075 -21.121 -19.644  0.00  0.00    -0.020 C 
ATOM     15  C   UNL     1      34.542 -21.799 -18.548  0.00  0.00    +0.015 C 
ATOM     16  C   UNL     1      32.329 -21.047 -19.160  0.00  0.00    +0.019 C 
ATOM     17  C   UNL     1      34.236 -20.406 -20.498  0.00  0.00    -0.004 C 
ATOM     18  C   UNL     1      32.862 -20.369 -20.257  0.00  0.00    +0.001 C 
BRANCH  14  19
ATOM     19  C   UNL     1      36.543 -21.159 -19.902  0.00  0.00    +0.036 C 
BRANCH  19  20
ATOM     20  C   UNL     1      37.223 -19.821 -19.589  0.00  0.00    +0.089 C 
BRANCH  20  23
ATOM     21  O   UNL     1      36.084 -18.035 -20.772  0.00  0.00    -0.275 OA
ATOM     22  N   UNL     1      38.080 -18.820 -21.602  0.00  0.00    -0.329 N 
ATOM     23  C   UNL     1      37.043 -18.797 -20.694  0.00  0.00    +0.220 C 
ATOM     24  H   UNL     1      38.077 -18.200 -22.366  0.00  0.00    +0.145 HD
ATOM     25  H   UNL     1      38.822 -19.456 -21.486  0.00  0.00    +0.145 HD
ENDBRANCH  20  23
ENDBRANCH  19  20
ENDBRANCH  14  19
ENDBRANCH   1  13
BRANCH   2  26
ATOM     26  C   UNL     1      36.843 -25.377 -13.821  0.00  0.00    +0.093 C 
ATOM     27  C   UNL     1      38.246 -25.891 -14.141  0.00  0.00    +0.026 C 
BRANCH  26  28
ATOM     28  C   UNL     1      36.780 -24.602 -12.522  0.00  0.00    -0.005 C 
ATOM     29  C   UNL     1      36.038 -25.096 -11.449  0.00  0.00    -0.003 C 
ATOM     30  C   UNL     1      37.465 -23.393 -12.398  0.00  0.00    -0.003 C 
ATOM     31  C   UNL     1      35.980 -24.382 -10.253  0.00  0.00    -0.000 C 
ATOM     32  C   UNL     1      37.406 -22.678 -11.201  0.00  0.00    -0.000 C 
ATOM     33  C   UNL     1      36.664 -23.173 -10.129  0.00  0.00    -0.000 C 
ENDBRANCH  26  28
ENDBRANCH   2  26
TORSDOF 6
ENDMDL
MODEL 8
REMARK VINA RESULT:      -9.8     11.571     16.671
REMARK  Name = 24941249
REMARK  6 active torsions:
REMARK  status: ('A' for Active; 'I' for Inactive)
REMARK    1  A    between atoms: N_1  and  C_13
REMARK    2  A    between atoms: N_2  and  C_26
REMARK    3  A    between atoms: C_14  and  C_19
REMARK    4  A    between atoms: C_19  and  C_20
REMARK    5  A    between atoms: C_20  and  C_23
REMARK    6  A    between atoms: C_26  and  C_28
REMARK                            x       y       z     vdW  Elec       q    Type
REMARK                         _______ _______ _______ _____ _____    ______ ____
ROOT
ATOM      1  N   UNL     1      32.676  -8.923 -21.794  0.00  0.00    -0.230 N 
ATOM      2  N   UNL     1      33.287 -13.076 -24.295  0.00  0.00    -0.316 N 
ATOM      3  N   UNL     1      32.053  -8.618 -20.643  0.00  0.00    -0.169 NA
ATOM      4  N   UNL     1      32.091 -12.939 -22.242  0.00  0.00    -0.229 NA
ATOM      5  C   UNL     1      32.601 -10.244 -22.139  0.00  0.00    +0.088 A 
ATOM      6  C   UNL     1      31.868 -10.847 -21.124  0.00  0.00    +0.052 A 
ATOM      7  C   UNL     1      31.563  -9.792 -20.238  0.00  0.00    +0.082 A 
ATOM      8  C   UNL     1      33.101 -10.950 -23.227  0.00  0.00    +0.053 C 
ATOM      9  C   UNL     1      32.802 -12.304 -23.207  0.00  0.00    +0.130 C 
ATOM     10  C   UNL     1      31.620 -12.217 -21.195  0.00  0.00    +0.103 C 
ATOM     11  C   UNL     1      30.798  -9.865 -18.981  0.00  0.00    +0.054 C 
ATOM     12  H   UNL     1      33.803 -12.625 -25.002  0.00  0.00    +0.148 HD
ENDROOT
BRANCH   1  13
ATOM     13  C   UNL     1      33.321  -7.917 -22.515  0.00  0.00    +0.082 C 
ATOM     14  C   UNL     1      33.271  -5.756 -23.595  0.00  0.00    -0.020 C 
ATOM     15  C   UNL     1      32.626  -6.762 -22.875  0.00  0.00    +0.015 C 
ATOM     16  C   UNL     1      34.660  -8.066 -22.876  0.00  0.00    +0.019 C 
ATOM     17  C   UNL     1      34.610  -5.905 -23.956  0.00  0.00    -0.004 C 
ATOM     18  C   UNL     1      35.305  -7.060 -23.596  0.00  0.00    +0.001 C 
BRANCH  14  19
ATOM     19  C   UNL     1      32.529  -4.522 -23.981  0.00  0.00    +0.036 C 
BRANCH  19  20
ATOM     20  C   UNL     1      31.087  -4.525 -23.459  0.00  0.00    +0.089 C 
BRANCH  20  23
ATOM     21  O   UNL     1      29.851  -3.524 -21.627  0.00  0.00    -0.275 OA
ATOM     22  N   UNL     1      31.986  -2.788 -22.059  0.00  0.00    -0.329 N 
ATOM     23  C   UNL     1      30.882  -3.580 -22.291  0.00  0.00    +0.220 C 
ATOM     24  H   UNL     1      31.975  -2.132 -21.325  0.00  0.00    +0.145 HD
ATOM     25  H   UNL     1      32.784  -2.878 -22.627  0.00  0.00    +0.145 HD
ENDBRANCH  20  23
ENDBRANCH  19  20
ENDBRANCH  14  19
ENDBRANCH   1  13
BRANCH   2  26
ATOM     26  C   UNL     1      33.057 -14.478 -24.404  0.00  0.00    +0.093 C 
ATOM     27  C   UNL     1      33.243 -14.912 -25.857  0.00  0.00    +0.026 C 
BRANCH  26  28
ATOM     28  C   UNL     1      33.951 -15.231 -23.443  0.00  0.00    -0.005 C 
ATOM     29  C   UNL     1      34.573 -16.413 -23.849  0.00  0.00    -0.003 C 
ATOM     30  C   UNL     1      34.156 -14.744 -22.153  0.00  0.00    -0.003 C 
ATOM     31  C   UNL     1      35.397 -17.107 -22.963  0.00  0.00    -0.000 C 
ATOM     32  C   UNL     1      34.980 -15.438 -21.267  0.00  0.00    -0.000 C 
ATOM     33  C   UNL     1      35.601 -16.619 -21.673  0.00  0.00    -0.000 C 
ENDBRANCH  26  28
ENDBRANCH   2  26
TORSDOF 6
ENDMDL
MODEL 9
REMARK VINA RESULT:      -9.5     11.457     16.710
REMARK  Name = 24941249
REMARK  6 active torsions:
REMARK  status: ('A' for Active; 'I' for Inactive)
REMARK    1  A    between atoms: N_1  and  C_13
REMARK    2  A    between atoms: N_2  and  C_26
REMARK    3  A    between atoms: C_14  and  C_19
REMARK    4  A    between atoms: C_19  and  C_20
REMARK    5  A    between atoms: C_20  and  C_23
REMARK    6  A    between atoms: C_26  and  C_28
REMARK                            x       y       z     vdW  Elec       q    Type
REMARK                         _______ _______ _______ _____ _____    ______ ____
ROOT
ATOM      1  N   UNL     1      32.903  -8.738 -22.107  0.00  0.00    -0.230 N 
ATOM      2  N   UNL     1      33.350 -13.094 -24.276  0.00  0.00    -0.316 N 
ATOM      3  N   UNL     1      32.280  -8.317 -20.993  0.00  0.00    -0.169 NA
ATOM      4  N   UNL     1      32.133 -12.744 -22.261  0.00  0.00    -0.229 NA
ATOM      5  C   UNL     1      32.770 -10.077 -22.352  0.00  0.00    +0.088 A 
ATOM      6  C   UNL     1      31.994 -10.565 -21.307  0.00  0.00    +0.052 A 
ATOM      7  C   UNL     1      31.728  -9.433 -20.509  0.00  0.00    +0.082 A 
ATOM      8  C   UNL     1      33.250 -10.886 -23.375  0.00  0.00    +0.053 C 
ATOM      9  C   UNL     1      32.886 -12.219 -23.258  0.00  0.00    +0.130 C 
ATOM     10  C   UNL     1      31.682 -11.924 -21.280  0.00  0.00    +0.103 C 
ATOM     11  C   UNL     1      30.943  -9.373 -19.264  0.00  0.00    +0.054 C 
ATOM     12  H   UNL     1      33.896 -12.723 -25.005  0.00  0.00    +0.148 HD
ENDROOT
BRANCH   1  13
ATOM     13  C   UNL     1      33.606  -7.821 -22.890  0.00  0.00    +0.082 C 
ATOM     14  C   UNL     1      33.666  -6.247 -24.723  0.00  0.00    -0.020 C 
ATOM     15  C   UNL     1      32.963  -7.164 -23.940  0.00  0.00    +0.015 C 
ATOM     16  C   UNL     1      34.950  -7.562 -22.623  0.00  0.00    +0.019 C 
ATOM     17  C   UNL     1      35.010  -5.988 -24.456  0.00  0.00    -0.004 C 
ATOM     18  C   UNL     1      35.652  -6.645 -23.406  0.00  0.00    +0.001 C 
BRANCH  14  19
ATOM     19  C   UNL     1      32.980  -5.546 -25.845  0.00  0.00    +0.036 C 
BRANCH  19  20
ATOM     20  C   UNL     1      33.973  -4.956 -26.854  0.00  0.00    +0.089 C 
BRANCH  20  23
ATOM     21  O   UNL     1      33.428  -6.396 -28.729  0.00  0.00    -0.275 OA
ATOM     22  N   UNL     1      35.633  -6.147 -28.124  0.00  0.00    -0.329 N 
ATOM     23  C   UNL     1      34.282  -5.902 -27.998  0.00  0.00    +0.220 C 
ATOM     24  H   UNL     1      35.959  -6.747 -28.832  0.00  0.00    +0.145 HD
ATOM     25  H   UNL     1      36.269  -5.722 -27.506  0.00  0.00    +0.145 HD
ENDBRANCH  20  23
ENDBRANCH  19  20
ENDBRANCH  14  19
ENDBRANCH   1  13
BRANCH   2  26
ATOM     26  C   UNL     1      33.054 -14.488 -24.283  0.00  0.00    +0.093 C 
ATOM     27  C   UNL     1      33.168 -15.024 -25.709  0.00  0.00    +0.026 C 
BRANCH  26  28
ATOM     28  C   UNL     1      33.948 -15.217 -23.304  0.00  0.00    -0.005 C 
ATOM     29  C   UNL     1      34.041 -14.778 -21.983  0.00  0.00    -0.003 C 
ATOM     30  C   UNL     1      34.679 -16.329 -23.722  0.00  0.00    -0.003 C 
ATOM     31  C   UNL     1      34.866 -15.450 -21.081  0.00  0.00    -0.000 C 
ATOM     32  C   UNL     1      35.504 -17.000 -22.820  0.00  0.00    -0.000 C 
ATOM     33  C   UNL     1      35.597 -16.561 -21.499  0.00  0.00    -0.000 C 
ENDBRANCH  26  28
ENDBRANCH   2  26
TORSDOF 6
ENDMDL
