MODEL 1
REMARK VINA RESULT:     -12.3      0.000      0.000
REMARK  Name = 198752
REMARK  6 active torsions:
REMARK  status: ('A' for Active; 'I' for Inactive)
REMARK    1  A    between atoms: C_1  and  C_3
REMARK    2  A    between atoms: C_1  and  C_16
REMARK    3  A    between atoms: N_2  and  C_9
REMARK    4  A    between atoms: C_9  and  C_10
REMARK    5  A    between atoms: C_16  and  C_18
REMARK    6  A    between atoms: C_18  and  C_20
REMARK                            x       y       z     vdW  Elec       q    Type
REMARK                         _______ _______ _______ _____ _____    ______ ____
ROOT
ATOM      1  C   UNL     1      36.342 -21.628 -18.465  0.00  0.00    +0.008 C 
ENDROOT
BRANCH   1   3
ATOM      2  N   UNL     1      35.575 -18.397 -21.227  0.00  0.00    +0.390 N 
ATOM      3  C   UNL     1      36.218 -20.865 -19.780  0.00  0.00    -0.004 C 
ATOM      4  C   UNL     1      37.161 -19.657 -19.808  0.00  0.00    -0.023 C 
ATOM      5  C   UNL     1      34.777 -20.401 -20.015  0.00  0.00    -0.023 C 
ATOM      6  C   UNL     1      36.970 -18.831 -21.081  0.00  0.00    -0.077 C 
ATOM      7  C   UNL     1      34.665 -19.550 -21.281  0.00  0.00    -0.077 C 
ATOM      8  H   UNL     1      35.330 -17.842 -20.408  0.00  0.00    -0.079 HD
BRANCH   2   9
ATOM      9  C   UNL     1      35.418 -17.566 -22.421  0.00  0.00    -0.050 C 
BRANCH   9  10
ATOM     10  C   UNL     1      34.986 -16.165 -22.075  0.00  0.00    -0.043 C 
ATOM     11  C   UNL     1      34.814 -15.813 -20.744  0.00  0.00    -0.006 C 
ATOM     12  C   UNL     1      34.767 -15.246 -23.092  0.00  0.00    -0.006 C 
ATOM     13  C   UNL     1      34.414 -14.515 -20.424  0.00  0.00    -0.000 C 
ATOM     14  C   UNL     1      34.368 -13.949 -22.772  0.00  0.00    -0.000 C 
ATOM     15  C   UNL     1      34.190 -13.584 -21.437  0.00  0.00    -0.000 C 
ENDBRANCH   9  10
ENDBRANCH   2   9
ENDBRANCH   1   3
BRANCH   1  16
ATOM     16  C   UNL     1      34.991 -22.172 -18.002  0.00  0.00    +0.069 C 
BRANCH  16  18
ATOM     17  O   UNL     1      36.143 -23.061 -16.080  0.00  0.00    -0.291 OA
ATOM     18  C   UNL     1      35.037 -22.821 -16.606  0.00  0.00    +0.173 C 
BRANCH  18  20
ATOM     19  N   UNL     1      30.180 -22.831 -16.552  0.00  0.00    -0.333 N 
ATOM     20  C   UNL     1      33.799 -23.146 -15.916  0.00  0.00    +0.036 C 
ATOM     21  C   UNL     1      31.391 -23.781 -14.607  0.00  0.00    -0.009 C 
ATOM     22  C   UNL     1      30.159 -24.211 -13.836  0.00  0.00    +0.028 C 
ATOM     23  C   UNL     1      31.346 -23.180 -15.884  0.00  0.00    +0.041 C 
ATOM     24  C   UNL     1      29.100 -24.889 -14.705  0.00  0.00    +0.006 C 
ATOM     25  C   UNL     1      28.235 -23.918 -15.508  0.00  0.00    +0.022 C 
ATOM     26  C   UNL     1      32.570 -22.889 -16.525  0.00  0.00    +0.017 C 
ATOM     27  C   UNL     1      28.915 -22.612 -15.888  0.00  0.00    +0.087 C 
ATOM     28  C   UNL     1      33.834 -23.702 -14.647  0.00  0.00    +0.003 C 
ATOM     29  C   UNL     1      32.642 -24.014 -13.998  0.00  0.00    -0.003 C 
ATOM     30  H   UNL     1      30.216 -22.726 -17.531  0.00  0.00    +0.147 HD
ENDBRANCH  18  20
ENDBRANCH  16  18
ENDBRANCH   1  16
TORSDOF 6
ENDMDL
MODEL 2
REMARK VINA RESULT:     -11.7      1.622      2.162
REMARK  Name = 198752
REMARK  6 active torsions:
REMARK  status: ('A' for Active; 'I' for Inactive)
REMARK    1  A    between atoms: C_1  and  C_3
REMARK    2  A    between atoms: C_1  and  C_16
REMARK    3  A    between atoms: N_2  and  C_9
REMARK    4  A    between atoms: C_9  and  C_10
REMARK    5  A    between atoms: C_16  and  C_18
REMARK    6  A    between atoms: C_18  and  C_20
REMARK                            x       y       z     vdW  Elec       q    Type
REMARK                         _______ _______ _______ _____ _____    ______ ____
ROOT
ATOM      1  C   UNL     1      35.764 -20.766 -19.318  0.00  0.00    +0.008 C 
ENDROOT
BRANCH   1   3
ATOM      2  N   UNL     1      35.143 -17.960 -22.542  0.00  0.00    +0.390 N 
ATOM      3  C   UNL     1      35.751 -20.180 -20.727  0.00  0.00    -0.004 C 
ATOM      4  C   UNL     1      36.622 -18.922 -20.808  0.00  0.00    -0.023 C 
ATOM      5  C   UNL     1      34.323 -19.851 -21.174  0.00  0.00    -0.023 C 
ATOM      6  C   UNL     1      36.534 -18.272 -22.191  0.00  0.00    -0.077 C 
ATOM      7  C   UNL     1      34.312 -19.171 -22.544  0.00  0.00    -0.077 C 
ATOM      8  H   UNL     1      34.773 -17.327 -21.833  0.00  0.00    -0.079 HD
BRANCH   2   9
ATOM      9  C   UNL     1      35.080 -17.293 -23.843  0.00  0.00    -0.050 C 
BRANCH   9  10
ATOM     10  C   UNL     1      34.525 -15.898 -23.731  0.00  0.00    -0.043 C 
ATOM     11  C   UNL     1      34.796 -15.144 -22.598  0.00  0.00    -0.006 C 
ATOM     12  C   UNL     1      33.751 -15.384 -24.763  0.00  0.00    -0.006 C 
ATOM     13  C   UNL     1      34.282 -13.851 -22.495  0.00  0.00    -0.000 C 
ATOM     14  C   UNL     1      33.237 -14.093 -24.660  0.00  0.00    -0.000 C 
ATOM     15  C   UNL     1      33.502 -13.326 -23.525  0.00  0.00    -0.000 C 
ENDBRANCH   9  10
ENDBRANCH   2   9
ENDBRANCH   1   3
BRANCH   1  16
ATOM     16  C   UNL     1      35.245 -22.204 -19.304  0.00  0.00    +0.069 C 
BRANCH  16  18
ATOM     17  O   UNL     1      32.844 -22.080 -19.489  0.00  0.00    -0.291 OA
ATOM     18  C   UNL     1      33.815 -22.333 -18.746  0.00  0.00    +0.173 C 
BRANCH  18  20
ATOM     19  N   UNL     1      30.750 -23.504 -15.164  0.00  0.00    -0.333 N 
ATOM     20  C   UNL     1      33.609 -22.747 -17.367  0.00  0.00    +0.036 C 
ATOM     21  C   UNL     1      33.187 -23.563 -14.708  0.00  0.00    -0.009 C 
ATOM     22  C   UNL     1      33.078 -24.051 -13.277  0.00  0.00    +0.028 C 
ATOM     23  C   UNL     1      32.075 -23.364 -15.555  0.00  0.00    +0.041 C 
ATOM     24  C   UNL     1      32.060 -25.176 -13.091  0.00  0.00    +0.006 C 
ATOM     25  C   UNL     1      30.609 -24.701 -13.019  0.00  0.00    +0.022 C 
ATOM     26  C   UNL     1      32.318 -22.972 -16.889  0.00  0.00    +0.017 C 
ATOM     27  C   UNL     1      30.311 -23.424 -13.789  0.00  0.00    +0.087 C 
ATOM     28  C   UNL     1      34.693 -22.909 -16.519  0.00  0.00    +0.003 C 
ATOM     29  C   UNL     1      34.485 -23.311 -15.202  0.00  0.00    -0.003 C 
ATOM     30  H   UNL     1      30.073 -23.664 -15.861  0.00  0.00    +0.147 HD
ENDBRANCH  18  20
ENDBRANCH  16  18
ENDBRANCH   1  16
TORSDOF 6
ENDMDL
MODEL 3
REMARK VINA RESULT:     -11.7      2.248      3.671
REMARK  Name = 198752
REMARK  6 active torsions:
REMARK  status: ('A' for Active; 'I' for Inactive)
REMARK    1  A    between atoms: C_1  and  C_3
REMARK    2  A    between atoms: C_1  and  C_16
REMARK    3  A    between atoms: N_2  and  C_9
REMARK    4  A    between atoms: C_9  and  C_10
REMARK    5  A    between atoms: C_16  and  C_18
REMARK    6  A    between atoms: C_18  and  C_20
REMARK                            x       y       z     vdW  Elec       q    Type
REMARK                         _______ _______ _______ _____ _____    ______ ____
ROOT
ATOM      1  C   UNL     1      35.276 -22.001 -18.403  0.00  0.00    +0.008 C 
ENDROOT
BRANCH   1   3
ATOM      2  N   UNL     1      35.555 -18.589 -21.037  0.00  0.00    +0.390 N 
ATOM      3  C   UNL     1      35.511 -21.182 -19.669  0.00  0.00    -0.004 C 
ATOM      4  C   UNL     1      36.636 -20.162 -19.463  0.00  0.00    -0.023 C 
ATOM      5  C   UNL     1      34.232 -20.460 -20.104  0.00  0.00    -0.023 C 
ATOM      6  C   UNL     1      36.811 -19.270 -20.694  0.00  0.00    -0.077 C 
ATOM      7  C   UNL     1      34.486 -19.558 -21.313  0.00  0.00    -0.077 C 
ATOM      8  H   UNL     1      35.271 -18.028 -20.234  0.00  0.00    -0.079 HD
BRANCH   2   9
ATOM      9  C   UNL     1      35.749 -17.701 -22.183  0.00  0.00    -0.050 C 
BRANCH   9  10
ATOM     10  C   UNL     1      35.178 -16.331 -21.934  0.00  0.00    -0.043 C 
ATOM     11  C   UNL     1      34.888 -15.938 -20.634  0.00  0.00    -0.006 C 
ATOM     12  C   UNL     1      34.948 -15.479 -23.005  0.00  0.00    -0.006 C 
ATOM     13  C   UNL     1      34.358 -14.669 -20.403  0.00  0.00    -0.000 C 
ATOM     14  C   UNL     1      34.419 -14.210 -22.774  0.00  0.00    -0.000 C 
ATOM     15  C   UNL     1      34.123 -13.805 -21.472  0.00  0.00    -0.000 C 
ENDBRANCH   9  10
ENDBRANCH   2   9
ENDBRANCH   1   3
BRANCH   1  16
ATOM     16  C   UNL     1      34.054 -22.909 -18.542  0.00  0.00    +0.069 C 
BRANCH  16  18
ATOM     17  O   UNL     1      31.930 -22.396 -17.523  0.00  0.00    -0.291 OA
ATOM     18  C   UNL     1      33.089 -22.825 -17.344  0.00  0.00    +0.173 C 
BRANCH  18  20
ATOM     19  N   UNL     1      36.616 -24.571 -14.498  0.00  0.00    -0.333 N 
ATOM     20  C   UNL     1      33.533 -23.242 -16.024  0.00  0.00    +0.036 C 
ATOM     21  C   UNL     1      34.419 -24.041 -13.476  0.00  0.00    -0.009 C 
ATOM     22  C   UNL     1      34.805 -24.397 -12.054  0.00  0.00    +0.028 C 
ATOM     23  C   UNL     1      35.311 -24.101 -14.569  0.00  0.00    +0.041 C 
ATOM     24  C   UNL     1      36.181 -23.873 -11.646  0.00  0.00    +0.006 C 
ATOM     25  C   UNL     1      37.349 -24.718 -12.153  0.00  0.00    +0.022 C 
ATOM     26  C   UNL     1      34.845 -23.677 -15.832  0.00  0.00    +0.017 C 
ATOM     27  C   UNL     1      37.090 -25.456 -13.458  0.00  0.00    +0.087 C 
ATOM     28  C   UNL     1      32.652 -23.221 -14.954  0.00  0.00    +0.003 C 
ATOM     29  C   UNL     1      33.090 -23.618 -13.693  0.00  0.00    -0.003 C 
ATOM     30  H   UNL     1      37.253 -24.288 -15.194  0.00  0.00    +0.147 HD
ENDBRANCH  18  20
ENDBRANCH  16  18
ENDBRANCH   1  16
TORSDOF 6
ENDMDL
MODEL 4
REMARK VINA RESULT:     -11.6      3.989      7.861
REMARK  Name = 198752
REMARK  6 active torsions:
REMARK  status: ('A' for Active; 'I' for Inactive)
REMARK    1  A    between atoms: C_1  and  C_3
REMARK    2  A    between atoms: C_1  and  C_16
REMARK    3  A    between atoms: N_2  and  C_9
REMARK    4  A    between atoms: C_9  and  C_10
REMARK    5  A    between atoms: C_16  and  C_18
REMARK    6  A    between atoms: C_18  and  C_20
REMARK                            x       y       z     vdW  Elec       q    Type
REMARK                         _______ _______ _______ _____ _____    ______ ____
ROOT
ATOM      1  C   UNL     1      34.556 -15.272 -22.205  0.00  0.00    +0.008 C 
ENDROOT
BRANCH   1   3
ATOM      2  N   UNL     1      32.574 -11.435 -22.162  0.00  0.00    +0.390 N 
ATOM      3  C   UNL     1      33.517 -14.192 -22.489  0.00  0.00    -0.004 C 
ATOM      4  C   UNL     1      34.141 -13.013 -23.245  0.00  0.00    -0.023 C 
ATOM      5  C   UNL     1      32.872 -13.692 -21.192  0.00  0.00    -0.023 C 
ATOM      6  C   UNL     1      33.130 -11.883 -23.446  0.00  0.00    -0.077 C 
ATOM      7  C   UNL     1      31.904 -12.539 -21.461  0.00  0.00    -0.077 C 
ATOM      8  H   UNL     1      33.346 -11.115 -21.578  0.00  0.00    -0.079 HD
BRANCH   2   9
ATOM      9  C   UNL     1      31.648 -10.320 -22.364  0.00  0.00    -0.050 C 
BRANCH   9  10
ATOM     10  C   UNL     1      32.090  -9.084 -21.628  0.00  0.00    -0.043 C 
ATOM     11  C   UNL     1      32.754  -8.079 -22.318  0.00  0.00    -0.006 C 
ATOM     12  C   UNL     1      31.827  -8.965 -20.270  0.00  0.00    -0.006 C 
ATOM     13  C   UNL     1      33.164  -6.934 -21.635  0.00  0.00    -0.000 C 
ATOM     14  C   UNL     1      32.236  -7.820 -19.588  0.00  0.00    -0.000 C 
ATOM     15  C   UNL     1      32.905  -6.804 -20.271  0.00  0.00    -0.000 C 
ENDBRANCH   9  10
ENDBRANCH   2   9
ENDBRANCH   1   3
BRANCH   1  16
ATOM     16  C   UNL     1      35.128 -15.855 -23.498  0.00  0.00    +0.069 C 
BRANCH  16  18
ATOM     17  O   UNL     1      34.499 -17.831 -24.727  0.00  0.00    -0.291 OA
ATOM     18  C   UNL     1      34.903 -17.372 -23.638  0.00  0.00    +0.173 C 
BRANCH  18  20
ATOM     19  N   UNL     1      33.243 -20.592 -20.403  0.00  0.00    -0.333 N 
ATOM     20  C   UNL     1      35.162 -18.252 -22.510  0.00  0.00    +0.036 C 
ATOM     21  C   UNL     1      35.644 -19.972 -20.337  0.00  0.00    -0.009 C 
ATOM     22  C   UNL     1      36.026 -20.902 -19.201  0.00  0.00    +0.028 C 
ATOM     23  C   UNL     1      34.344 -19.897 -20.885  0.00  0.00    +0.041 C 
ATOM     24  C   UNL     1      35.420 -22.299 -19.327  0.00  0.00    +0.006 C 
ATOM     25  C   UNL     1      33.960 -22.391 -18.884  0.00  0.00    +0.022 C 
ATOM     26  C   UNL     1      34.136 -19.039 -21.986  0.00  0.00    +0.017 C 
ATOM     27  C   UNL     1      33.154 -21.113 -19.058  0.00  0.00    +0.087 C 
ATOM     28  C   UNL     1      36.426 -18.303 -21.943  0.00  0.00    +0.003 C 
ATOM     29  C   UNL     1      36.664 -19.154 -20.866  0.00  0.00    -0.003 C 
ATOM     30  H   UNL     1      32.482 -20.738 -21.010  0.00  0.00    +0.147 HD
ENDBRANCH  18  20
ENDBRANCH  16  18
ENDBRANCH   1  16
TORSDOF 6
ENDMDL
MODEL 5
REMARK VINA RESULT:     -11.4      4.754     12.446
REMARK  Name = 198752
REMARK  6 active torsions:
REMARK  status: ('A' for Active; 'I' for Inactive)
REMARK    1  A    between atoms: C_1  and  C_3
REMARK    2  A    between atoms: C_1  and  C_16
REMARK    3  A    between atoms: N_2  and  C_9
REMARK    4  A    between atoms: C_9  and  C_10
REMARK    5  A    between atoms: C_16  and  C_18
REMARK    6  A    between atoms: C_18  and  C_20
REMARK                            x       y       z     vdW  Elec       q    Type
REMARK                         _______ _______ _______ _____ _____    ______ ____
ROOT
ATOM      1  C   UNL     1      33.830 -14.812 -24.023  0.00  0.00    +0.008 C 
ENDROOT
BRANCH   1   3
ATOM      2  N   UNL     1      35.222 -18.183 -21.709  0.00  0.00    +0.390 N 
ATOM      3  C   UNL     1      34.785 -15.802 -23.363  0.00  0.00    -0.004 C 
ATOM      4  C   UNL     1      34.555 -17.223 -23.889  0.00  0.00    -0.023 C 
ATOM      5  C   UNL     1      34.632 -15.783 -21.839  0.00  0.00    -0.023 C 
ATOM      6  C   UNL     1      35.440 -18.236 -23.160  0.00  0.00    -0.077 C 
ATOM      7  C   UNL     1      35.514 -16.845 -21.178  0.00  0.00    -0.077 C 
ATOM      8  H   UNL     1      34.238 -18.384 -21.531  0.00  0.00    -0.079 HD
BRANCH   2   9
ATOM      9  C   UNL     1      36.035 -19.191 -21.030  0.00  0.00    -0.050 C 
BRANCH   9  10
ATOM     10  C   UNL     1      35.189 -20.166 -20.256  0.00  0.00    -0.043 C 
ATOM     11  C   UNL     1      33.805 -20.081 -20.333  0.00  0.00    -0.006 C 
ATOM     12  C   UNL     1      35.802 -21.137 -19.476  0.00  0.00    -0.006 C 
ATOM     13  C   UNL     1      33.021 -20.984 -19.616  0.00  0.00    -0.000 C 
ATOM     14  C   UNL     1      35.018 -22.040 -18.759  0.00  0.00    -0.000 C 
ATOM     15  C   UNL     1      33.626 -21.963 -18.829  0.00  0.00    -0.000 C 
ENDBRANCH   9  10
ENDBRANCH   2   9
ENDBRANCH   1   3
BRANCH   1  16
ATOM     16  C   UNL     1      34.149 -13.372 -23.621  0.00  0.00    +0.069 C 
BRANCH  16  18
ATOM     17  O   UNL     1      32.025 -13.288 -22.484  0.00  0.00    -0.291 OA
ATOM     18  C   UNL     1      32.949 -12.629 -23.003  0.00  0.00    +0.173 C 
BRANCH  18  20
ATOM     19  N   UNL     1      35.264  -8.403 -23.615  0.00  0.00    -0.333 N 
ATOM     20  C   UNL     1      32.904 -11.176 -23.029  0.00  0.00    +0.036 C 
ATOM     21  C   UNL     1      32.837  -8.364 -23.100  0.00  0.00    -0.009 C 
ATOM     22  C   UNL     1      32.676  -6.858 -23.163  0.00  0.00    +0.028 C 
ATOM     23  C   UNL     1      34.054  -9.034 -23.358  0.00  0.00    +0.041 C 
ATOM     24  C   UNL     1      33.395  -6.217 -24.350  0.00  0.00    +0.006 C 
ATOM     25  C   UNL     1      34.897  -6.027 -24.144  0.00  0.00    +0.022 C 
ATOM     26  C   UNL     1      34.053 -10.445 -23.333  0.00  0.00    +0.017 C 
ATOM     27  C   UNL     1      35.554  -7.043 -23.220  0.00  0.00    +0.087 C 
ATOM     28  C   UNL     1      31.723 -10.511 -22.740  0.00  0.00    +0.003 C 
ATOM     29  C   UNL     1      31.690  -9.118 -22.773  0.00  0.00    -0.003 C 
ATOM     30  H   UNL     1      35.962  -8.909 -24.090  0.00  0.00    +0.147 HD
ENDBRANCH  18  20
ENDBRANCH  16  18
ENDBRANCH   1  16
TORSDOF 6
ENDMDL
MODEL 6
REMARK VINA RESULT:     -11.3      4.087     10.869
REMARK  Name = 198752
REMARK  6 active torsions:
REMARK  status: ('A' for Active; 'I' for Inactive)
REMARK    1  A    between atoms: C_1  and  C_3
REMARK    2  A    between atoms: C_1  and  C_16
REMARK    3  A    between atoms: N_2  and  C_9
REMARK    4  A    between atoms: C_9  and  C_10
REMARK    5  A    between atoms: C_16  and  C_18
REMARK    6  A    between atoms: C_18  and  C_20
REMARK                            x       y       z     vdW  Elec       q    Type
REMARK                         _______ _______ _______ _____ _____    ______ ____
ROOT
ATOM      1  C   UNL     1      34.411 -15.916 -24.258  0.00  0.00    +0.008 C 
ENDROOT
BRANCH   1   3
ATOM      2  N   UNL     1      35.270 -19.032 -21.392  0.00  0.00    +0.390 N 
ATOM      3  C   UNL     1      35.179 -16.994 -23.498  0.00  0.00    -0.004 C 
ATOM      4  C   UNL     1      34.502 -18.360 -23.646  0.00  0.00    -0.023 C 
ATOM      5  C   UNL     1      35.305 -16.637 -22.013  0.00  0.00    -0.023 C 
ATOM      6  C   UNL     1      35.209 -19.426 -22.806  0.00  0.00    -0.077 C 
ATOM      7  C   UNL     1      35.985 -17.760 -21.227  0.00  0.00    -0.077 C 
ATOM      8  H   UNL     1      34.315 -18.901 -21.061  0.00  0.00    -0.079 HD
BRANCH   2   9
ATOM      9  C   UNL     1      35.902 -20.082 -20.594  0.00  0.00    -0.050 C 
BRANCH   9  10
ATOM     10  C   UNL     1      34.901 -20.822 -19.747  0.00  0.00    -0.043 C 
ATOM     11  C   UNL     1      35.339 -21.819 -18.886  0.00  0.00    -0.006 C 
ATOM     12  C   UNL     1      33.555 -20.498 -19.838  0.00  0.00    -0.006 C 
ATOM     13  C   UNL     1      34.411 -22.505 -18.102  0.00  0.00    -0.000 C 
ATOM     14  C   UNL     1      32.628 -21.182 -19.054  0.00  0.00    -0.000 C 
ATOM     15  C   UNL     1      33.056 -22.187 -18.186  0.00  0.00    -0.000 C 
ENDBRANCH   9  10
ENDBRANCH   2   9
ENDBRANCH   1   3
BRANCH   1  16
ATOM     16  C   UNL     1      34.174 -14.679 -23.391  0.00  0.00    +0.069 C 
BRANCH  16  18
ATOM     17  O   UNL     1      32.788 -13.863 -25.187  0.00  0.00    -0.291 OA
ATOM     18  C   UNL     1      33.255 -13.634 -24.051  0.00  0.00    +0.173 C 
BRANCH  18  20
ATOM     19  N   UNL     1      31.566 -11.415 -20.075  0.00  0.00    -0.333 N 
ATOM     20  C   UNL     1      32.942 -12.399 -23.352  0.00  0.00    +0.036 C 
ATOM     21  C   UNL     1      32.342 -10.020 -21.974  0.00  0.00    -0.009 C 
ATOM     22  C   UNL     1      32.103  -8.680 -21.307  0.00  0.00    +0.028 C 
ATOM     23  C   UNL     1      32.113 -11.263 -21.342  0.00  0.00    +0.041 C 
ATOM     24  C   UNL     1      32.572  -8.631 -19.853  0.00  0.00    +0.006 C 
ATOM     25  C   UNL     1      31.603  -9.274 -18.861  0.00  0.00    +0.022 C 
ATOM     26  C   UNL     1      32.440 -12.439 -22.051  0.00  0.00    +0.017 C 
ATOM     27  C   UNL     1      30.758 -10.405 -19.428  0.00  0.00    +0.087 C 
ATOM     28  C   UNL     1      33.128 -11.177 -23.980  0.00  0.00    +0.003 C 
ATOM     29  C   UNL     1      32.829  -9.999 -23.299  0.00  0.00    -0.003 C 
ATOM     30  H   UNL     1      31.736 -12.256 -19.592  0.00  0.00    +0.147 HD
ENDBRANCH  18  20
ENDBRANCH  16  18
ENDBRANCH   1  16
TORSDOF 6
ENDMDL
MODEL 7
REMARK VINA RESULT:     -11.2      4.612     12.013
REMARK  Name = 198752
REMARK  6 active torsions:
REMARK  status: ('A' for Active; 'I' for Inactive)
REMARK    1  A    between atoms: C_1  and  C_3
REMARK    2  A    between atoms: C_1  and  C_16
REMARK    3  A    between atoms: N_2  and  C_9
REMARK    4  A    between atoms: C_9  and  C_10
REMARK    5  A    between atoms: C_16  and  C_18
REMARK    6  A    between atoms: C_18  and  C_20
REMARK                            x       y       z     vdW  Elec       q    Type
REMARK                         _______ _______ _______ _____ _____    ______ ____
ROOT
ATOM      1  C   UNL     1      33.663 -15.221 -24.644  0.00  0.00    +0.008 C 
ENDROOT
BRANCH   1   3
ATOM      2  N   UNL     1      35.207 -18.182 -21.904  0.00  0.00    +0.390 N 
ATOM      3  C   UNL     1      34.658 -16.115 -23.910  0.00  0.00    -0.004 C 
ATOM      4  C   UNL     1      34.345 -17.597 -24.148  0.00  0.00    -0.023 C 
ATOM      5  C   UNL     1      34.659 -15.822 -22.406  0.00  0.00    -0.023 C 
ATOM      6  C   UNL     1      35.276 -18.499 -23.336  0.00  0.00    -0.077 C 
ATOM      7  C   UNL     1      35.580 -16.783 -21.652  0.00  0.00    -0.077 C 
ATOM      8  H   UNL     1      34.242 -18.309 -21.600  0.00  0.00    -0.079 HD
BRANCH   2   9
ATOM      9  C   UNL     1      36.062 -19.085 -21.135  0.00  0.00    -0.050 C 
BRANCH   9  10
ATOM     10  C   UNL     1      35.258 -20.083 -20.346  0.00  0.00    -0.043 C 
ATOM     11  C   UNL     1      33.871 -20.012 -20.368  0.00  0.00    -0.006 C 
ATOM     12  C   UNL     1      35.912 -21.059 -19.607  0.00  0.00    -0.006 C 
ATOM     13  C   UNL     1      33.126 -20.936 -19.635  0.00  0.00    -0.000 C 
ATOM     14  C   UNL     1      35.166 -21.983 -18.876  0.00  0.00    -0.000 C 
ATOM     15  C   UNL     1      33.773 -21.921 -18.889  0.00  0.00    -0.000 C 
ENDBRANCH   9  10
ENDBRANCH   2   9
ENDBRANCH   1   3
BRANCH   1  16
ATOM     16  C   UNL     1      34.038 -13.744 -24.518  0.00  0.00    +0.069 C 
BRANCH  16  18
ATOM     17  O   UNL     1      32.135 -13.533 -23.053  0.00  0.00    -0.291 OA
ATOM     18  C   UNL     1      33.080 -12.943 -23.616  0.00  0.00    +0.173 C 
BRANCH  18  20
ATOM     19  N   UNL     1      31.316  -8.630 -22.247  0.00  0.00    -0.333 N 
ATOM     20  C   UNL     1      33.285 -11.516 -23.428  0.00  0.00    +0.036 C 
ATOM     21  C   UNL     1      33.662  -8.754 -23.041  0.00  0.00    -0.009 C 
ATOM     22  C   UNL     1      33.991  -7.290 -22.825  0.00  0.00    +0.028 C 
ATOM     23  C   UNL     1      32.415  -9.334 -22.717  0.00  0.00    +0.041 C 
ATOM     24  C   UNL     1      33.478  -6.740 -21.494  0.00  0.00    +0.006 C 
ATOM     25  C   UNL     1      31.991  -6.386 -21.495  0.00  0.00    +0.022 C 
ATOM     26  C   UNL     1      32.261 -10.725 -22.905  0.00  0.00    +0.017 C 
ATOM     27  C   UNL     1      31.134  -7.209 -22.444  0.00  0.00    +0.087 C 
ATOM     28  C   UNL     1      34.492 -10.933 -23.778  0.00  0.00    +0.003 C 
ATOM     29  C   UNL     1      34.679  -9.566 -23.588  0.00  0.00    -0.003 C 
ATOM     30  H   UNL     1      30.622  -9.124 -21.753  0.00  0.00    +0.147 HD
ENDBRANCH  18  20
ENDBRANCH  16  18
ENDBRANCH   1  16
TORSDOF 6
ENDMDL
MODEL 8
REMARK VINA RESULT:     -11.2      3.002      4.968
REMARK  Name = 198752
REMARK  6 active torsions:
REMARK  status: ('A' for Active; 'I' for Inactive)
REMARK    1  A    between atoms: C_1  and  C_3
REMARK    2  A    between atoms: C_1  and  C_16
REMARK    3  A    between atoms: N_2  and  C_9
REMARK    4  A    between atoms: C_9  and  C_10
REMARK    5  A    between atoms: C_16  and  C_18
REMARK    6  A    between atoms: C_18  and  C_20
REMARK                            x       y       z     vdW  Elec       q    Type
REMARK                         _______ _______ _______ _____ _____    ______ ____
ROOT
ATOM      1  C   UNL     1      32.732 -22.323 -17.960  0.00  0.00    +0.008 C 
ENDROOT
BRANCH   1   3
ATOM      2  N   UNL     1      35.452 -19.767 -20.134  0.00  0.00    +0.390 N 
ATOM      3  C   UNL     1      33.654 -21.823 -19.069  0.00  0.00    -0.004 C 
ATOM      4  C   UNL     1      35.084 -21.632 -18.552  0.00  0.00    -0.023 C 
ATOM      5  C   UNL     1      33.139 -20.508 -19.663  0.00  0.00    -0.023 C 
ATOM      6  C   UNL     1      35.991 -21.036 -19.630  0.00  0.00    -0.077 C 
ATOM      7  C   UNL     1      34.110 -19.949 -20.704  0.00  0.00    -0.077 C 
ATOM      8  H   UNL     1      35.373 -19.123 -19.347  0.00  0.00    -0.079 HD
BRANCH   2   9
ATOM      9  C   UNL     1      36.354 -19.183 -21.127  0.00  0.00    -0.050 C 
BRANCH   9  10
ATOM     10  C   UNL     1      35.601 -18.547 -22.264  0.00  0.00    -0.043 C 
ATOM     11  C   UNL     1      34.968 -19.353 -23.200  0.00  0.00    -0.006 C 
ATOM     12  C   UNL     1      35.549 -17.163 -22.361  0.00  0.00    -0.006 C 
ATOM     13  C   UNL     1      34.270 -18.763 -24.254  0.00  0.00    -0.000 C 
ATOM     14  C   UNL     1      34.851 -16.573 -23.414  0.00  0.00    -0.000 C 
ATOM     15  C   UNL     1      34.212 -17.374 -24.361  0.00  0.00    -0.000 C 
ENDBRANCH   9  10
ENDBRANCH   2   9
ENDBRANCH   1   3
BRANCH   1  16
ATOM     16  C   UNL     1      33.386 -23.441 -17.148  0.00  0.00    +0.069 C 
BRANCH  16  18
ATOM     17  O   UNL     1      32.050 -22.819 -15.241  0.00  0.00    -0.291 OA
ATOM     18  C   UNL     1      33.114 -23.340 -15.636  0.00  0.00    +0.173 C 
BRANCH  18  20
ATOM     19  N   UNL     1      37.486 -25.283 -14.801  0.00  0.00    -0.333 N 
ATOM     20  C   UNL     1      34.090 -23.849 -14.687  0.00  0.00    +0.036 C 
ATOM     21  C   UNL     1      36.002 -24.825 -12.867  0.00  0.00    -0.009 C 
ATOM     22  C   UNL     1      36.975 -25.279 -11.797  0.00  0.00    +0.028 C 
ATOM     23  C   UNL     1      36.305 -24.809 -14.247  0.00  0.00    +0.041 C 
ATOM     24  C   UNL     1      38.404 -24.785 -12.022  0.00  0.00    +0.006 C 
ATOM     25  C   UNL     1      39.190 -25.594 -13.053  0.00  0.00    +0.022 C 
ATOM     26  C   UNL     1      35.334 -24.298 -15.134  0.00  0.00    +0.017 C 
ATOM     27  C   UNL     1      38.348 -26.239 -14.144  0.00  0.00    +0.087 C 
ATOM     28  C   UNL     1      33.786 -23.902 -13.336  0.00  0.00    +0.003 C 
ATOM     29  C   UNL     1      34.732 -24.387 -12.434  0.00  0.00    -0.003 C 
ATOM     30  H   UNL     1      37.750 -24.952 -15.690  0.00  0.00    +0.147 HD
ENDBRANCH  18  20
ENDBRANCH  16  18
ENDBRANCH   1  16
TORSDOF 6
ENDMDL
MODEL 9
REMARK VINA RESULT:     -11.1      2.789     10.307
REMARK  Name = 198752
REMARK  6 active torsions:
REMARK  status: ('A' for Active; 'I' for Inactive)
REMARK    1  A    between atoms: C_1  and  C_3
REMARK    2  A    between atoms: C_1  and  C_16
REMARK    3  A    between atoms: N_2  and  C_9
REMARK    4  A    between atoms: C_9  and  C_10
REMARK    5  A    between atoms: C_16  and  C_18
REMARK    6  A    between atoms: C_18  and  C_20
REMARK                            x       y       z     vdW  Elec       q    Type
REMARK                         _______ _______ _______ _____ _____    ______ ____
ROOT
ATOM      1  C   UNL     1      36.269 -18.183 -21.144  0.00  0.00    +0.008 C 
ENDROOT
BRANCH   1   3
ATOM      2  N   UNL     1      34.441 -21.508 -19.082  0.00  0.00    +0.390 N 
ATOM      3  C   UNL     1      35.676 -19.567 -20.899  0.00  0.00    -0.004 C 
ATOM      4  C   UNL     1      34.211 -19.469 -20.462  0.00  0.00    -0.023 C 
ATOM      5  C   UNL     1      36.481 -20.332 -19.842  0.00  0.00    -0.023 C 
ATOM      6  C   UNL     1      33.639 -20.845 -20.118  0.00  0.00    -0.077 C 
ATOM      7  C   UNL     1      35.833 -21.679 -19.518  0.00  0.00    -0.077 C 
ATOM      8  H   UNL     1      34.443 -20.912 -18.255  0.00  0.00    -0.079 HD
BRANCH   2   9
ATOM      9  C   UNL     1      33.854 -22.800 -18.726  0.00  0.00    -0.050 C 
BRANCH   9  10
ATOM     10  C   UNL     1      33.544 -22.889 -17.256  0.00  0.00    -0.043 C 
ATOM     11  C   UNL     1      32.221 -22.917 -16.837  0.00  0.00    -0.006 C 
ATOM     12  C   UNL     1      34.584 -22.943 -16.338  0.00  0.00    -0.006 C 
ATOM     13  C   UNL     1      31.933 -22.999 -15.474  0.00  0.00    -0.000 C 
ATOM     14  C   UNL     1      34.297 -23.025 -14.977  0.00  0.00    -0.000 C 
ATOM     15  C   UNL     1      32.971 -23.053 -14.544  0.00  0.00    -0.000 C 
ENDBRANCH   9  10
ENDBRANCH   2   9
ENDBRANCH   1   3
BRANCH   1  16
ATOM     16  C   UNL     1      35.291 -17.278 -21.895  0.00  0.00    +0.069 C 
BRANCH  16  18
ATOM     17  O   UNL     1      35.018 -16.016 -19.859  0.00  0.00    -0.291 OA
ATOM     18  C   UNL     1      34.883 -16.023 -21.100  0.00  0.00    +0.173 C 
BRANCH  18  20
ATOM     19  N   UNL     1      32.110 -12.036 -21.031  0.00  0.00    -0.333 N 
ATOM     20  C   UNL     1      34.348 -14.865 -21.798  0.00  0.00    +0.036 C 
ATOM     21  C   UNL     1      33.313 -12.609 -23.123  0.00  0.00    -0.009 C 
ATOM     22  C   UNL     1      32.855 -11.401 -23.916  0.00  0.00    +0.028 C 
ATOM     23  C   UNL     1      32.970 -12.836 -21.771  0.00  0.00    +0.041 C 
ATOM     24  C   UNL     1      32.916 -10.094 -23.126  0.00  0.00    +0.006 C 
ATOM     25  C   UNL     1      31.742  -9.886 -22.170  0.00  0.00    +0.022 C 
ATOM     26  C   UNL     1      33.519 -13.965 -21.127  0.00  0.00    +0.017 C 
ATOM     27  C   UNL     1      31.122 -11.164 -21.624  0.00  0.00    +0.087 C 
ATOM     28  C   UNL     1      34.650 -14.657 -23.134  0.00  0.00    +0.003 C 
ATOM     29  C   UNL     1      34.136 -13.541 -23.791  0.00  0.00    -0.003 C 
ATOM     30  H   UNL     1      32.176 -12.066 -20.048  0.00  0.00    +0.147 HD
ENDBRANCH  18  20
ENDBRANCH  16  18
ENDBRANCH   1  16
TORSDOF 6
ENDMDL
