MODEL 1
REMARK VINA RESULT:     -10.9      0.000      0.000
REMARK  Name = 5287936
REMARK  3 active torsions:
REMARK  status: ('A' for Active; 'I' for Inactive)
REMARK    1  A    between atoms: C_5  and  C_10
REMARK    2  A    between atoms: C_7  and  C_21
REMARK    3  A    between atoms: C_11  and  N_17
REMARK                            x       y       z     vdW  Elec       q    Type
REMARK                         _______ _______ _______ _____ _____    ______ ____
ROOT
ATOM      1  N   UNL     1      33.202 -23.828 -14.486  0.00  0.00    -0.191 N 
ATOM      2  N   UNL     1      34.019 -23.272 -15.414  0.00  0.00    -0.162 NA
ATOM      3  N   UNL     1      32.496 -24.757 -12.631  0.00  0.00    -0.127 NA
ATOM      4  N   UNL     1      31.413 -24.601 -13.472  0.00  0.00    -0.127 NA
ATOM      5  C   UNL     1      33.555 -24.292 -13.252  0.00  0.00    +0.187 A 
ATOM      6  C   UNL     1      31.847 -24.042 -14.582  0.00  0.00    +0.187 A 
ATOM      7  C   UNL     1      33.406 -22.910 -16.505  0.00  0.00    +0.101 C 
ATOM      8  C   UNL     1      31.213 -23.656 -15.779  0.00  0.00    +0.042 C 
ATOM      9  C   UNL     1      31.940 -23.096 -16.757  0.00  0.00    +0.024 C 
ENDROOT
BRANCH   5  10
ATOM     10  C   UNL     1      34.901 -24.262 -12.734  0.00  0.00    +0.039 C 
ATOM     11  C   UNL     1      37.287 -24.390 -13.094  0.00  0.00    +0.054 C 
ATOM     12  C   UNL     1      35.986 -24.420 -13.596  0.00  0.00    +0.018 C 
ATOM     13  C   UNL     1      35.118 -24.074 -11.368  0.00  0.00    +0.003 C 
ATOM     14  C   UNL     1      37.503 -24.202 -11.729  0.00  0.00    +0.015 C 
ATOM     15  C   UNL     1      36.418 -24.045 -10.866  0.00  0.00    +0.001 C 
BRANCH  11  17
ATOM     16  O   UNL     1      39.370 -26.389 -12.870  0.00  0.00    -0.275 OA
ATOM     17  N   UNL     1      38.372 -24.548 -13.958  0.00  0.00    -0.257 N 
ATOM     18  C   UNL     1      38.470 -23.648 -15.149  0.00  0.00    +0.120 C 
ATOM     19  C   UNL     1      39.351 -25.590 -13.809  0.00  0.00    +0.230 C 
ATOM     20  C   UNL     1      40.402 -25.740 -14.885  0.00  0.00    +0.095 C 
ENDBRANCH  11  17
ENDBRANCH   5  10
BRANCH   7  21
ATOM     21  C   UNL     1      34.192 -22.280 -17.598  0.00  0.00    +0.019 C 
ATOM     22  C   UNL     1      35.577 -22.177 -17.488  0.00  0.00    +0.002 C 
ATOM     23  C   UNL     1      33.540 -21.795 -18.730  0.00  0.00    +0.002 C 
ATOM     24  C   UNL     1      36.314 -21.585 -18.513  0.00  0.00    +0.000 C 
ATOM     25  C   UNL     1      34.278 -21.204 -19.756  0.00  0.00    +0.000 C 
ATOM     26  C   UNL     1      35.664 -21.099 -19.647  0.00  0.00    +0.000 C 
ENDBRANCH   7  21
TORSDOF 3
ENDMDL
MODEL 2
REMARK VINA RESULT:     -10.5      3.170      7.239
REMARK  Name = 5287936
REMARK  3 active torsions:
REMARK  status: ('A' for Active; 'I' for Inactive)
REMARK    1  A    between atoms: C_5  and  C_10
REMARK    2  A    between atoms: C_7  and  C_21
REMARK    3  A    between atoms: C_11  and  N_17
REMARK                            x       y       z     vdW  Elec       q    Type
REMARK                         _______ _______ _______ _____ _____    ______ ____
ROOT
ATOM      1  N   UNL     1      34.522 -23.029 -16.236  0.00  0.00    -0.191 N 
ATOM      2  N   UNL     1      33.174 -23.158 -16.172  0.00  0.00    -0.162 NA
ATOM      3  N   UNL     1      36.523 -22.455 -16.922  0.00  0.00    -0.127 NA
ATOM      4  N   UNL     1      36.661 -23.185 -15.758  0.00  0.00    -0.127 NA
ATOM      5  C   UNL     1      35.241 -22.373 -17.193  0.00  0.00    +0.187 A 
ATOM      6  C   UNL     1      35.455 -23.524 -15.355  0.00  0.00    +0.187 A 
ATOM      7  C   UNL     1      32.759 -23.832 -15.138  0.00  0.00    +0.101 C 
ATOM      8  C   UNL     1      34.978 -24.263 -14.255  0.00  0.00    +0.042 C 
ATOM      9  C   UNL     1      33.658 -24.444 -14.107  0.00  0.00    +0.024 C 
ENDROOT
BRANCH   5  10
ATOM     10  C   UNL     1      34.652 -21.697 -18.323  0.00  0.00    +0.039 C 
ATOM     11  C   UNL     1      34.884 -20.306 -20.285  0.00  0.00    +0.054 C 
ATOM     12  C   UNL     1      35.455 -20.958 -19.192  0.00  0.00    +0.018 C 
ATOM     13  C   UNL     1      33.278 -21.783 -18.547  0.00  0.00    +0.003 C 
ATOM     14  C   UNL     1      33.510 -20.392 -20.509  0.00  0.00    +0.015 C 
ATOM     15  C   UNL     1      32.707 -21.130 -19.639  0.00  0.00    +0.001 C 
BRANCH  11  17
ATOM     16  O   UNL     1      37.467 -19.154 -19.660  0.00  0.00    -0.275 OA
ATOM     17  N   UNL     1      35.688 -19.568 -21.155  0.00  0.00    -0.257 N 
ATOM     18  C   UNL     1      35.224 -19.378 -22.564  0.00  0.00    +0.120 C 
ATOM     19  C   UNL     1      36.981 -19.058 -20.789  0.00  0.00    +0.230 C 
ATOM     20  C   UNL     1      37.813 -18.391 -21.861  0.00  0.00    +0.095 C 
ENDBRANCH  11  17
ENDBRANCH   5  10
BRANCH   7  21
ATOM     21  C   UNL     1      31.298 -24.038 -14.952  0.00  0.00    +0.019 C 
ATOM     22  C   UNL     1      30.394 -23.117 -15.474  0.00  0.00    +0.002 C 
ATOM     23  C   UNL     1      30.839 -25.153 -14.253  0.00  0.00    +0.002 C 
ATOM     24  C   UNL     1      29.025 -23.310 -15.298  0.00  0.00    +0.000 C 
ATOM     25  C   UNL     1      29.470 -25.347 -14.077  0.00  0.00    +0.000 C 
ATOM     26  C   UNL     1      28.562 -24.425 -14.599  0.00  0.00    +0.000 C 
ENDBRANCH   7  21
TORSDOF 3
ENDMDL
MODEL 3
REMARK VINA RESULT:     -10.0      3.088      5.817
REMARK  Name = 5287936
REMARK  3 active torsions:
REMARK  status: ('A' for Active; 'I' for Inactive)
REMARK    1  A    between atoms: C_5  and  C_10
REMARK    2  A    between atoms: C_7  and  C_21
REMARK    3  A    between atoms: C_11  and  N_17
REMARK                            x       y       z     vdW  Elec       q    Type
REMARK                         _______ _______ _______ _____ _____    ______ ____
ROOT
ATOM      1  N   UNL     1      35.416 -23.283 -15.184  0.00  0.00    -0.191 N 
ATOM      2  N   UNL     1      34.787 -22.766 -16.268  0.00  0.00    -0.162 NA
ATOM      3  N   UNL     1      35.767 -24.311 -13.281  0.00  0.00    -0.127 NA
ATOM      4  N   UNL     1      36.982 -23.859 -13.755  0.00  0.00    -0.127 NA
ATOM      5  C   UNL     1      34.844 -23.958 -14.145  0.00  0.00    +0.187 A 
ATOM      6  C   UNL     1      36.761 -23.243 -14.897  0.00  0.00    +0.187 A 
ATOM      7  C   UNL     1      35.588 -22.178 -17.110  0.00  0.00    +0.101 C 
ATOM      8  C   UNL     1      37.600 -22.586 -15.817  0.00  0.00    +0.042 C 
ATOM      9  C   UNL     1      37.068 -22.043 -16.922  0.00  0.00    +0.024 C 
ENDROOT
BRANCH   5  10
ATOM     10  C   UNL     1      33.431 -24.229 -14.040  0.00  0.00    +0.039 C 
ATOM     11  C   UNL     1      31.173 -23.914 -14.841  0.00  0.00    +0.054 C 
ATOM     12  C   UNL     1      32.539 -23.650 -14.943  0.00  0.00    +0.018 C 
ATOM     13  C   UNL     1      32.957 -25.072 -13.035  0.00  0.00    +0.003 C 
ATOM     14  C   UNL     1      30.699 -24.756 -13.836  0.00  0.00    +0.015 C 
ATOM     15  C   UNL     1      31.591 -25.335 -12.932  0.00  0.00    +0.001 C 
BRANCH  11  17
ATOM     16  O   UNL     1      28.307 -24.320 -14.907  0.00  0.00    -0.275 OA
ATOM     17  N   UNL     1      30.281 -23.335 -15.745  0.00  0.00    -0.257 N 
ATOM     18  C   UNL     1      30.817 -22.370 -16.754  0.00  0.00    +0.120 C 
ATOM     19  C   UNL     1      28.861 -23.550 -15.695  0.00  0.00    +0.230 C 
ATOM     20  C   UNL     1      27.987 -22.761 -16.643  0.00  0.00    +0.095 C 
ENDBRANCH  11  17
ENDBRANCH   5  10
BRANCH   7  21
ATOM     21  C   UNL     1      35.019 -21.575 -18.345  0.00  0.00    +0.019 C 
ATOM     22  C   UNL     1      33.655 -21.682 -18.605  0.00  0.00    +0.002 C 
ATOM     23  C   UNL     1      35.853 -20.906 -19.237  0.00  0.00    +0.002 C 
ATOM     24  C   UNL     1      33.122 -21.118 -19.764  0.00  0.00    +0.000 C 
ATOM     25  C   UNL     1      35.320 -20.341 -20.395  0.00  0.00    +0.000 C 
ATOM     26  C   UNL     1      33.954 -20.447 -20.659  0.00  0.00    +0.000 C 
ENDBRANCH   7  21
TORSDOF 3
ENDMDL
MODEL 4
REMARK VINA RESULT:      -9.8     13.081     16.550
REMARK  Name = 5287936
REMARK  3 active torsions:
REMARK  status: ('A' for Active; 'I' for Inactive)
REMARK    1  A    between atoms: C_5  and  C_10
REMARK    2  A    between atoms: C_7  and  C_21
REMARK    3  A    between atoms: C_11  and  N_17
REMARK                            x       y       z     vdW  Elec       q    Type
REMARK                         _______ _______ _______ _____ _____    ______ ____
ROOT
ATOM      1  N   UNL     1      32.181 -11.115 -21.041  0.00  0.00    -0.191 N 
ATOM      2  N   UNL     1      32.623 -11.849 -22.092  0.00  0.00    -0.162 NA
ATOM      3  N   UNL     1      31.436  -9.432 -19.850  0.00  0.00    -0.127 NA
ATOM      4  N   UNL     1      31.556 -10.527 -19.019  0.00  0.00    -0.127 NA
ATOM      5  C   UNL     1      31.814  -9.801 -21.053  0.00  0.00    +0.187 A 
ATOM      6  C   UNL     1      32.003 -11.532 -19.742  0.00  0.00    +0.187 A 
ATOM      7  C   UNL     1      32.894 -13.087 -21.791  0.00  0.00    +0.101 C 
ATOM      8  C   UNL     1      32.320 -12.871 -19.443  0.00  0.00    +0.042 C 
ATOM      9  C   UNL     1      32.765 -13.676 -20.418  0.00  0.00    +0.024 C 
ENDROOT
BRANCH   5  10
ATOM     10  C   UNL     1      31.846  -8.964 -22.228  0.00  0.00    +0.039 C 
ATOM     11  C   UNL     1      33.068  -7.541 -23.751  0.00  0.00    +0.054 C 
ATOM     12  C   UNL     1      33.037  -8.348 -22.614  0.00  0.00    +0.018 C 
ATOM     13  C   UNL     1      30.686  -8.772 -22.978  0.00  0.00    +0.003 C 
ATOM     14  C   UNL     1      31.908  -7.349 -24.501  0.00  0.00    +0.015 C 
ATOM     15  C   UNL     1      30.717  -7.965 -24.115  0.00  0.00    +0.001 C 
BRANCH  11  17
ATOM     16  O   UNL     1      33.491  -6.017 -26.177  0.00  0.00    -0.275 OA
ATOM     17  N   UNL     1      34.259  -6.925 -24.138  0.00  0.00    -0.257 N 
ATOM     18  C   UNL     1      35.431  -6.998 -23.212  0.00  0.00    +0.120 C 
ATOM     19  C   UNL     1      34.388  -6.149 -25.341  0.00  0.00    +0.230 C 
ATOM     20  C   UNL     1      35.690  -5.419 -25.582  0.00  0.00    +0.095 C 
ENDBRANCH  11  17
ENDBRANCH   5  10
BRANCH   7  21
ATOM     21  C   UNL     1      33.382 -13.998 -22.860  0.00  0.00    +0.019 C 
ATOM     22  C   UNL     1      32.889 -13.874 -24.157  0.00  0.00    +0.002 C 
ATOM     23  C   UNL     1      34.330 -14.974 -22.560  0.00  0.00    +0.002 C 
ATOM     24  C   UNL     1      33.346 -14.730 -25.159  0.00  0.00    +0.000 C 
ATOM     25  C   UNL     1      34.788 -15.828 -23.562  0.00  0.00    +0.000 C 
ATOM     26  C   UNL     1      34.296 -15.707 -24.861  0.00  0.00    +0.000 C 
ENDBRANCH   7  21
TORSDOF 3
ENDMDL
MODEL 5
REMARK VINA RESULT:      -9.8     13.129     16.738
REMARK  Name = 5287936
REMARK  3 active torsions:
REMARK  status: ('A' for Active; 'I' for Inactive)
REMARK    1  A    between atoms: C_5  and  C_10
REMARK    2  A    between atoms: C_7  and  C_21
REMARK    3  A    between atoms: C_11  and  N_17
REMARK                            x       y       z     vdW  Elec       q    Type
REMARK                         _______ _______ _______ _____ _____    ______ ____
ROOT
ATOM      1  N   UNL     1      32.185 -11.282 -21.017  0.00  0.00    -0.191 N 
ATOM      2  N   UNL     1      32.658 -12.012 -22.057  0.00  0.00    -0.162 NA
ATOM      3  N   UNL     1      31.399  -9.606 -19.844  0.00  0.00    -0.127 NA
ATOM      4  N   UNL     1      31.506 -10.700 -19.010  0.00  0.00    -0.127 NA
ATOM      5  C   UNL     1      31.810  -9.970 -21.037  0.00  0.00    +0.187 A 
ATOM      6  C   UNL     1      31.979 -11.701 -19.723  0.00  0.00    +0.187 A 
ATOM      7  C   UNL     1      32.931 -13.249 -21.750  0.00  0.00    +0.101 C 
ATOM      8  C   UNL     1      32.297 -13.038 -19.417  0.00  0.00    +0.042 C 
ATOM      9  C   UNL     1      32.772 -13.839 -20.382  0.00  0.00    +0.024 C 
ENDROOT
BRANCH   5  10
ATOM     10  C   UNL     1      31.865  -9.133 -22.210  0.00  0.00    +0.039 C 
ATOM     11  C   UNL     1      31.655  -6.958 -23.242  0.00  0.00    +0.054 C 
ATOM     12  C   UNL     1      31.600  -7.767 -22.107  0.00  0.00    +0.018 C 
ATOM     13  C   UNL     1      32.185  -9.690 -23.449  0.00  0.00    +0.003 C 
ATOM     14  C   UNL     1      31.975  -7.515 -24.480  0.00  0.00    +0.015 C 
ATOM     15  C   UNL     1      32.239  -8.881 -24.584  0.00  0.00    +0.001 C 
BRANCH  11  17
ATOM     16  O   UNL     1      32.469  -5.221 -21.073  0.00  0.00    -0.275 OA
ATOM     17  N   UNL     1      31.391  -5.592 -23.139  0.00  0.00    -0.257 N 
ATOM     18  C   UNL     1      30.665  -4.921 -24.262  0.00  0.00    +0.120 C 
ATOM     19  C   UNL     1      31.860  -4.780 -22.050  0.00  0.00    +0.230 C 
ATOM     20  C   UNL     1      31.625  -3.288 -22.120  0.00  0.00    +0.095 C 
ENDBRANCH  11  17
ENDBRANCH   5  10
BRANCH   7  21
ATOM     21  C   UNL     1      33.451 -14.155 -22.807  0.00  0.00    +0.019 C 
ATOM     22  C   UNL     1      32.960 -14.061 -24.107  0.00  0.00    +0.002 C 
ATOM     23  C   UNL     1      34.429 -15.096 -22.493  0.00  0.00    +0.002 C 
ATOM     24  C   UNL     1      33.448 -14.912 -25.098  0.00  0.00    +0.000 C 
ATOM     25  C   UNL     1      34.918 -15.947 -23.484  0.00  0.00    +0.000 C 
ATOM     26  C   UNL     1      34.427 -15.856 -24.787  0.00  0.00    +0.000 C 
ENDBRANCH   7  21
TORSDOF 3
ENDMDL
MODEL 6
REMARK VINA RESULT:      -9.7      3.180      7.530
REMARK  Name = 5287936
REMARK  3 active torsions:
REMARK  status: ('A' for Active; 'I' for Inactive)
REMARK    1  A    between atoms: C_5  and  C_10
REMARK    2  A    between atoms: C_7  and  C_21
REMARK    3  A    between atoms: C_11  and  N_17
REMARK                            x       y       z     vdW  Elec       q    Type
REMARK                         _______ _______ _______ _____ _____    ______ ____
ROOT
ATOM      1  N   UNL     1      34.590 -22.864 -16.281  0.00  0.00    -0.191 N 
ATOM      2  N   UNL     1      35.093 -23.307 -15.102  0.00  0.00    -0.162 NA
ATOM      3  N   UNL     1      33.177 -22.379 -17.884  0.00  0.00    -0.127 NA
ATOM      4  N   UNL     1      34.436 -21.982 -18.287  0.00  0.00    -0.127 NA
ATOM      5  C   UNL     1      33.287 -22.903 -16.686  0.00  0.00    +0.187 A 
ATOM      6  C   UNL     1      35.277 -22.278 -17.318  0.00  0.00    +0.187 A 
ATOM      7  C   UNL     1      36.379 -23.134 -14.981  0.00  0.00    +0.101 C 
ATOM      8  C   UNL     1      36.668 -22.118 -17.166  0.00  0.00    +0.042 C 
ATOM      9  C   UNL     1      37.257 -22.526 -16.033  0.00  0.00    +0.024 C 
ENDROOT
BRANCH   5  10
ATOM     10  C   UNL     1      32.212 -23.447 -15.892  0.00  0.00    +0.039 C 
ATOM     11  C   UNL     1      29.848 -23.695 -15.460  0.00  0.00    +0.054 C 
ATOM     12  C   UNL     1      30.887 -23.169 -16.227  0.00  0.00    +0.018 C 
ATOM     13  C   UNL     1      32.498 -24.251 -14.789  0.00  0.00    +0.003 C 
ATOM     14  C   UNL     1      30.134 -24.499 -14.357  0.00  0.00    +0.015 C 
ATOM     15  C   UNL     1      31.460 -24.777 -14.021  0.00  0.00    +0.001 C 
BRANCH  11  17
ATOM     16  O   UNL     1      28.188 -21.630 -14.292  0.00  0.00    -0.275 OA
ATOM     17  N   UNL     1      28.522 -23.418 -15.796  0.00  0.00    -0.257 N 
ATOM     18  C   UNL     1      27.885 -24.210 -16.893  0.00  0.00    +0.120 C 
ATOM     19  C   UNL     1      27.767 -22.348 -15.202  0.00  0.00    +0.230 C 
ATOM     20  C   UNL     1      26.386 -22.063 -15.746  0.00  0.00    +0.095 C 
ENDBRANCH  11  17
ENDBRANCH   5  10
BRANCH   7  21
ATOM     21  C   UNL     1      37.050 -23.574 -13.730  0.00  0.00    +0.019 C 
ATOM     22  C   UNL     1      36.656 -23.040 -12.505  0.00  0.00    +0.002 C 
ATOM     23  C   UNL     1      38.072 -24.519 -13.787  0.00  0.00    +0.002 C 
ATOM     24  C   UNL     1      37.286 -23.452 -11.332  0.00  0.00    +0.000 C 
ATOM     25  C   UNL     1      38.702 -24.932 -12.613  0.00  0.00    +0.000 C 
ATOM     26  C   UNL     1      38.310 -24.398 -11.386  0.00  0.00    +0.000 C 
ENDBRANCH   7  21
TORSDOF 3
ENDMDL
MODEL 7
REMARK VINA RESULT:      -9.6     12.192     15.251
REMARK  Name = 5287936
REMARK  3 active torsions:
REMARK  status: ('A' for Active; 'I' for Inactive)
REMARK    1  A    between atoms: C_5  and  C_10
REMARK    2  A    between atoms: C_7  and  C_21
REMARK    3  A    between atoms: C_11  and  N_17
REMARK                            x       y       z     vdW  Elec       q    Type
REMARK                         _______ _______ _______ _____ _____    ______ ____
ROOT
ATOM      1  N   UNL     1      32.367 -10.148 -21.170  0.00  0.00    -0.191 N 
ATOM      2  N   UNL     1      32.979  -9.438 -22.150  0.00  0.00    -0.162 NA
ATOM      3  N   UNL     1      31.620 -11.833 -19.983  0.00  0.00    -0.127 NA
ATOM      4  N   UNL     1      31.249 -10.664 -19.351  0.00  0.00    -0.127 NA
ATOM      5  C   UNL     1      32.286 -11.507 -21.067  0.00  0.00    +0.187 A 
ATOM      6  C   UNL     1      31.702  -9.659 -20.070  0.00  0.00    +0.187 A 
ATOM      7  C   UNL     1      32.907  -8.148 -21.987  0.00  0.00    +0.101 C 
ATOM      8  C   UNL     1      31.625  -8.259 -19.929  0.00  0.00    +0.042 C 
ATOM      9  C   UNL     1      32.202  -7.473 -20.849  0.00  0.00    +0.024 C 
ENDROOT
BRANCH   5  10
ATOM     10  C   UNL     1      32.857 -12.424 -22.024  0.00  0.00    +0.039 C 
ATOM     11  C   UNL     1      34.002 -14.494 -22.512  0.00  0.00    +0.054 C 
ATOM     12  C   UNL     1      33.451 -13.608 -21.587  0.00  0.00    +0.018 C 
ATOM     13  C   UNL     1      32.814 -12.126 -23.385  0.00  0.00    +0.003 C 
ATOM     14  C   UNL     1      33.959 -14.196 -23.874  0.00  0.00    +0.015 C 
ATOM     15  C   UNL     1      33.365 -13.011 -24.311  0.00  0.00    +0.001 C 
BRANCH  11  17
ATOM     16  O   UNL     1      34.872 -16.687 -24.192  0.00  0.00    -0.275 OA
ATOM     17  N   UNL     1      34.596 -15.679 -22.076  0.00  0.00    -0.257 N 
ATOM     18  C   UNL     1      34.869 -15.842 -20.614  0.00  0.00    +0.120 C 
ATOM     19  C   UNL     1      35.041 -16.712 -22.971  0.00  0.00    +0.230 C 
ATOM     20  C   UNL     1      35.792 -17.887 -22.386  0.00  0.00    +0.095 C 
ENDBRANCH  11  17
ENDBRANCH   5  10
BRANCH   7  21
ATOM     21  C   UNL     1      33.546  -7.258 -22.992  0.00  0.00    +0.019 C 
ATOM     22  C   UNL     1      32.755  -6.481 -23.835  0.00  0.00    +0.002 C 
ATOM     23  C   UNL     1      34.935  -7.206 -23.089  0.00  0.00    +0.002 C 
ATOM     24  C   UNL     1      33.354  -5.648 -24.779  0.00  0.00    +0.000 C 
ATOM     25  C   UNL     1      35.535  -6.373 -24.032  0.00  0.00    +0.000 C 
ATOM     26  C   UNL     1      34.745  -5.594 -24.877  0.00  0.00    +0.000 C 
ENDBRANCH   7  21
TORSDOF 3
ENDMDL
MODEL 8
REMARK VINA RESULT:      -9.5      2.278      3.847
REMARK  Name = 5287936
REMARK  3 active torsions:
REMARK  status: ('A' for Active; 'I' for Inactive)
REMARK    1  A    between atoms: C_5  and  C_10
REMARK    2  A    between atoms: C_7  and  C_21
REMARK    3  A    between atoms: C_11  and  N_17
REMARK                            x       y       z     vdW  Elec       q    Type
REMARK                         _______ _______ _______ _____ _____    ______ ____
ROOT
ATOM      1  N   UNL     1      34.109 -22.046 -17.894  0.00  0.00    -0.191 N 
ATOM      2  N   UNL     1      35.033 -21.367 -18.619  0.00  0.00    -0.162 NA
ATOM      3  N   UNL     1      33.198 -23.302 -16.347  0.00  0.00    -0.127 NA
ATOM      4  N   UNL     1      32.198 -22.872 -17.196  0.00  0.00    -0.127 NA
ATOM      5  C   UNL     1      34.332 -22.800 -16.779  0.00  0.00    +0.187 A 
ATOM      6  C   UNL     1      32.755 -22.119 -18.121  0.00  0.00    +0.187 A 
ATOM      7  C   UNL     1      34.534 -20.722 -19.634  0.00  0.00    +0.101 C 
ATOM      8  C   UNL     1      32.245 -21.425 -19.235  0.00  0.00    +0.042 C 
ATOM      9  C   UNL     1      33.083 -20.724 -20.012  0.00  0.00    +0.024 C 
ENDROOT
BRANCH   5  10
ATOM     10  C   UNL     1      35.631 -22.999 -16.185  0.00  0.00    +0.039 C 
ATOM     11  C   UNL     1      37.101 -24.254 -14.735  0.00  0.00    +0.054 C 
ATOM     12  C   UNL     1      35.843 -24.062 -15.308  0.00  0.00    +0.018 C 
ATOM     13  C   UNL     1      36.676 -22.126 -16.489  0.00  0.00    +0.003 C 
ATOM     14  C   UNL     1      38.145 -23.382 -15.038  0.00  0.00    +0.015 C 
ATOM     15  C   UNL     1      37.933 -22.317 -15.915  0.00  0.00    +0.001 C 
BRANCH  11  17
ATOM     16  O   UNL     1      37.402 -24.064 -11.861  0.00  0.00    -0.275 OA
ATOM     17  N   UNL     1      37.313 -25.319 -13.858  0.00  0.00    -0.257 N 
ATOM     18  C   UNL     1      37.343 -26.706 -14.417  0.00  0.00    +0.120 C 
ATOM     19  C   UNL     1      37.414 -25.156 -12.433  0.00  0.00    +0.230 C 
ATOM     20  C   UNL     1      37.509 -26.400 -11.579  0.00  0.00    +0.095 C 
ENDBRANCH  11  17
ENDBRANCH   5  10
BRANCH   7  21
ATOM     21  C   UNL     1      35.445 -19.933 -20.505  0.00  0.00    +0.019 C 
ATOM     22  C   UNL     1      36.767 -19.724 -20.119  0.00  0.00    +0.002 C 
ATOM     23  C   UNL     1      34.973 -19.405 -21.705  0.00  0.00    +0.002 C 
ATOM     24  C   UNL     1      37.621 -18.983 -20.935  0.00  0.00    +0.000 C 
ATOM     25  C   UNL     1      35.827 -18.665 -22.521  0.00  0.00    +0.000 C 
ATOM     26  C   UNL     1      37.151 -18.453 -22.136  0.00  0.00    +0.000 C 
ENDBRANCH   7  21
TORSDOF 3
ENDMDL
MODEL 9
REMARK VINA RESULT:      -9.4      8.415     12.353
REMARK  Name = 5287936
REMARK  3 active torsions:
REMARK  status: ('A' for Active; 'I' for Inactive)
REMARK    1  A    between atoms: C_5  and  C_10
REMARK    2  A    between atoms: C_7  and  C_21
REMARK    3  A    between atoms: C_11  and  N_17
REMARK                            x       y       z     vdW  Elec       q    Type
REMARK                         _______ _______ _______ _____ _____    ______ ____
ROOT
ATOM      1  N   UNL     1      34.534 -17.245 -23.102  0.00  0.00    -0.191 N 
ATOM      2  N   UNL     1      34.512 -17.915 -21.923  0.00  0.00    -0.162 NA
ATOM      3  N   UNL     1      34.454 -15.618 -24.567  0.00  0.00    -0.127 NA
ATOM      4  N   UNL     1      34.691 -16.796 -25.246  0.00  0.00    -0.127 NA
ATOM      5  C   UNL     1      34.363 -15.905 -23.289  0.00  0.00    +0.187 A 
ATOM      6  C   UNL     1      34.738 -17.767 -24.358  0.00  0.00    +0.187 A 
ATOM      7  C   UNL     1      34.715 -19.196 -22.042  0.00  0.00    +0.101 C 
ATOM      8  C   UNL     1      34.938 -19.157 -24.458  0.00  0.00    +0.042 C 
ATOM      9  C   UNL     1      34.933 -19.904 -23.345  0.00  0.00    +0.024 C 
ENDROOT
BRANCH   5  10
ATOM     10  C   UNL     1      34.118 -14.965 -22.222  0.00  0.00    +0.039 C 
ATOM     11  C   UNL     1      33.095 -12.929 -21.418  0.00  0.00    +0.054 C 
ATOM     12  C   UNL     1      33.332 -13.836 -22.451  0.00  0.00    +0.018 C 
ATOM     13  C   UNL     1      34.669 -15.187 -20.960  0.00  0.00    +0.003 C 
ATOM     14  C   UNL     1      33.646 -13.151 -20.156  0.00  0.00    +0.015 C 
ATOM     15  C   UNL     1      34.433 -14.280 -19.927  0.00  0.00    +0.001 C 
BRANCH  11  17
ATOM     16  O   UNL     1      33.570 -10.896 -23.424  0.00  0.00    -0.275 OA
ATOM     17  N   UNL     1      32.308 -11.800 -21.648  0.00  0.00    -0.257 N 
ATOM     18  C   UNL     1      31.067 -11.620 -20.831  0.00  0.00    +0.120 C 
ATOM     19  C   UNL     1      32.581 -10.849 -22.690  0.00  0.00    +0.230 C 
ATOM     20  C   UNL     1      31.579  -9.742 -22.925  0.00  0.00    +0.095 C 
ENDBRANCH  11  17
ENDBRANCH   5  10
BRANCH   7  21
ATOM     21  C   UNL     1      34.720 -20.041 -20.818  0.00  0.00    +0.019 C 
ATOM     22  C   UNL     1      35.928 -20.376 -20.210  0.00  0.00    +0.002 C 
ATOM     23  C   UNL     1      33.516 -20.496 -20.285  0.00  0.00    +0.002 C 
ATOM     24  C   UNL     1      35.932 -21.170 -19.064  0.00  0.00    +0.000 C 
ATOM     25  C   UNL     1      33.520 -21.289 -19.138  0.00  0.00    +0.000 C 
ATOM     26  C   UNL     1      34.728 -21.626 -18.528  0.00  0.00    +0.000 C 
ENDBRANCH   7  21
TORSDOF 3
ENDMDL
