MODEL 1
REMARK VINA RESULT:     -11.1      0.000      0.000
REMARK  Name = 5287459
REMARK  5 active torsions:
REMARK  status: ('A' for Active; 'I' for Inactive)
REMARK    1  A    between atoms: C_1  and  C_7
REMARK    2  A    between atoms: C_4  and  C_21
REMARK    3  A    between atoms: C_5  and  C_25
REMARK    4  A    between atoms: C_8  and  C_13
REMARK    5  A    between atoms: C_25  and  O_26
REMARK                            x       y       z     vdW  Elec       q    Type
REMARK                         _______ _______ _______ _____ _____    ______ ____
ROOT
ATOM      1  C   UNL     1      37.269 -23.886 -14.693  0.00  0.00    +0.000 C 
ATOM      2  C   UNL     1      36.727 -23.833 -13.409  0.00  0.00    +0.005 C 
ATOM      3  C   UNL     1      38.442 -24.602 -14.925  0.00  0.00    +0.006 C 
ATOM      4  C   UNL     1      37.357 -24.498 -12.358  0.00  0.00    +0.053 C 
ATOM      5  C   UNL     1      39.074 -25.266 -13.874  0.00  0.00    +0.076 C 
ATOM      6  C   UNL     1      38.531 -25.214 -12.590  0.00  0.00    +0.011 C 
ENDROOT
BRANCH   1   7
ATOM      7  C   UNL     1      36.615 -23.196 -15.783  0.00  0.00    +0.000 C 
ATOM      8  C   UNL     1      35.352 -21.866 -17.886  0.00  0.00    +0.000 C 
ATOM      9  C   UNL     1      35.265 -23.433 -16.049  0.00  0.00    +0.000 C 
ATOM     10  C   UNL     1      37.332 -22.293 -16.569  0.00  0.00    +0.000 C 
ATOM     11  C   UNL     1      34.635 -22.768 -17.101  0.00  0.00    +0.000 C 
ATOM     12  C   UNL     1      36.701 -21.629 -17.621  0.00  0.00    +0.000 C 
BRANCH   8  13
ATOM     13  C   UNL     1      34.698 -21.177 -18.978  0.00  0.00    +0.000 C 
ATOM     14  C   UNL     1      33.309 -21.205 -19.089  0.00  0.00    +0.000 C 
ATOM     15  C   UNL     1      35.460 -20.485 -19.919  0.00  0.00    +0.000 C 
ATOM     16  C   UNL     1      32.679 -20.539 -20.141  0.00  0.00    +0.000 C 
ATOM     17  C   UNL     1      34.831 -19.819 -20.972  0.00  0.00    +0.000 C 
ATOM     18  C   UNL     1      33.441 -19.847 -21.083  0.00  0.00    +0.000 C 
ENDBRANCH   8  13
ENDBRANCH   1   7
BRANCH   4  21
ATOM     19  O   UNL     1      36.165 -25.405 -10.540  0.00  0.00    -0.270 OA
ATOM     20  N   UNL     1      36.989 -23.281 -10.279  0.00  0.00    -0.325 N 
ATOM     21  C   UNL     1      36.792 -24.443 -11.019  0.00  0.00    +0.243 C 
ATOM     22  H   UNL     1      36.619 -23.207  -9.369  0.00  0.00    +0.145 HD
ATOM     23  H   UNL     1      37.497 -22.531 -10.666  0.00  0.00    +0.145 HD
ENDBRANCH   4  21
BRANCH   5  25
ATOM     24  O   UNL     1      40.987 -26.561 -13.250  0.00  0.00    -0.245 OA
ATOM     25  C   UNL     1      40.298 -26.013 -14.116  0.00  0.00    +0.338 C 
BRANCH  25  26
ATOM     26  O   UNL     1      40.628 -26.057 -15.437  0.00  0.00    -0.477 OA
ATOM     27  H   UNL     1      39.966 -25.941 -16.089  0.00  0.00    +0.295 HD
ENDBRANCH  25  26
ENDBRANCH   5  25
TORSDOF 5
ENDMDL
MODEL 2
REMARK VINA RESULT:     -10.8      2.257      4.080
REMARK  Name = 5287459
REMARK  5 active torsions:
REMARK  status: ('A' for Active; 'I' for Inactive)
REMARK    1  A    between atoms: C_1  and  C_7
REMARK    2  A    between atoms: C_4  and  C_21
REMARK    3  A    between atoms: C_5  and  C_25
REMARK    4  A    between atoms: C_8  and  C_13
REMARK    5  A    between atoms: C_25  and  O_26
REMARK                            x       y       z     vdW  Elec       q    Type
REMARK                         _______ _______ _______ _____ _____    ______ ____
ROOT
ATOM      1  C   UNL     1      35.540 -23.251 -15.538  0.00  0.00    +0.000 C 
ATOM      2  C   UNL     1      36.684 -23.897 -15.070  0.00  0.00    +0.005 C 
ATOM      3  C   UNL     1      34.339 -23.368 -14.841  0.00  0.00    +0.006 C 
ATOM      4  C   UNL     1      36.626 -24.658 -13.903  0.00  0.00    +0.053 C 
ATOM      5  C   UNL     1      34.280 -24.131 -13.674  0.00  0.00    +0.076 C 
ATOM      6  C   UNL     1      35.425 -24.776 -13.206  0.00  0.00    +0.011 C 
ENDROOT
BRANCH   1   7
ATOM      7  C   UNL     1      35.600 -22.461 -16.749  0.00  0.00    +0.000 C 
ATOM      8  C   UNL     1      35.716 -20.937 -19.083  0.00  0.00    +0.000 C 
ATOM      9  C   UNL     1      36.732 -21.693 -17.026  0.00  0.00    +0.000 C 
ATOM     10  C   UNL     1      34.527 -22.467 -17.640  0.00  0.00    +0.000 C 
ATOM     11  C   UNL     1      36.789 -20.931 -18.192  0.00  0.00    +0.000 C 
ATOM     12  C   UNL     1      34.585 -21.705 -18.807  0.00  0.00    +0.000 C 
BRANCH   8  13
ATOM     13  C   UNL     1      35.775 -20.146 -20.293  0.00  0.00    +0.000 C 
ATOM     14  C   UNL     1      34.718 -20.180 -21.202  0.00  0.00    +0.000 C 
ATOM     15  C   UNL     1      36.890 -19.349 -20.550  0.00  0.00    +0.000 C 
ATOM     16  C   UNL     1      34.775 -19.417 -22.368  0.00  0.00    +0.000 C 
ATOM     17  C   UNL     1      36.948 -18.585 -21.716  0.00  0.00    +0.000 C 
ATOM     18  C   UNL     1      35.891 -18.619 -22.626  0.00  0.00    +0.000 C 
ENDBRANCH   8  13
ENDBRANCH   1   7
BRANCH   4  21
ATOM     19  O   UNL     1      38.785 -24.691 -12.961  0.00  0.00    -0.270 OA
ATOM     20  N   UNL     1      37.841 -26.723 -13.453  0.00  0.00    -0.325 N 
ATOM     21  C   UNL     1      37.819 -25.332 -13.414  0.00  0.00    +0.243 C 
ATOM     22  H   UNL     1      38.633 -27.212 -13.131  0.00  0.00    +0.145 HD
ATOM     23  H   UNL     1      37.065 -27.217 -13.802  0.00  0.00    +0.145 HD
ENDBRANCH   4  21
BRANCH   5  25
ATOM     24  O   UNL     1      32.313 -25.261 -12.914  0.00  0.00    -0.245 OA
ATOM     25  C   UNL     1      33.026 -24.253 -12.947  0.00  0.00    +0.338 C 
BRANCH  25  26
ATOM     26  O   UNL     1      32.699 -23.112 -12.280  0.00  0.00    -0.477 OA
ATOM     27  H   UNL     1      32.132 -23.150 -11.535  0.00  0.00    +0.295 HD
ENDBRANCH  25  26
ENDBRANCH   5  25
TORSDOF 5
ENDMDL
MODEL 3
REMARK VINA RESULT:     -10.8      2.507      3.843
REMARK  Name = 5287459
REMARK  5 active torsions:
REMARK  status: ('A' for Active; 'I' for Inactive)
REMARK    1  A    between atoms: C_1  and  C_7
REMARK    2  A    between atoms: C_4  and  C_21
REMARK    3  A    between atoms: C_5  and  C_25
REMARK    4  A    between atoms: C_8  and  C_13
REMARK    5  A    between atoms: C_25  and  O_26
REMARK                            x       y       z     vdW  Elec       q    Type
REMARK                         _______ _______ _______ _____ _____    ______ ____
ROOT
ATOM      1  C   UNL     1      35.344 -22.443 -16.895  0.00  0.00    +0.000 C 
ATOM      2  C   UNL     1      34.185 -22.963 -16.320  0.00  0.00    +0.005 C 
ATOM      3  C   UNL     1      36.586 -22.703 -16.318  0.00  0.00    +0.006 C 
ATOM      4  C   UNL     1      34.269 -23.745 -15.167  0.00  0.00    +0.053 C 
ATOM      5  C   UNL     1      36.671 -23.484 -15.165  0.00  0.00    +0.076 C 
ATOM      6  C   UNL     1      35.511 -24.005 -14.590  0.00  0.00    +0.011 C 
ENDROOT
BRANCH   1   7
ATOM      7  C   UNL     1      35.257 -21.632 -18.090  0.00  0.00    +0.000 C 
ATOM      8  C   UNL     1      35.089 -20.069 -20.395  0.00  0.00    +0.000 C 
ATOM      9  C   UNL     1      34.027 -21.453 -18.723  0.00  0.00    +0.000 C 
ATOM     10  C   UNL     1      36.403 -21.030 -18.609  0.00  0.00    +0.000 C 
ATOM     11  C   UNL     1      33.943 -20.672 -19.876  0.00  0.00    +0.000 C 
ATOM     12  C   UNL     1      36.319 -20.249 -19.762  0.00  0.00    +0.000 C 
BRANCH   8  13
ATOM     13  C   UNL     1      35.002 -19.259 -21.591  0.00  0.00    +0.000 C 
ATOM     14  C   UNL     1      35.438 -17.935 -21.570  0.00  0.00    +0.000 C 
ATOM     15  C   UNL     1      34.484 -19.805 -22.765  0.00  0.00    +0.000 C 
ATOM     16  C   UNL     1      35.355 -17.155 -22.724  0.00  0.00    +0.000 C 
ATOM     17  C   UNL     1      34.401 -19.025 -23.919  0.00  0.00    +0.000 C 
ATOM     18  C   UNL     1      34.836 -17.700 -23.899  0.00  0.00    +0.000 C 
ENDBRANCH   8  13
ENDBRANCH   1   7
BRANCH   4  21
ATOM     19  O   UNL     1      31.941 -24.094 -15.076  0.00  0.00    -0.270 OA
ATOM     20  N   UNL     1      33.196 -25.048 -13.410  0.00  0.00    -0.325 N 
ATOM     21  C   UNL     1      33.060 -24.287 -14.567  0.00  0.00    +0.243 C 
ATOM     22  H   UNL     1      32.399 -25.430 -12.975  0.00  0.00    +0.145 HD
ATOM     23  H   UNL     1      34.089 -25.203 -13.025  0.00  0.00    +0.145 HD
ENDBRANCH   4  21
BRANCH   5  25
ATOM     24  O   UNL     1      38.168 -23.973 -13.364  0.00  0.00    -0.245 OA
ATOM     25  C   UNL     1      37.967 -23.755 -14.563  0.00  0.00    +0.338 C 
BRANCH  25  26
ATOM     26  O   UNL     1      38.976 -23.747 -15.477  0.00  0.00    -0.477 OA
ATOM     27  H   UNL     1      39.808 -23.379 -15.254  0.00  0.00    +0.295 HD
ENDBRANCH  25  26
ENDBRANCH   5  25
TORSDOF 5
ENDMDL
MODEL 4
REMARK VINA RESULT:     -10.7      1.396      3.142
REMARK  Name = 5287459
REMARK  5 active torsions:
REMARK  status: ('A' for Active; 'I' for Inactive)
REMARK    1  A    between atoms: C_1  and  C_7
REMARK    2  A    between atoms: C_4  and  C_21
REMARK    3  A    between atoms: C_5  and  C_25
REMARK    4  A    between atoms: C_8  and  C_13
REMARK    5  A    between atoms: C_25  and  O_26
REMARK                            x       y       z     vdW  Elec       q    Type
REMARK                         _______ _______ _______ _____ _____    ______ ____
ROOT
ATOM      1  C   UNL     1      37.004 -23.678 -14.647  0.00  0.00    +0.000 C 
ATOM      2  C   UNL     1      38.271 -24.249 -14.756  0.00  0.00    +0.005 C 
ATOM      3  C   UNL     1      36.312 -23.740 -13.439  0.00  0.00    +0.006 C 
ATOM      4  C   UNL     1      38.848 -24.882 -13.655  0.00  0.00    +0.053 C 
ATOM      5  C   UNL     1      36.887 -24.374 -12.337  0.00  0.00    +0.076 C 
ATOM      6  C   UNL     1      38.156 -24.945 -12.446  0.00  0.00    +0.011 C 
ENDROOT
BRANCH   1   7
ATOM      7  C   UNL     1      36.406 -23.021 -15.790  0.00  0.00    +0.000 C 
ATOM      8  C   UNL     1      35.252 -21.756 -17.992  0.00  0.00    +0.000 C 
ATOM      9  C   UNL     1      35.062 -23.238 -16.094  0.00  0.00    +0.000 C 
ATOM     10  C   UNL     1      37.173 -22.171 -16.586  0.00  0.00    +0.000 C 
ATOM     11  C   UNL     1      34.485 -22.606 -17.196  0.00  0.00    +0.000 C 
ATOM     12  C   UNL     1      36.597 -21.539 -17.688  0.00  0.00    +0.000 C 
BRANCH   8  13
ATOM     13  C   UNL     1      34.655 -21.100 -19.136  0.00  0.00    +0.000 C 
ATOM     14  C   UNL     1      33.268 -21.057 -19.270  0.00  0.00    +0.000 C 
ATOM     15  C   UNL     1      35.468 -20.510 -20.103  0.00  0.00    +0.000 C 
ATOM     16  C   UNL     1      32.693 -20.424 -20.372  0.00  0.00    +0.000 C 
ATOM     17  C   UNL     1      34.894 -19.877 -21.205  0.00  0.00    +0.000 C 
ATOM     18  C   UNL     1      33.506 -19.834 -21.341  0.00  0.00    +0.000 C 
ENDBRANCH   8  13
ENDBRANCH   1   7
BRANCH   4  21
ATOM     19  O   UNL     1      41.183 -24.778 -13.941  0.00  0.00    -0.270 OA
ATOM     20  N   UNL     1      40.268 -26.863 -13.659  0.00  0.00    -0.325 N 
ATOM     21  C   UNL     1      40.169 -25.479 -13.768  0.00  0.00    +0.243 C 
ATOM     22  H   UNL     1      41.147 -27.301 -13.732  0.00  0.00    +0.145 HD
ATOM     23  H   UNL     1      39.459 -27.403 -13.510  0.00  0.00    +0.145 HD
ENDBRANCH   4  21
BRANCH   5  25
ATOM     24  O   UNL     1      35.146 -25.104 -10.868  0.00  0.00    -0.245 OA
ATOM     25  C   UNL     1      36.166 -24.439 -11.076  0.00  0.00    +0.338 C 
BRANCH  25  26
ATOM     26  O   UNL     1      36.739 -23.672 -10.109  0.00  0.00    -0.477 OA
ATOM     27  H   UNL     1      36.814 -23.999  -9.234  0.00  0.00    +0.295 HD
ENDBRANCH  25  26
ENDBRANCH   5  25
TORSDOF 5
ENDMDL
MODEL 5
REMARK VINA RESULT:     -10.6      3.153      5.550
REMARK  Name = 5287459
REMARK  5 active torsions:
REMARK  status: ('A' for Active; 'I' for Inactive)
REMARK    1  A    between atoms: C_1  and  C_7
REMARK    2  A    between atoms: C_4  and  C_21
REMARK    3  A    between atoms: C_5  and  C_25
REMARK    4  A    between atoms: C_8  and  C_13
REMARK    5  A    between atoms: C_25  and  O_26
REMARK                            x       y       z     vdW  Elec       q    Type
REMARK                         _______ _______ _______ _____ _____    ______ ____
ROOT
ATOM      1  C   UNL     1      33.645 -22.724 -17.036  0.00  0.00    +0.000 C 
ATOM      2  C   UNL     1      34.710 -23.295 -16.340  0.00  0.00    +0.005 C 
ATOM      3  C   UNL     1      32.334 -22.987 -16.641  0.00  0.00    +0.006 C 
ATOM      4  C   UNL     1      34.464 -24.127 -15.247  0.00  0.00    +0.053 C 
ATOM      5  C   UNL     1      32.087 -23.819 -15.549  0.00  0.00    +0.076 C 
ATOM      6  C   UNL     1      33.153 -24.389 -14.853  0.00  0.00    +0.011 C 
ENDROOT
BRANCH   1   7
ATOM      7  C   UNL     1      33.900 -21.861 -18.169  0.00  0.00    +0.000 C 
ATOM      8  C   UNL     1      34.393 -20.197 -20.353  0.00  0.00    +0.000 C 
ATOM      9  C   UNL     1      35.211 -21.617 -18.578  0.00  0.00    +0.000 C 
ATOM     10  C   UNL     1      32.835 -21.274 -18.852  0.00  0.00    +0.000 C 
ATOM     11  C   UNL     1      35.458 -20.784 -19.670  0.00  0.00    +0.000 C 
ATOM     12  C   UNL     1      33.082 -20.442 -19.944  0.00  0.00    +0.000 C 
BRANCH   8  13
ATOM     13  C   UNL     1      34.648 -19.333 -21.485  0.00  0.00    +0.000 C 
ATOM     14  C   UNL     1      34.184 -19.687 -22.752  0.00  0.00    +0.000 C 
ATOM     15  C   UNL     1      35.357 -18.146 -21.309  0.00  0.00    +0.000 C 
ATOM     16  C   UNL     1      34.430 -18.853 -23.843  0.00  0.00    +0.000 C 
ATOM     17  C   UNL     1      35.603 -17.312 -22.400  0.00  0.00    +0.000 C 
ATOM     18  C   UNL     1      35.140 -17.665 -23.667  0.00  0.00    +0.000 C 
ENDBRANCH   8  13
ENDBRANCH   1   7
BRANCH   4  21
ATOM     19  O   UNL     1      36.662 -24.957 -15.081  0.00  0.00    -0.270 OA
ATOM     20  N   UNL     1      35.391 -25.005 -13.172  0.00  0.00    -0.325 N 
ATOM     21  C   UNL     1      35.575 -24.722 -14.522  0.00  0.00    +0.243 C 
ATOM     22  H   UNL     1      36.121 -25.409 -12.649  0.00  0.00    +0.145 HD
ATOM     23  H   UNL     1      34.530 -24.802 -12.740  0.00  0.00    +0.145 HD
ENDBRANCH   4  21
BRANCH   5  25
ATOM     24  O   UNL     1      30.084 -25.120 -15.398  0.00  0.00    -0.245 OA
ATOM     25  C   UNL     1      30.719 -24.093 -15.137  0.00  0.00    +0.338 C 
BRANCH  25  26
ATOM     26  O   UNL     1      30.182 -23.076 -14.409  0.00  0.00    -0.477 OA
ATOM     27  H   UNL     1      29.753 -23.256 -13.596  0.00  0.00    +0.295 HD
ENDBRANCH  25  26
ENDBRANCH   5  25
TORSDOF 5
ENDMDL
MODEL 6
REMARK VINA RESULT:     -10.6      2.500      3.477
REMARK  Name = 5287459
REMARK  5 active torsions:
REMARK  status: ('A' for Active; 'I' for Inactive)
REMARK    1  A    between atoms: C_1  and  C_7
REMARK    2  A    between atoms: C_4  and  C_21
REMARK    3  A    between atoms: C_5  and  C_25
REMARK    4  A    between atoms: C_8  and  C_13
REMARK    5  A    between atoms: C_25  and  O_26
REMARK                            x       y       z     vdW  Elec       q    Type
REMARK                         _______ _______ _______ _____ _____    ______ ____
ROOT
ATOM      1  C   UNL     1      34.800 -23.373 -15.731  0.00  0.00    +0.000 C 
ATOM      2  C   UNL     1      33.534 -23.457 -15.152  0.00  0.00    +0.005 C 
ATOM      3  C   UNL     1      35.869 -24.075 -15.175  0.00  0.00    +0.006 C 
ATOM      4  C   UNL     1      33.337 -24.245 -14.018  0.00  0.00    +0.053 C 
ATOM      5  C   UNL     1      35.673 -24.862 -14.041  0.00  0.00    +0.076 C 
ATOM      6  C   UNL     1      34.406 -24.946 -13.463  0.00  0.00    +0.011 C 
ENDROOT
BRANCH   1   7
ATOM      7  C   UNL     1      35.005 -22.556 -16.908  0.00  0.00    +0.000 C 
ATOM      8  C   UNL     1      35.399 -20.980 -19.176  0.00  0.00    +0.000 C 
ATOM      9  C   UNL     1      33.963 -22.367 -17.816  0.00  0.00    +0.000 C 
ATOM     10  C   UNL     1      36.244 -21.956 -17.133  0.00  0.00    +0.000 C 
ATOM     11  C   UNL     1      34.160 -21.580 -18.951  0.00  0.00    +0.000 C 
ATOM     12  C   UNL     1      36.441 -21.169 -18.268  0.00  0.00    +0.000 C 
BRANCH   8  13
ATOM     13  C   UNL     1      35.604 -20.164 -20.354  0.00  0.00    +0.000 C 
ATOM     14  C   UNL     1      34.631 -20.121 -21.351  0.00  0.00    +0.000 C 
ATOM     15  C   UNL     1      36.776 -19.421 -20.489  0.00  0.00    +0.000 C 
ATOM     16  C   UNL     1      34.830 -19.333 -22.486  0.00  0.00    +0.000 C 
ATOM     17  C   UNL     1      36.975 -18.633 -21.623  0.00  0.00    +0.000 C 
ATOM     18  C   UNL     1      36.003 -18.589 -22.622  0.00  0.00    +0.000 C 
ENDBRANCH   8  13
ENDBRANCH   1   7
BRANCH   4  21
ATOM     19  O   UNL     1      31.709 -25.276 -12.664  0.00  0.00    -0.270 OA
ATOM     20  N   UNL     1      31.109 -23.314 -13.690  0.00  0.00    -0.325 N 
ATOM     21  C   UNL     1      32.017 -24.332 -13.415  0.00  0.00    +0.243 C 
ATOM     22  H   UNL     1      30.205 -23.341 -13.299  0.00  0.00    +0.145 HD
ATOM     23  H   UNL     1      31.370 -22.567 -14.276  0.00  0.00    +0.145 HD
ENDBRANCH   4  21
BRANCH   5  25
ATOM     24  O   UNL     1      37.884 -25.774 -14.000  0.00  0.00    -0.245 OA
ATOM     25  C   UNL     1      36.788 -25.594 -13.461  0.00  0.00    +0.338 C 
BRANCH  25  26
ATOM     26  O   UNL     1      36.502 -26.080 -12.222  0.00  0.00    -0.477 OA
ATOM     27  H   UNL     1      35.621 -26.305 -11.997  0.00  0.00    +0.295 HD
ENDBRANCH  25  26
ENDBRANCH   5  25
TORSDOF 5
ENDMDL
MODEL 7
REMARK VINA RESULT:     -10.2      4.238      5.705
REMARK  Name = 5287459
REMARK  5 active torsions:
REMARK  status: ('A' for Active; 'I' for Inactive)
REMARK    1  A    between atoms: C_1  and  C_7
REMARK    2  A    between atoms: C_4  and  C_21
REMARK    3  A    between atoms: C_5  and  C_25
REMARK    4  A    between atoms: C_8  and  C_13
REMARK    5  A    between atoms: C_25  and  O_26
REMARK                            x       y       z     vdW  Elec       q    Type
REMARK                         _______ _______ _______ _____ _____    ______ ____
ROOT
ATOM      1  C   UNL     1      34.430 -24.349 -13.505  0.00  0.00    +0.000 C 
ATOM      2  C   UNL     1      35.303 -25.067 -14.321  0.00  0.00    +0.005 C 
ATOM      3  C   UNL     1      34.833 -23.952 -12.230  0.00  0.00    +0.006 C 
ATOM      4  C   UNL     1      36.582 -25.387 -13.862  0.00  0.00    +0.053 C 
ATOM      5  C   UNL     1      36.111 -24.273 -11.771  0.00  0.00    +0.076 C 
ATOM      6  C   UNL     1      36.985 -24.991 -12.588  0.00  0.00    +0.011 C 
ENDROOT
BRANCH   1   7
ATOM      7  C   UNL     1      33.104 -24.017 -13.980  0.00  0.00    +0.000 C 
ATOM      8  C   UNL     1      30.547 -23.377 -14.895  0.00  0.00    +0.000 C 
ATOM      9  C   UNL     1      31.981 -24.494 -13.303  0.00  0.00    +0.000 C 
ATOM     10  C   UNL     1      32.949 -23.220 -15.114  0.00  0.00    +0.000 C 
ATOM     11  C   UNL     1      30.703 -24.174 -13.761  0.00  0.00    +0.000 C 
ATOM     12  C   UNL     1      31.671 -22.900 -15.572  0.00  0.00    +0.000 C 
BRANCH   8  13
ATOM     13  C   UNL     1      29.222 -23.046 -15.372  0.00  0.00    +0.000 C 
ATOM     14  C   UNL     1      28.864 -23.325 -16.690  0.00  0.00    +0.000 C 
ATOM     15  C   UNL     1      28.302 -22.448 -14.511  0.00  0.00    +0.000 C 
ATOM     16  C   UNL     1      27.586 -23.006 -17.149  0.00  0.00    +0.000 C 
ATOM     17  C   UNL     1      27.024 -22.129 -14.968  0.00  0.00    +0.000 C 
ATOM     18  C   UNL     1      26.665 -22.407 -16.287  0.00  0.00    +0.000 C 
ENDBRANCH   8  13
ENDBRANCH   1   7
BRANCH   4  21
ATOM     19  O   UNL     1      37.089 -27.069 -15.431  0.00  0.00    -0.270 OA
ATOM     20  N   UNL     1      38.834 -25.764 -14.714  0.00  0.00    -0.325 N 
ATOM     21  C   UNL     1      37.493 -26.136 -14.713  0.00  0.00    +0.243 C 
ATOM     22  H   UNL     1      39.480 -26.249 -15.277  0.00  0.00    +0.145 HD
ATOM     23  H   UNL     1      39.137 -25.015 -14.151  0.00  0.00    +0.145 HD
ENDBRANCH   4  21
BRANCH   5  25
ATOM     24  O   UNL     1      36.151 -24.365  -9.380  0.00  0.00    -0.245 OA
ATOM     25  C   UNL     1      36.531 -23.860 -10.442  0.00  0.00    +0.338 C 
BRANCH  25  26
ATOM     26  O   UNL     1      37.417 -22.826 -10.475  0.00  0.00    -0.477 OA
ATOM     27  H   UNL     1      38.270 -22.951 -10.841  0.00  0.00    +0.295 HD
ENDBRANCH  25  26
ENDBRANCH   5  25
TORSDOF 5
ENDMDL
MODEL 8
REMARK VINA RESULT:      -9.9      3.295      5.113
REMARK  Name = 5287459
REMARK  5 active torsions:
REMARK  status: ('A' for Active; 'I' for Inactive)
REMARK    1  A    between atoms: C_1  and  C_7
REMARK    2  A    between atoms: C_4  and  C_21
REMARK    3  A    between atoms: C_5  and  C_25
REMARK    4  A    between atoms: C_8  and  C_13
REMARK    5  A    between atoms: C_25  and  O_26
REMARK                            x       y       z     vdW  Elec       q    Type
REMARK                         _______ _______ _______ _____ _____    ______ ____
ROOT
ATOM      1  C   UNL     1      33.442 -22.753 -16.852  0.00  0.00    +0.000 C 
ATOM      2  C   UNL     1      32.126 -23.150 -16.619  0.00  0.00    +0.005 C 
ATOM      3  C   UNL     1      34.454 -23.144 -15.977  0.00  0.00    +0.006 C 
ATOM      4  C   UNL     1      31.822 -23.941 -15.510  0.00  0.00    +0.053 C 
ATOM      5  C   UNL     1      34.151 -23.934 -14.867  0.00  0.00    +0.076 C 
ATOM      6  C   UNL     1      32.834 -24.332 -14.635  0.00  0.00    +0.011 C 
ENDROOT
BRANCH   1   7
ATOM      7  C   UNL     1      33.757 -21.933 -18.002  0.00  0.00    +0.000 C 
ATOM      8  C   UNL     1      34.363 -20.352 -20.219  0.00  0.00    +0.000 C 
ATOM      9  C   UNL     1      32.729 -21.362 -18.753  0.00  0.00    +0.000 C 
ATOM     10  C   UNL     1      35.087 -21.713 -18.359  0.00  0.00    +0.000 C 
ATOM     11  C   UNL     1      33.032 -20.572 -19.862  0.00  0.00    +0.000 C 
ATOM     12  C   UNL     1      35.390 -20.923 -19.468  0.00  0.00    +0.000 C 
BRANCH   8  13
ATOM     13  C   UNL     1      34.678 -19.533 -21.370  0.00  0.00    +0.000 C 
ATOM     14  C   UNL     1      35.638 -18.526 -21.268  0.00  0.00    +0.000 C 
ATOM     15  C   UNL     1      34.022 -19.752 -22.581  0.00  0.00    +0.000 C 
ATOM     16  C   UNL     1      35.942 -17.738 -22.378  0.00  0.00    +0.000 C 
ATOM     17  C   UNL     1      34.325 -18.963 -23.691  0.00  0.00    +0.000 C 
ATOM     18  C   UNL     1      35.285 -17.956 -23.590  0.00  0.00    +0.000 C 
ENDBRANCH   8  13
ENDBRANCH   1   7
BRANCH   4  21
ATOM     19  O   UNL     1      29.487 -23.647 -15.615  0.00  0.00    -0.270 OA
ATOM     20  N   UNL     1      30.243 -25.583 -14.644  0.00  0.00    -0.325 N 
ATOM     21  C   UNL     1      30.449 -24.355 -15.267  0.00  0.00    +0.243 C 
ATOM     22  H   UNL     1      29.327 -25.895 -14.463  0.00  0.00    +0.145 HD
ATOM     23  H   UNL     1      31.013 -26.139 -14.385  0.00  0.00    +0.145 HD
ENDBRANCH   4  21
BRANCH   5  25
ATOM     24  O   UNL     1      35.942 -25.323 -14.102  0.00  0.00    -0.245 OA
ATOM     25  C   UNL     1      35.207 -24.342 -13.954  0.00  0.00    +0.338 C 
BRANCH  25  26
ATOM     26  O   UNL     1      35.315 -23.511 -12.881  0.00  0.00    -0.477 OA
ATOM     27  H   UNL     1      35.136 -23.832 -12.020  0.00  0.00    +0.295 HD
ENDBRANCH  25  26
ENDBRANCH   5  25
TORSDOF 5
ENDMDL
MODEL 9
REMARK VINA RESULT:      -9.9     10.997     14.716
REMARK  Name = 5287459
REMARK  5 active torsions:
REMARK  status: ('A' for Active; 'I' for Inactive)
REMARK    1  A    between atoms: C_1  and  C_7
REMARK    2  A    between atoms: C_4  and  C_21
REMARK    3  A    between atoms: C_5  and  C_25
REMARK    4  A    between atoms: C_8  and  C_13
REMARK    5  A    between atoms: C_25  and  O_26
REMARK                            x       y       z     vdW  Elec       q    Type
REMARK                         _______ _______ _______ _____ _____    ______ ____
ROOT
ATOM      1  C   UNL     1      33.401 -12.866 -22.705  0.00  0.00    +0.000 C 
ATOM      2  C   UNL     1      33.927 -13.602 -21.644  0.00  0.00    +0.005 C 
ATOM      3  C   UNL     1      33.234 -13.463 -23.953  0.00  0.00    +0.006 C 
ATOM      4  C   UNL     1      34.285 -14.937 -21.832  0.00  0.00    +0.053 C 
ATOM      5  C   UNL     1      33.593 -14.798 -24.142  0.00  0.00    +0.076 C 
ATOM      6  C   UNL     1      34.119 -15.534 -23.080  0.00  0.00    +0.011 C 
ENDROOT
BRANCH   1   7
ATOM      7  C   UNL     1      33.029 -11.481 -22.510  0.00  0.00    +0.000 C 
ATOM      8  C   UNL     1      32.313  -8.811 -22.135  0.00  0.00    +0.000 C 
ATOM      9  C   UNL     1      33.586 -10.489 -23.317  0.00  0.00    +0.000 C 
ATOM     10  C   UNL     1      32.113 -11.138 -21.515  0.00  0.00    +0.000 C 
ATOM     11  C   UNL     1      33.229  -9.154 -23.129  0.00  0.00    +0.000 C 
ATOM     12  C   UNL     1      31.755  -9.803 -21.328  0.00  0.00    +0.000 C 
BRANCH   8  13
ATOM     13  C   UNL     1      31.942  -7.426 -21.939  0.00  0.00    +0.000 C 
ATOM     14  C   UNL     1      30.834  -6.899 -22.602  0.00  0.00    +0.000 C 
ATOM     15  C   UNL     1      32.693  -6.618 -21.086  0.00  0.00    +0.000 C 
ATOM     16  C   UNL     1      30.476  -5.565 -22.412  0.00  0.00    +0.000 C 
ATOM     17  C   UNL     1      32.336  -5.283 -20.896  0.00  0.00    +0.000 C 
ATOM     18  C   UNL     1      31.228  -4.756 -21.559  0.00  0.00    +0.000 C 
ENDBRANCH   8  13
ENDBRANCH   1   7
BRANCH   4  21
ATOM     19  O   UNL     1      34.862 -15.246 -19.569  0.00  0.00    -0.270 OA
ATOM     20  N   UNL     1      35.315 -16.983 -20.998  0.00  0.00    -0.325 N 
ATOM     21  C   UNL     1      34.834 -15.705 -20.725  0.00  0.00    +0.243 C 
ATOM     22  H   UNL     1      35.695 -17.531 -20.274  0.00  0.00    +0.145 HD
ATOM     23  H   UNL     1      35.275 -17.338 -21.915  0.00  0.00    +0.145 HD
ENDBRANCH   4  21
BRANCH   5  25
ATOM     24  O   UNL     1      33.386 -14.824 -26.526  0.00  0.00    -0.245 OA
ATOM     25  C   UNL     1      33.420 -15.421 -25.445  0.00  0.00    +0.338 C 
BRANCH  25  26
ATOM     26  O   UNL     1      33.295 -16.774 -25.361  0.00  0.00    -0.477 OA
ATOM     27  H   UNL     1      32.445 -17.166 -25.337  0.00  0.00    +0.295 HD
ENDBRANCH  25  26
ENDBRANCH   5  25
TORSDOF 5
ENDMDL
