MODEL 1
REMARK VINA RESULT:     -11.8      0.000      0.000
REMARK  Name = 25011730
REMARK  4 active torsions:
REMARK  status: ('A' for Active; 'I' for Inactive)
REMARK    1  A    between atoms: N_1  and  C_15
REMARK    2  A    between atoms: N_2  and  C_22
REMARK    3  A    between atoms: C_21  and  N_27
REMARK    4  A    between atoms: N_27  and  S_29
REMARK                            x       y       z     vdW  Elec       q    Type
REMARK                         _______ _______ _______ _____ _____    ______ ____
ROOT
ATOM      1  N   UNL     1      37.573 -23.062 -14.669  0.00  0.00    -0.284 N 
ATOM      2  N   UNL     1      33.298 -22.972 -16.674  0.00  0.00    -0.247 N 
ATOM      3  N   UNL     1      35.413 -23.027 -15.659  0.00  0.00    -0.322 NA
ATOM      4  N   UNL     1      35.113 -22.049 -17.841  0.00  0.00    -0.170 NA
ATOM      5  C   UNL     1      36.724 -22.722 -15.744  0.00  0.00    +0.198 C 
ATOM      6  C   UNL     1      34.676 -22.668 -16.728  0.00  0.00    +0.150 C 
ATOM      7  C   UNL     1      37.296 -22.089 -16.829  0.00  0.00    +0.070 C 
ATOM      8  C   UNL     1      36.433 -21.774 -17.858  0.00  0.00    +0.116 C 
ATOM      9  H   UNL     1      38.337 -22.451 -14.561  0.00  0.00    +0.155 HD
ATOM     10  H   UNL     1      32.800 -22.691 -17.476  0.00  0.00    +0.165 HD
ENDROOT
BRANCH   1  15
ATOM     11 CL   UNL     1      39.749 -25.188 -14.905  0.00  0.00    -0.081 Cl
ATOM     12  O   UNL     1      35.572 -23.216 -12.588  0.00  0.00    -0.433 OA
ATOM     13  O   UNL     1      35.474 -24.974 -10.942  0.00  0.00    -0.435 OA
ATOM     14  C   UNL     1      36.567 -24.131 -12.748  0.00  0.00    +0.191 C 
ATOM     15  C   UNL     1      37.544 -24.102 -13.723  0.00  0.00    +0.098 C 
ATOM     16  C   UNL     1      36.510 -25.135 -11.808  0.00  0.00    +0.178 C 
ATOM     17  C   UNL     1      38.486 -25.134 -13.726  0.00  0.00    +0.074 C 
ATOM     18  C   UNL     1      37.428 -26.166 -11.791  0.00  0.00    +0.041 C 
ATOM     19  C   UNL     1      34.882 -23.757 -11.442  0.00  0.00    +0.429 C 
ATOM     20  C   UNL     1      38.428 -26.160 -12.767  0.00  0.00    +0.016 C 
ENDBRANCH   1  15
BRANCH   2  22
ATOM     21  C   UNL     1      30.314 -24.135 -14.818  0.00  0.00    +0.066 C 
ATOM     22  C   UNL     1      32.497 -23.599 -15.701  0.00  0.00    +0.059 C 
ATOM     23  C   UNL     1      31.108 -23.516 -15.783  0.00  0.00    +0.031 C 
ATOM     24  C   UNL     1      30.909 -24.839 -13.771  0.00  0.00    +0.016 C 
ATOM     25  C   UNL     1      33.093 -24.302 -14.654  0.00  0.00    +0.015 C 
ATOM     26  C   UNL     1      32.300 -24.923 -13.690  0.00  0.00    +0.003 C 
BRANCH  21  27
ATOM     27  N   UNL     1      28.891 -24.050 -14.902  0.00  0.00    -0.219 N 
ATOM     28  H   UNL     1      28.318 -24.499 -14.240  0.00  0.00    +0.173 HD
BRANCH  27  29
ATOM     29  S   UNL     1      28.205 -23.142 -16.194  0.00  0.00    +0.056 S 
ATOM     30  O   UNL     1      29.135 -22.089 -16.557  0.00  0.00    -0.154 OA
ATOM     31  O   UNL     1      27.651 -24.016 -17.207  0.00  0.00    -0.154 OA
ATOM     32  C   UNL     1      26.850 -22.362 -15.346  0.00  0.00    +0.200 C 
ENDBRANCH  27  29
ENDBRANCH  21  27
ENDBRANCH   2  22
TORSDOF 4
ENDMDL
MODEL 2
REMARK VINA RESULT:     -11.1      1.725      2.250
REMARK  Name = 25011730
REMARK  4 active torsions:
REMARK  status: ('A' for Active; 'I' for Inactive)
REMARK    1  A    between atoms: N_1  and  C_15
REMARK    2  A    between atoms: N_2  and  C_22
REMARK    3  A    between atoms: C_21  and  N_27
REMARK    4  A    between atoms: N_27  and  S_29
REMARK                            x       y       z     vdW  Elec       q    Type
REMARK                         _______ _______ _______ _____ _____    ______ ____
ROOT
ATOM      1  N   UNL     1      37.518 -22.837 -14.956  0.00  0.00    -0.284 N 
ATOM      2  N   UNL     1      33.205 -22.978 -16.873  0.00  0.00    -0.247 N 
ATOM      3  N   UNL     1      35.340 -22.918 -15.901  0.00  0.00    -0.322 NA
ATOM      4  N   UNL     1      34.956 -22.014 -18.101  0.00  0.00    -0.170 NA
ATOM      5  C   UNL     1      36.635 -22.561 -16.021  0.00  0.00    +0.198 C 
ATOM      6  C   UNL     1      34.567 -22.619 -16.963  0.00  0.00    +0.150 C 
ATOM      7  C   UNL     1      37.158 -21.936 -17.135  0.00  0.00    +0.070 C 
ATOM      8  C   UNL     1      36.263 -21.685 -18.153  0.00  0.00    +0.116 C 
ATOM      9  H   UNL     1      38.258 -22.192 -14.880  0.00  0.00    +0.155 HD
ATOM     10  H   UNL     1      32.680 -22.741 -17.671  0.00  0.00    +0.165 HD
ENDROOT
BRANCH   1  15
ATOM     11 CL   UNL     1      35.180 -22.927 -12.997  0.00  0.00    -0.081 Cl
ATOM     12  O   UNL     1      39.672 -24.759 -14.781  0.00  0.00    -0.433 OA
ATOM     13  O   UNL     1      39.779 -26.513 -13.132  0.00  0.00    -0.435 OA
ATOM     14  C   UNL     1      38.602 -24.744 -13.938  0.00  0.00    +0.191 C 
ATOM     15  C   UNL     1      37.551 -23.850 -13.981  0.00  0.00    +0.098 C 
ATOM     16  C   UNL     1      38.664 -25.746 -12.997  0.00  0.00    +0.178 C 
ATOM     17  C   UNL     1      36.539 -23.996 -13.029  0.00  0.00    +0.074 C 
ATOM     18  C   UNL     1      37.678 -25.910 -12.046  0.00  0.00    +0.041 C 
ATOM     19  C   UNL     1      40.414 -25.882 -14.263  0.00  0.00    +0.429 C 
ATOM     20  C   UNL     1      36.602 -25.019 -12.067  0.00  0.00    +0.016 C 
ENDBRANCH   1  15
BRANCH   2  22
ATOM     21  C   UNL     1      30.309 -24.177 -14.902  0.00  0.00    +0.066 C 
ATOM     22  C   UNL     1      32.450 -23.611 -15.866  0.00  0.00    +0.059 C 
ATOM     23  C   UNL     1      31.057 -23.552 -15.899  0.00  0.00    +0.031 C 
ATOM     24  C   UNL     1      30.954 -24.862 -13.872  0.00  0.00    +0.016 C 
ATOM     25  C   UNL     1      33.095 -24.294 -14.836  0.00  0.00    +0.015 C 
ATOM     26  C   UNL     1      32.348 -24.920 -13.839  0.00  0.00    +0.003 C 
BRANCH  21  27
ATOM     27  N   UNL     1      28.883 -24.118 -14.936  0.00  0.00    -0.219 N 
ATOM     28  H   UNL     1      28.341 -24.597 -14.269  0.00  0.00    +0.173 HD
BRANCH  27  29
ATOM     29  S   UNL     1      28.137 -23.185 -16.177  0.00  0.00    +0.056 S 
ATOM     30  O   UNL     1      29.060 -22.142 -16.583  0.00  0.00    -0.154 OA
ATOM     31  O   UNL     1      27.512 -24.041 -17.165  0.00  0.00    -0.154 OA
ATOM     32  C   UNL     1      26.845 -22.395 -15.244  0.00  0.00    +0.200 C 
ENDBRANCH  27  29
ENDBRANCH  21  27
ENDBRANCH   2  22
TORSDOF 4
ENDMDL
MODEL 3
REMARK VINA RESULT:     -10.8      4.274      6.344
REMARK  Name = 25011730
REMARK  4 active torsions:
REMARK  status: ('A' for Active; 'I' for Inactive)
REMARK    1  A    between atoms: N_1  and  C_15
REMARK    2  A    between atoms: N_2  and  C_22
REMARK    3  A    between atoms: C_21  and  N_27
REMARK    4  A    between atoms: N_27  and  S_29
REMARK                            x       y       z     vdW  Elec       q    Type
REMARK                         _______ _______ _______ _____ _____    ______ ____
ROOT
ATOM      1  N   UNL     1      34.059 -24.793 -14.786  0.00  0.00    -0.284 N 
ATOM      2  N   UNL     1      32.407 -21.859 -18.096  0.00  0.00    -0.247 N 
ATOM      3  N   UNL     1      33.249 -23.315 -16.461  0.00  0.00    -0.322 NA
ATOM      4  N   UNL     1      30.908 -22.747 -16.524  0.00  0.00    -0.170 NA
ATOM      5  C   UNL     1      32.993 -24.091 -15.387  0.00  0.00    +0.198 C 
ATOM      6  C   UNL     1      32.177 -22.681 -16.972  0.00  0.00    +0.150 C 
ATOM      7  C   UNL     1      31.739 -24.243 -14.833  0.00  0.00    +0.070 C 
ATOM      8  C   UNL     1      30.724 -23.541 -15.450  0.00  0.00    +0.116 C 
ATOM      9  H   UNL     1      33.786 -25.640 -14.364  0.00  0.00    +0.155 HD
ATOM     10  H   UNL     1      31.595 -21.416 -18.435  0.00  0.00    +0.165 HD
ENDROOT
BRANCH   1  15
ATOM     11 CL   UNL     1      34.863 -21.857 -14.577  0.00  0.00    -0.081 Cl
ATOM     12  O   UNL     1      36.057 -26.883 -14.740  0.00  0.00    -0.433 OA
ATOM     13  O   UNL     1      38.425 -26.477 -14.544  0.00  0.00    -0.435 OA
ATOM     14  C   UNL     1      36.350 -25.556 -14.652  0.00  0.00    +0.191 C 
ATOM     15  C   UNL     1      35.435 -24.523 -14.669  0.00  0.00    +0.098 C 
ATOM     16  C   UNL     1      37.702 -25.325 -14.540  0.00  0.00    +0.178 C 
ATOM     17  C   UNL     1      35.927 -23.220 -14.566  0.00  0.00    +0.074 C 
ATOM     18  C   UNL     1      38.213 -24.047 -14.439  0.00  0.00    +0.041 C 
ATOM     19  C   UNL     1      37.377 -27.461 -14.672  0.00  0.00    +0.429 C 
ATOM     20  C   UNL     1      37.308 -22.983 -14.452  0.00  0.00    +0.016 C 
ENDBRANCH   1  15
BRANCH   2  22
ATOM     21  C   UNL     1      34.649 -20.358 -20.632  0.00  0.00    +0.066 C 
ATOM     22  C   UNL     1      33.569 -21.548 -18.828  0.00  0.00    +0.059 C 
ATOM     23  C   UNL     1      33.498 -20.666 -19.906  0.00  0.00    +0.031 C 
ATOM     24  C   UNL     1      35.871 -20.931 -20.278  0.00  0.00    +0.016 C 
ATOM     25  C   UNL     1      34.790 -22.121 -18.475  0.00  0.00    +0.015 C 
ATOM     26  C   UNL     1      35.941 -21.813 -19.199  0.00  0.00    +0.003 C 
BRANCH  21  27
ATOM     27  N   UNL     1      34.577 -19.456 -21.736  0.00  0.00    -0.219 N 
ATOM     28  H   UNL     1      33.958 -19.620 -22.484  0.00  0.00    +0.173 HD
BRANCH  27  29
ATOM     29  S   UNL     1      35.602 -18.072 -21.724  0.00  0.00    +0.056 S 
ATOM     30  O   UNL     1      35.207 -17.220 -20.617  0.00  0.00    -0.154 OA
ATOM     31  O   UNL     1      36.988 -18.452 -21.902  0.00  0.00    -0.154 OA
ATOM     32  C   UNL     1      35.060 -17.266 -23.214  0.00  0.00    +0.200 C 
ENDBRANCH  27  29
ENDBRANCH  21  27
ENDBRANCH   2  22
TORSDOF 4
ENDMDL
MODEL 4
REMARK VINA RESULT:     -10.7      3.465      5.606
REMARK  Name = 25011730
REMARK  4 active torsions:
REMARK  status: ('A' for Active; 'I' for Inactive)
REMARK    1  A    between atoms: N_1  and  C_15
REMARK    2  A    between atoms: N_2  and  C_22
REMARK    3  A    between atoms: C_21  and  N_27
REMARK    4  A    between atoms: N_27  and  S_29
REMARK                            x       y       z     vdW  Elec       q    Type
REMARK                         _______ _______ _______ _____ _____    ______ ____
ROOT
ATOM      1  N   UNL     1      34.796 -25.438 -13.448  0.00  0.00    -0.284 N 
ATOM      2  N   UNL     1      33.189 -22.496 -16.774  0.00  0.00    -0.247 N 
ATOM      3  N   UNL     1      34.010 -23.955 -15.130  0.00  0.00    -0.322 NA
ATOM      4  N   UNL     1      31.665 -23.409 -15.242  0.00  0.00    -0.170 NA
ATOM      5  C   UNL     1      33.737 -24.742 -14.068  0.00  0.00    +0.198 C 
ATOM      6  C   UNL     1      32.942 -23.328 -15.660  0.00  0.00    +0.150 C 
ATOM      7  C   UNL     1      32.472 -24.909 -13.542  0.00  0.00    +0.070 C 
ATOM      8  C   UNL     1      31.465 -24.212 -14.177  0.00  0.00    +0.116 C 
ATOM      9  H   UNL     1      34.522 -26.290 -13.038  0.00  0.00    +0.155 HD
ATOM     10  H   UNL     1      32.381 -22.058 -17.128  0.00  0.00    +0.165 HD
ENDROOT
BRANCH   1  15
ATOM     11 CL   UNL     1      36.704 -26.878 -15.346  0.00  0.00    -0.081 Cl
ATOM     12  O   UNL     1      35.798 -23.593 -11.459  0.00  0.00    -0.433 OA
ATOM     13  O   UNL     1      38.133 -23.074 -11.160  0.00  0.00    -0.435 OA
ATOM     14  C   UNL     1      36.595 -24.267 -12.334  0.00  0.00    +0.191 C 
ATOM     15  C   UNL     1      36.166 -25.156 -13.299  0.00  0.00    +0.098 C 
ATOM     16  C   UNL     1      37.928 -23.971 -12.162  0.00  0.00    +0.178 C 
ATOM     17  C   UNL     1      37.138 -25.751 -14.108  0.00  0.00    +0.074 C 
ATOM     18  C   UNL     1      38.906 -24.547 -12.947  0.00  0.00    +0.041 C 
ATOM     19  C   UNL     1      36.780 -22.840 -10.718  0.00  0.00    +0.429 C 
ATOM     20  C   UNL     1      38.499 -25.449 -13.933  0.00  0.00    +0.016 C 
ENDBRANCH   1  15
BRANCH   2  22
ATOM     21  C   UNL     1      35.444 -21.323 -19.466  0.00  0.00    +0.066 C 
ATOM     22  C   UNL     1      34.364 -22.169 -17.478  0.00  0.00    +0.059 C 
ATOM     23  C   UNL     1      34.281 -21.647 -18.768  0.00  0.00    +0.031 C 
ATOM     24  C   UNL     1      36.691 -21.521 -18.873  0.00  0.00    +0.016 C 
ATOM     25  C   UNL     1      35.611 -22.367 -16.885  0.00  0.00    +0.015 C 
ATOM     26  C   UNL     1      36.774 -22.043 -17.581  0.00  0.00    +0.003 C 
BRANCH  21  27
ATOM     27  N   UNL     1      35.359 -20.789 -20.788  0.00  0.00    -0.219 N 
ATOM     28  H   UNL     1      35.189 -21.375 -21.560  0.00  0.00    +0.173 HD
BRANCH  27  29
ATOM     29  S   UNL     1      35.564 -19.092 -20.993  0.00  0.00    +0.056 S 
ATOM     30  O   UNL     1      34.382 -18.423 -20.480  0.00  0.00    -0.154 OA
ATOM     31  O   UNL     1      36.887 -18.674 -20.575  0.00  0.00    -0.154 OA
ATOM     32  C   UNL     1      35.491 -18.978 -22.767  0.00  0.00    +0.200 C 
ENDBRANCH  27  29
ENDBRANCH  21  27
ENDBRANCH   2  22
TORSDOF 4
ENDMDL
MODEL 5
REMARK VINA RESULT:     -10.5     14.958     17.591
REMARK  Name = 25011730
REMARK  4 active torsions:
REMARK  status: ('A' for Active; 'I' for Inactive)
REMARK    1  A    between atoms: N_1  and  C_15
REMARK    2  A    between atoms: N_2  and  C_22
REMARK    3  A    between atoms: C_21  and  N_27
REMARK    4  A    between atoms: N_27  and  S_29
REMARK                            x       y       z     vdW  Elec       q    Type
REMARK                         _______ _______ _______ _____ _____    ______ ____
ROOT
ATOM      1  N   UNL     1      31.850 -11.616 -20.903  0.00  0.00    -0.284 N 
ATOM      2  N   UNL     1      32.858  -7.007 -20.705  0.00  0.00    -0.247 N 
ATOM      3  N   UNL     1      32.365  -9.298 -20.826  0.00  0.00    -0.322 NA
ATOM      4  N   UNL     1      31.901  -8.035 -18.826  0.00  0.00    -0.170 NA
ATOM      5  C   UNL     1      31.872 -10.390 -20.205  0.00  0.00    +0.198 C 
ATOM      6  C   UNL     1      32.350  -8.171 -20.089  0.00  0.00    +0.150 C 
ATOM      7  C   UNL     1      31.382 -10.384 -18.915  0.00  0.00    +0.070 C 
ATOM      8  C   UNL     1      31.422  -9.166 -18.268  0.00  0.00    +0.116 C 
ATOM      9  H   UNL     1      31.113 -12.211 -20.633  0.00  0.00    +0.155 HD
ATOM     10  H   UNL     1      32.827  -6.209 -20.130  0.00  0.00    +0.165 HD
ENDROOT
BRANCH   1  15
ATOM     11 CL   UNL     1      31.929 -10.120 -23.561  0.00  0.00    -0.081 Cl
ATOM     12  O   UNL     1      33.405 -14.023 -20.511  0.00  0.00    -0.433 OA
ATOM     13  O   UNL     1      34.828 -14.995 -22.196  0.00  0.00    -0.435 OA
ATOM     14  C   UNL     1      33.395 -13.310 -21.671  0.00  0.00    +0.191 C 
ATOM     15  C   UNL     1      32.672 -12.158 -21.907  0.00  0.00    +0.098 C 
ATOM     16  C   UNL     1      34.208 -13.866 -22.633  0.00  0.00    +0.178 C 
ATOM     17  C   UNL     1      32.793 -11.565 -23.167  0.00  0.00    +0.074 C 
ATOM     18  C   UNL     1      34.342 -13.300 -23.885  0.00  0.00    +0.041 C 
ATOM     19  C   UNL     1      34.314 -15.089 -20.852  0.00  0.00    +0.429 C 
ATOM     20  C   UNL     1      33.622 -12.132 -24.150  0.00  0.00    +0.016 C 
ENDBRANCH   1  15
BRANCH   2  22
ATOM     21  C   UNL     1      33.151  -5.950 -24.241  0.00  0.00    +0.066 C 
ATOM     22  C   UNL     1      33.402  -6.765 -21.981  0.00  0.00    +0.059 C 
ATOM     23  C   UNL     1      32.613  -6.190 -22.977  0.00  0.00    +0.031 C 
ATOM     24  C   UNL     1      34.478  -6.284 -24.510  0.00  0.00    +0.016 C 
ATOM     25  C   UNL     1      34.729  -7.100 -22.249  0.00  0.00    +0.015 C 
ATOM     26  C   UNL     1      35.268  -6.859 -23.513  0.00  0.00    +0.003 C 
BRANCH  21  27
ATOM     27  N   UNL     1      32.343  -5.361 -25.261  0.00  0.00    -0.219 N 
ATOM     28  H   UNL     1      32.215  -5.811 -26.127  0.00  0.00    +0.173 HD
BRANCH  27  29
ATOM     29  S   UNL     1      31.600  -3.843 -24.935  0.00  0.00    +0.056 S 
ATOM     30  O   UNL     1      30.237  -4.085 -24.497  0.00  0.00    -0.154 OA
ATOM     31  O   UNL     1      32.480  -2.989 -24.163  0.00  0.00    -0.154 OA
ATOM     32  C   UNL     1      31.502  -3.179 -26.582  0.00  0.00    +0.200 C 
ENDBRANCH  27  29
ENDBRANCH  21  27
ENDBRANCH   2  22
TORSDOF 4
ENDMDL
MODEL 6
REMARK VINA RESULT:     -10.4      3.412      7.535
REMARK  Name = 25011730
REMARK  4 active torsions:
REMARK  status: ('A' for Active; 'I' for Inactive)
REMARK    1  A    between atoms: N_1  and  C_15
REMARK    2  A    between atoms: N_2  and  C_22
REMARK    3  A    between atoms: C_21  and  N_27
REMARK    4  A    between atoms: N_27  and  S_29
REMARK                            x       y       z     vdW  Elec       q    Type
REMARK                         _______ _______ _______ _____ _____    ______ ____
ROOT
ATOM      1  N   UNL     1      32.451 -23.235 -17.280  0.00  0.00    -0.284 N 
ATOM      2  N   UNL     1      36.997 -22.355 -16.356  0.00  0.00    -0.247 N 
ATOM      3  N   UNL     1      34.736 -22.804 -16.794  0.00  0.00    -0.322 NA
ATOM      4  N   UNL     1      36.079 -21.563 -18.364  0.00  0.00    -0.170 NA
ATOM      5  C   UNL     1      33.693 -22.670 -17.639  0.00  0.00    +0.198 C 
ATOM      6  C   UNL     1      35.883 -22.234 -17.214  0.00  0.00    +0.150 C 
ATOM      7  C   UNL     1      33.763 -22.005 -18.846  0.00  0.00    +0.070 C 
ATOM      8  C   UNL     1      34.994 -21.467 -19.160  0.00  0.00    +0.116 C 
ATOM      9  H   UNL     1      31.908 -23.517 -18.051  0.00  0.00    +0.155 HD
ATOM     10  H   UNL     1      37.812 -21.925 -16.702  0.00  0.00    +0.165 HD
ENDROOT
BRANCH   1  15
ATOM     11 CL   UNL     1      34.165 -24.567 -15.136  0.00  0.00    -0.081 Cl
ATOM     12  O   UNL     1      29.701 -22.517 -16.743  0.00  0.00    -0.433 OA
ATOM     13  O   UNL     1      28.596 -22.905 -14.637  0.00  0.00    -0.435 OA
ATOM     14  C   UNL     1      30.518 -23.113 -15.831  0.00  0.00    +0.191 C 
ATOM     15  C   UNL     1      31.834 -23.474 -16.038  0.00  0.00    +0.098 C 
ATOM     16  C   UNL     1      29.886 -23.335 -14.629  0.00  0.00    +0.178 C 
ATOM     17  C   UNL     1      32.514 -24.078 -14.977  0.00  0.00    +0.074 C 
ATOM     18  C   UNL     1      30.536 -23.930 -13.567  0.00  0.00    +0.041 C 
ATOM     19  C   UNL     1      28.485 -22.389 -15.979  0.00  0.00    +0.429 C 
ATOM     20  C   UNL     1      31.869 -24.305 -13.749  0.00  0.00    +0.016 C 
ENDBRANCH   1  15
BRANCH   2  22
ATOM     21  C   UNL     1      38.147 -24.714 -13.744  0.00  0.00    +0.066 C 
ATOM     22  C   UNL     1      37.172 -22.969 -15.101  0.00  0.00    +0.059 C 
ATOM     23  C   UNL     1      37.974 -24.105 -14.986  0.00  0.00    +0.031 C 
ATOM     24  C   UNL     1      37.519 -24.188 -12.615  0.00  0.00    +0.016 C 
ATOM     25  C   UNL     1      36.544 -22.443 -13.973  0.00  0.00    +0.015 C 
ATOM     26  C   UNL     1      36.717 -23.051 -12.730  0.00  0.00    +0.003 C 
BRANCH  21  27
ATOM     27  N   UNL     1      38.968 -25.877 -13.627  0.00  0.00    -0.219 N 
ATOM     28  H   UNL     1      38.639 -26.684 -13.171  0.00  0.00    +0.173 HD
BRANCH  27  29
ATOM     29  S   UNL     1      40.550 -25.827 -14.305  0.00  0.00    +0.056 S 
ATOM     30  O   UNL     1      40.465 -26.233 -15.696  0.00  0.00    -0.154 OA
ATOM     31  O   UNL     1      41.235 -24.605 -13.936  0.00  0.00    -0.154 OA
ATOM     32  C   UNL     1      41.314 -27.169 -13.423  0.00  0.00    +0.200 C 
ENDBRANCH  27  29
ENDBRANCH  21  27
ENDBRANCH   2  22
TORSDOF 4
ENDMDL
MODEL 7
REMARK VINA RESULT:     -10.2      3.851      7.277
REMARK  Name = 25011730
REMARK  4 active torsions:
REMARK  status: ('A' for Active; 'I' for Inactive)
REMARK    1  A    between atoms: N_1  and  C_15
REMARK    2  A    between atoms: N_2  and  C_22
REMARK    3  A    between atoms: C_21  and  N_27
REMARK    4  A    between atoms: N_27  and  S_29
REMARK                            x       y       z     vdW  Elec       q    Type
REMARK                         _______ _______ _______ _____ _____    ______ ____
ROOT
ATOM      1  N   UNL     1      33.080 -22.668 -16.312  0.00  0.00    -0.284 N 
ATOM      2  N   UNL     1      33.958 -25.003 -12.303  0.00  0.00    -0.247 N 
ATOM      3  N   UNL     1      33.544 -23.833 -14.294  0.00  0.00    -0.322 NA
ATOM      4  N   UNL     1      31.850 -25.235 -13.306  0.00  0.00    -0.170 NA
ATOM      5  C   UNL     1      32.672 -23.541 -15.282  0.00  0.00    +0.198 C 
ATOM      6  C   UNL     1      33.073 -24.674 -13.353  0.00  0.00    +0.150 C 
ATOM      7  C   UNL     1      31.391 -24.049 -15.350  0.00  0.00    +0.070 C 
ATOM      8  C   UNL     1      31.031 -24.899 -14.324  0.00  0.00    +0.116 C 
ATOM      9  H   UNL     1      32.343 -22.145 -16.701  0.00  0.00    +0.155 HD
ATOM     10  H   UNL     1      33.572 -25.619 -11.639  0.00  0.00    +0.165 HD
ENDROOT
BRANCH   1  15
ATOM     11 CL   UNL     1      33.111 -22.181 -19.325  0.00  0.00    -0.081 Cl
ATOM     12  O   UNL     1      35.524 -22.567 -14.771  0.00  0.00    -0.433 OA
ATOM     13  O   UNL     1      37.694 -22.109 -15.715  0.00  0.00    -0.435 OA
ATOM     14  C   UNL     1      35.470 -22.360 -16.115  0.00  0.00    +0.191 C 
ATOM     15  C   UNL     1      34.332 -22.397 -16.894  0.00  0.00    +0.098 C 
ATOM     16  C   UNL     1      36.709 -22.099 -16.654  0.00  0.00    +0.178 C 
ATOM     17  C   UNL     1      34.476 -22.157 -18.263  0.00  0.00    +0.074 C 
ATOM     18  C   UNL     1      36.878 -21.860 -18.003  0.00  0.00    +0.041 C 
ATOM     19  C   UNL     1      36.937 -22.407 -14.525  0.00  0.00    +0.429 C 
ATOM     20  C   UNL     1      35.742 -21.891 -18.815  0.00  0.00    +0.016 C 
ENDBRANCH   1  15
BRANCH   2  22
ATOM     21  C   UNL     1      37.655 -25.071 -12.123  0.00  0.00    +0.066 C 
ATOM     22  C   UNL     1      35.284 -24.623 -12.019  0.00  0.00    +0.059 C 
ATOM     23  C   UNL     1      36.342 -25.446 -12.404  0.00  0.00    +0.031 C 
ATOM     24  C   UNL     1      37.911 -23.872 -11.457  0.00  0.00    +0.016 C 
ATOM     25  C   UNL     1      35.539 -23.425 -11.353  0.00  0.00    +0.015 C 
ATOM     26  C   UNL     1      36.852 -23.048 -11.072  0.00  0.00    +0.003 C 
BRANCH  21  27
ATOM     27  N   UNL     1      38.739 -25.913 -12.517  0.00  0.00    -0.219 N 
ATOM     28  H   UNL     1      39.150 -26.539 -11.879  0.00  0.00    +0.173 HD
BRANCH  27  29
ATOM     29  S   UNL     1      39.307 -25.802 -14.139  0.00  0.00    +0.056 S 
ATOM     30  O   UNL     1      38.453 -26.619 -14.980  0.00  0.00    -0.154 OA
ATOM     31  O   UNL     1      39.593 -24.427 -14.495  0.00  0.00    -0.154 OA
ATOM     32  C   UNL     1      40.857 -26.661 -13.989  0.00  0.00    +0.200 C 
ENDBRANCH  27  29
ENDBRANCH  21  27
ENDBRANCH   2  22
TORSDOF 4
ENDMDL
MODEL 8
REMARK VINA RESULT:     -10.2      3.598      5.819
REMARK  Name = 25011730
REMARK  4 active torsions:
REMARK  status: ('A' for Active; 'I' for Inactive)
REMARK    1  A    between atoms: N_1  and  C_15
REMARK    2  A    between atoms: N_2  and  C_22
REMARK    3  A    between atoms: C_21  and  N_27
REMARK    4  A    between atoms: N_27  and  S_29
REMARK                            x       y       z     vdW  Elec       q    Type
REMARK                         _______ _______ _______ _____ _____    ______ ____
ROOT
ATOM      1  N   UNL     1      34.409 -25.128 -12.759  0.00  0.00    -0.284 N 
ATOM      2  N   UNL     1      33.079 -22.938 -16.726  0.00  0.00    -0.247 N 
ATOM      3  N   UNL     1      33.762 -24.021 -14.760  0.00  0.00    -0.322 NA
ATOM      4  N   UNL     1      31.433 -23.916 -15.370  0.00  0.00    -0.170 NA
ATOM      5  C   UNL     1      33.404 -24.710 -13.657  0.00  0.00    +0.198 C 
ATOM      6  C   UNL     1      32.742 -23.660 -15.561  0.00  0.00    +0.150 C 
ATOM      7  C   UNL     1      32.099 -25.034 -13.346  0.00  0.00    +0.070 C 
ATOM      8  C   UNL     1      31.147 -24.608 -14.248  0.00  0.00    +0.116 C 
ATOM      9  H   UNL     1      34.189 -25.959 -12.280  0.00  0.00    +0.155 HD
ATOM     10  H   UNL     1      32.302 -22.696 -17.281  0.00  0.00    +0.165 HD
ENDROOT
BRANCH   1  15
ATOM     11 CL   UNL     1      34.505 -23.376 -10.262  0.00  0.00    -0.081 Cl
ATOM     12  O   UNL     1      36.800 -25.635 -14.305  0.00  0.00    -0.433 OA
ATOM     13  O   UNL     1      38.970 -24.741 -13.759  0.00  0.00    -0.435 OA
ATOM     14  C   UNL     1      36.775 -24.863 -13.184  0.00  0.00    +0.191 C 
ATOM     15  C   UNL     1      35.663 -24.592 -12.413  0.00  0.00    +0.098 C 
ATOM     16  C   UNL     1      38.014 -24.353 -12.872  0.00  0.00    +0.178 C 
ATOM     17  C   UNL     1      35.835 -23.775 -11.292  0.00  0.00    +0.074 C 
ATOM     18  C   UNL     1      38.210 -23.543 -11.772  0.00  0.00    +0.041 C 
ATOM     19  C   UNL     1      38.194 -25.552 -14.664  0.00  0.00    +0.429 C 
ATOM     20  C   UNL     1      37.101 -23.254 -10.974  0.00  0.00    +0.016 C 
ENDBRANCH   1  15
BRANCH   2  22
ATOM     21  C   UNL     1      35.601 -21.611 -19.090  0.00  0.00    +0.066 C 
ATOM     22  C   UNL     1      34.309 -22.495 -17.250  0.00  0.00    +0.059 C 
ATOM     23  C   UNL     1      34.384 -22.049 -18.570  0.00  0.00    +0.031 C 
ATOM     24  C   UNL     1      36.744 -21.618 -18.290  0.00  0.00    +0.016 C 
ATOM     25  C   UNL     1      35.451 -22.503 -16.451  0.00  0.00    +0.015 C 
ATOM     26  C   UNL     1      36.669 -22.064 -16.970  0.00  0.00    +0.003 C 
BRANCH  21  27
ATOM     27  N   UNL     1      35.678 -21.154 -20.440  0.00  0.00    -0.219 N 
ATOM     28  H   UNL     1      35.888 -21.776 -21.173  0.00  0.00    +0.173 HD
BRANCH  27  29
ATOM     29  S   UNL     1      35.393 -19.484 -20.752  0.00  0.00    +0.056 S 
ATOM     30  O   UNL     1      34.082 -19.139 -20.232  0.00  0.00    -0.154 OA
ATOM     31  O   UNL     1      36.554 -18.687 -20.411  0.00  0.00    -0.154 OA
ATOM     32  C   UNL     1      35.253 -19.514 -22.525  0.00  0.00    +0.200 C 
ENDBRANCH  27  29
ENDBRANCH  21  27
ENDBRANCH   2  22
TORSDOF 4
ENDMDL
MODEL 9
REMARK VINA RESULT:     -10.1      3.896      7.389
REMARK  Name = 25011730
REMARK  4 active torsions:
REMARK  status: ('A' for Active; 'I' for Inactive)
REMARK    1  A    between atoms: N_1  and  C_15
REMARK    2  A    between atoms: N_2  and  C_22
REMARK    3  A    between atoms: C_21  and  N_27
REMARK    4  A    between atoms: N_27  and  S_29
REMARK                            x       y       z     vdW  Elec       q    Type
REMARK                         _______ _______ _______ _____ _____    ______ ____
ROOT
ATOM      1  N   UNL     1      32.296 -23.325 -16.944  0.00  0.00    -0.284 N 
ATOM      2  N   UNL     1      36.885 -22.385 -16.353  0.00  0.00    -0.247 N 
ATOM      3  N   UNL     1      34.605 -22.863 -16.626  0.00  0.00    -0.322 NA
ATOM      4  N   UNL     1      35.829 -21.662 -18.319  0.00  0.00    -0.170 NA
ATOM      5  C   UNL     1      33.506 -22.762 -17.402  0.00  0.00    +0.198 C 
ATOM      6  C   UNL     1      35.715 -22.299 -17.138  0.00  0.00    +0.150 C 
ATOM      7  C   UNL     1      33.490 -22.136 -18.632  0.00  0.00    +0.070 C 
ATOM      8  C   UNL     1      34.693 -21.599 -19.043  0.00  0.00    +0.116 C 
ATOM      9  H   UNL     1      31.705 -23.634 -17.668  0.00  0.00    +0.155 HD
ATOM     10  H   UNL     1      37.671 -21.960 -16.766  0.00  0.00    +0.165 HD
ENDROOT
BRANCH   1  15
ATOM     11 CL   UNL     1      29.372 -22.552 -16.531  0.00  0.00    -0.081 Cl
ATOM     12  O   UNL     1      33.859 -24.421 -14.772  0.00  0.00    -0.433 OA
ATOM     13  O   UNL     1      33.002 -24.791 -12.550  0.00  0.00    -0.435 OA
ATOM     14  C   UNL     1      32.552 -24.056 -14.653  0.00  0.00    +0.191 C 
ATOM     15  C   UNL     1      31.765 -23.530 -15.657  0.00  0.00    +0.098 C 
ATOM     16  C   UNL     1      32.064 -24.267 -13.385  0.00  0.00    +0.178 C 
ATOM     17  C   UNL     1      30.440 -23.216 -15.344  0.00  0.00    +0.074 C 
ATOM     18  C   UNL     1      30.760 -23.964 -13.049  0.00  0.00    +0.041 C 
ATOM     19  C   UNL     1      34.137 -24.885 -13.435  0.00  0.00    +0.429 C 
ATOM     20  C   UNL     1      29.940 -23.431 -14.048  0.00  0.00    +0.016 C 
ENDBRANCH   1  15
BRANCH   2  22
ATOM     21  C   UNL     1      38.187 -24.682 -13.757  0.00  0.00    +0.066 C 
ATOM     22  C   UNL     1      37.149 -22.958 -15.094  0.00  0.00    +0.059 C 
ATOM     23  C   UNL     1      37.926 -24.113 -15.003  0.00  0.00    +0.031 C 
ATOM     24  C   UNL     1      37.671 -24.096 -12.601  0.00  0.00    +0.016 C 
ATOM     25  C   UNL     1      36.632 -22.373 -13.939  0.00  0.00    +0.015 C 
ATOM     26  C   UNL     1      36.893 -22.941 -12.692  0.00  0.00    +0.003 C 
BRANCH  21  27
ATOM     27  N   UNL     1      38.983 -25.864 -13.664  0.00  0.00    -0.219 N 
ATOM     28  H   UNL     1      38.633 -26.676 -13.233  0.00  0.00    +0.173 HD
BRANCH  27  29
ATOM     29  S   UNL     1      40.571 -25.829 -14.327  0.00  0.00    +0.056 S 
ATOM     30  O   UNL     1      40.496 -26.231 -15.719  0.00  0.00    -0.154 OA
ATOM     31  O   UNL     1      41.265 -24.614 -13.947  0.00  0.00    -0.154 OA
ATOM     32  C   UNL     1      41.313 -27.181 -13.440  0.00  0.00    +0.200 C 
ENDBRANCH  27  29
ENDBRANCH  21  27
ENDBRANCH   2  22
TORSDOF 4
ENDMDL
