MODEL 1
REMARK VINA RESULT:     -10.8      0.000      0.000
REMARK  Name = 5326887
REMARK  9 active torsions:
REMARK  status: ('A' for Active; 'I' for Inactive)
REMARK    1  A    between atoms: N_3  and  C_19
REMARK    2  A    between atoms: C_6  and  C_11
REMARK    3  A    between atoms: C_17  and  O_24
REMARK    4  A    between atoms: O_24  and  C_25
REMARK    5  A    between atoms: C_25  and  C_26
REMARK    6  A    between atoms: C_26  and  C_27
REMARK    7  A    between atoms: C_27  and  C_28
REMARK    8  A    between atoms: C_28  and  C_30
REMARK    9  A    between atoms: C_30  and  O_31
REMARK                            x       y       z     vdW  Elec       q    Type
REMARK                         _______ _______ _______ _____ _____    ______ ____
ROOT
ATOM      1  O   UNL     1      31.683 -13.603 -21.521  0.00  0.00    -0.252 OA
ATOM      2  O   UNL     1      30.398 -11.209 -20.930  0.00  0.00    -0.270 OA
ATOM      3  N   UNL     1      33.814 -13.285 -22.465  0.00  0.00    -0.268 N 
ATOM      4  N   UNL     1      32.514 -11.462 -21.869  0.00  0.00    -0.236 N 
ATOM      5  C   UNL     1      32.585 -12.869 -21.914  0.00  0.00    +0.310 C 
ATOM      6  C   UNL     1      31.433 -10.727 -21.383  0.00  0.00    +0.253 C 
ATOM      7  H   UNL     1      34.430 -12.565 -22.733  0.00  0.00    +0.156 HD
ATOM      8  H   UNL     1      33.289 -10.957 -22.207  0.00  0.00    +0.159 HD
ENDROOT
BRANCH   6  11
ATOM      9 CL   UNL     1      32.365  -9.339 -18.786  0.00  0.00    -0.082 Cl
ATOM     10 CL   UNL     1      32.054  -4.769 -21.609  0.00  0.00    -0.082 Cl
ATOM     11  C   UNL     1      31.597  -9.252 -21.403  0.00  0.00    +0.064 C 
ATOM     12  C   UNL     1      32.014  -8.540 -20.277  0.00  0.00    +0.063 C 
ATOM     13  C   UNL     1      31.322  -8.577 -22.591  0.00  0.00    +0.006 C 
ATOM     14  C   UNL     1      32.155  -7.155 -20.341  0.00  0.00    +0.023 C 
ATOM     15  C   UNL     1      31.464  -7.191 -22.656  0.00  0.00    +0.012 C 
ATOM     16  C   UNL     1      31.881  -6.480 -21.531  0.00  0.00    +0.059 C 
ENDBRANCH   6  11
BRANCH   3  19
ATOM     17  C   UNL     1      35.159 -16.677 -21.857  0.00  0.00    +0.136 C 
ATOM     18  C   UNL     1      34.706 -15.380 -21.619  0.00  0.00    +0.026 C 
ATOM     19  C   UNL     1      34.271 -14.588 -22.681  0.00  0.00    +0.050 C 
ATOM     20  C   UNL     1      35.176 -17.183 -23.156  0.00  0.00    +0.037 C 
ATOM     21  C   UNL     1      34.289 -15.093 -23.981  0.00  0.00    +0.015 C 
ATOM     22  C   UNL     1      34.693 -14.847 -20.221  0.00  0.00    +0.036 C 
ATOM     23  C   UNL     1      34.741 -16.391 -24.219  0.00  0.00    +0.004 C 
BRANCH  17  24
ATOM     24  O   UNL     1      35.591 -17.472 -20.826  0.00  0.00    -0.476 OA
BRANCH  24  25
ATOM     25  C   UNL     1      35.878 -18.827 -21.137  0.00  0.00    +0.205 C 
BRANCH  25  26
ATOM     26  C   UNL     1      34.687 -19.707 -20.778  0.00  0.00    +0.048 C 
BRANCH  26  27
ATOM     27  C   UNL     1      35.071 -20.834 -19.812  0.00  0.00    +0.015 C 
BRANCH  27  28
ATOM     28  C   UNL     1      33.849 -21.516 -19.194  0.00  0.00    +0.109 C 
BRANCH  28  30
ATOM     29  O   UNL     1      34.702 -22.811 -17.315  0.00  0.00    -0.250 OA
ATOM     30  C   UNL     1      34.192 -22.773 -18.425  0.00  0.00    +0.314 C 
BRANCH  30  31
ATOM     31  O   UNL     1      33.881 -23.888 -19.136  0.00  0.00    -0.480 OA
ATOM     32  H   UNL     1      33.002 -24.214 -19.137  0.00  0.00    +0.295 HD
ENDBRANCH  30  31
ENDBRANCH  28  30
ENDBRANCH  27  28
ENDBRANCH  26  27
ENDBRANCH  25  26
ENDBRANCH  24  25
ENDBRANCH  17  24
ENDBRANCH   3  19
TORSDOF 9
ENDMDL
MODEL 2
REMARK VINA RESULT:     -10.5      1.936      2.031
REMARK  Name = 5326887
REMARK  9 active torsions:
REMARK  status: ('A' for Active; 'I' for Inactive)
REMARK    1  A    between atoms: N_3  and  C_19
REMARK    2  A    between atoms: C_6  and  C_11
REMARK    3  A    between atoms: C_17  and  O_24
REMARK    4  A    between atoms: O_24  and  C_25
REMARK    5  A    between atoms: C_25  and  C_26
REMARK    6  A    between atoms: C_26  and  C_27
REMARK    7  A    between atoms: C_27  and  C_28
REMARK    8  A    between atoms: C_28  and  C_30
REMARK    9  A    between atoms: C_30  and  O_31
REMARK                            x       y       z     vdW  Elec       q    Type
REMARK                         _______ _______ _______ _____ _____    ______ ____
ROOT
ATOM      1  O   UNL     1      33.284 -13.194 -24.648  0.00  0.00    -0.252 OA
ATOM      2  O   UNL     1      32.530 -10.523 -24.823  0.00  0.00    -0.270 OA
ATOM      3  N   UNL     1      34.255 -13.734 -22.574  0.00  0.00    -0.268 N 
ATOM      4  N   UNL     1      33.529 -11.574 -23.001  0.00  0.00    -0.236 N 
ATOM      5  C   UNL     1      33.654 -12.878 -23.521  0.00  0.00    +0.310 C 
ATOM      6  C   UNL     1      32.979 -10.488 -23.680  0.00  0.00    +0.253 C 
ATOM      7  H   UNL     1      34.495 -13.319 -21.714  0.00  0.00    +0.156 HD
ATOM      8  H   UNL     1      33.855 -11.418 -22.085  0.00  0.00    +0.159 HD
ENDROOT
BRANCH   6  11
ATOM      9 CL   UNL     1      35.492  -8.692 -23.658  0.00  0.00    -0.082 Cl
ATOM     10 CL   UNL     1      32.590  -5.382 -20.563  0.00  0.00    -0.082 Cl
ATOM     11  C   UNL     1      32.918  -9.216 -22.917  0.00  0.00    +0.064 C 
ATOM     12  C   UNL     1      34.005  -8.342 -22.851  0.00  0.00    +0.063 C 
ATOM     13  C   UNL     1      31.731  -8.903 -22.256  0.00  0.00    +0.006 C 
ATOM     14  C   UNL     1      33.903  -7.157 -22.124  0.00  0.00    +0.023 C 
ATOM     15  C   UNL     1      31.630  -7.718 -21.528  0.00  0.00    +0.012 C 
ATOM     16  C   UNL     1      32.715  -6.844 -21.463  0.00  0.00    +0.059 C 
ENDBRANCH   6  11
BRANCH   3  19
ATOM     17  C   UNL     1      35.139 -17.225 -21.727  0.00  0.00    +0.136 C 
ATOM     18  C   UNL     1      34.842 -15.870 -21.578  0.00  0.00    +0.026 C 
ATOM     19  C   UNL     1      34.554 -15.092 -22.700  0.00  0.00    +0.050 C 
ATOM     20  C   UNL     1      35.147 -17.802 -22.996  0.00  0.00    +0.037 C 
ATOM     21  C   UNL     1      34.563 -15.670 -23.970  0.00  0.00    +0.015 C 
ATOM     22  C   UNL     1      34.836 -15.260 -20.212  0.00  0.00    +0.036 C 
ATOM     23  C   UNL     1      34.860 -17.025 -24.118  0.00  0.00    +0.004 C 
BRANCH  17  24
ATOM     24  O   UNL     1      35.425 -18.005 -20.636  0.00  0.00    -0.476 OA
BRANCH  24  25
ATOM     25  C   UNL     1      35.924 -19.309 -20.894  0.00  0.00    +0.205 C 
BRANCH  25  26
ATOM     26  C   UNL     1      35.035 -20.348 -20.219  0.00  0.00    +0.048 C 
BRANCH  26  27
ATOM     27  C   UNL     1      35.853 -21.454 -19.540  0.00  0.00    +0.015 C 
BRANCH  27  28
ATOM     28  C   UNL     1      35.149 -22.029 -18.310  0.00  0.00    +0.109 C 
BRANCH  28  30
ATOM     29  O   UNL     1      32.725 -22.217 -18.453  0.00  0.00    -0.250 OA
ATOM     30  C   UNL     1      33.833 -22.700 -18.634  0.00  0.00    +0.314 C 
BRANCH  30  31
ATOM     31  O   UNL     1      34.023 -23.945 -19.143  0.00  0.00    -0.480 OA
ATOM     32  H   UNL     1      34.727 -24.106 -19.740  0.00  0.00    +0.295 HD
ENDBRANCH  30  31
ENDBRANCH  28  30
ENDBRANCH  27  28
ENDBRANCH  26  27
ENDBRANCH  25  26
ENDBRANCH  24  25
ENDBRANCH  17  24
ENDBRANCH   3  19
TORSDOF 9
ENDMDL
MODEL 3
REMARK VINA RESULT:     -10.3      4.161      6.723
REMARK  Name = 5326887
REMARK  9 active torsions:
REMARK  status: ('A' for Active; 'I' for Inactive)
REMARK    1  A    between atoms: N_3  and  C_19
REMARK    2  A    between atoms: C_6  and  C_11
REMARK    3  A    between atoms: C_17  and  O_24
REMARK    4  A    between atoms: O_24  and  C_25
REMARK    5  A    between atoms: C_25  and  C_26
REMARK    6  A    between atoms: C_26  and  C_27
REMARK    7  A    between atoms: C_27  and  C_28
REMARK    8  A    between atoms: C_28  and  C_30
REMARK    9  A    between atoms: C_30  and  O_31
REMARK                            x       y       z     vdW  Elec       q    Type
REMARK                         _______ _______ _______ _____ _____    ______ ____
ROOT
ATOM      1  O   UNL     1      35.078 -19.577 -22.915  0.00  0.00    -0.252 OA
ATOM      2  O   UNL     1      34.770 -17.462 -24.693  0.00  0.00    -0.270 OA
ATOM      3  N   UNL     1      34.762 -18.936 -20.673  0.00  0.00    -0.268 N 
ATOM      4  N   UNL     1      34.564 -17.376 -22.376  0.00  0.00    -0.236 N 
ATOM      5  C   UNL     1      34.827 -18.726 -22.066  0.00  0.00    +0.310 C 
ATOM      6  C   UNL     1      34.552 -16.835 -23.660  0.00  0.00    +0.253 C 
ATOM      7  H   UNL     1      34.551 -18.143 -20.129  0.00  0.00    +0.156 HD
ATOM      8  H   UNL     1      34.373 -16.768 -21.625  0.00  0.00    +0.159 HD
ENDROOT
BRANCH   6  11
ATOM      9 CL   UNL     1      35.003 -15.087 -21.153  0.00  0.00    -0.082 Cl
ATOM     10 CL   UNL     1      33.145 -11.029 -24.158  0.00  0.00    -0.082 Cl
ATOM     11  C   UNL     1      34.213 -15.392 -23.747  0.00  0.00    +0.064 C 
ATOM     12  C   UNL     1      34.384 -14.527 -22.666  0.00  0.00    +0.063 C 
ATOM     13  C   UNL     1      33.713 -14.907 -24.955  0.00  0.00    +0.006 C 
ATOM     14  C   UNL     1      34.054 -13.178 -22.793  0.00  0.00    +0.023 C 
ATOM     15  C   UNL     1      33.383 -13.558 -25.082  0.00  0.00    +0.012 C 
ATOM     16  C   UNL     1      33.554 -12.693 -24.002  0.00  0.00    +0.059 C 
ENDBRANCH   6  11
BRANCH   3  19
ATOM     17  C   UNL     1      34.099 -22.079 -18.838  0.00  0.00    +0.136 C 
ATOM     18  C   UNL     1      33.878 -20.897 -19.544  0.00  0.00    +0.026 C 
ATOM     19  C   UNL     1      34.961 -20.124 -19.965  0.00  0.00    +0.050 C 
ATOM     20  C   UNL     1      35.401 -22.489 -18.553  0.00  0.00    +0.037 C 
ATOM     21  C   UNL     1      36.263 -20.533 -19.679  0.00  0.00    +0.015 C 
ATOM     22  C   UNL     1      32.477 -20.465 -19.844  0.00  0.00    +0.036 C 
ATOM     23  C   UNL     1      36.483 -21.716 -18.974  0.00  0.00    +0.004 C 
BRANCH  17  24
ATOM     24  O   UNL     1      33.048 -22.852 -18.415  0.00  0.00    -0.476 OA
BRANCH  24  25
ATOM     25  C   UNL     1      32.954 -23.100 -17.021  0.00  0.00    +0.205 C 
BRANCH  25  26
ATOM     26  C   UNL     1      31.570 -22.710 -16.515  0.00  0.00    +0.048 C 
BRANCH  26  27
ATOM     27  C   UNL     1      30.986 -23.760 -15.561  0.00  0.00    +0.015 C 
BRANCH  27  28
ATOM     28  C   UNL     1      29.567 -23.413 -15.109  0.00  0.00    +0.109 C 
BRANCH  28  30
ATOM     29  O   UNL     1      28.039 -24.286 -16.794  0.00  0.00    -0.250 OA
ATOM     30  C   UNL     1      28.578 -23.333 -16.251  0.00  0.00    +0.314 C 
BRANCH  30  31
ATOM     31  O   UNL     1      28.368 -22.047 -16.635  0.00  0.00    -0.480 OA
ATOM     32  H   UNL     1      27.535 -21.643 -16.488  0.00  0.00    +0.295 HD
ENDBRANCH  30  31
ENDBRANCH  28  30
ENDBRANCH  27  28
ENDBRANCH  26  27
ENDBRANCH  25  26
ENDBRANCH  24  25
ENDBRANCH  17  24
ENDBRANCH   3  19
TORSDOF 9
ENDMDL
MODEL 4
REMARK VINA RESULT:     -10.2      2.352      2.888
REMARK  Name = 5326887
REMARK  9 active torsions:
REMARK  status: ('A' for Active; 'I' for Inactive)
REMARK    1  A    between atoms: N_3  and  C_19
REMARK    2  A    between atoms: C_6  and  C_11
REMARK    3  A    between atoms: C_17  and  O_24
REMARK    4  A    between atoms: O_24  and  C_25
REMARK    5  A    between atoms: C_25  and  C_26
REMARK    6  A    between atoms: C_26  and  C_27
REMARK    7  A    between atoms: C_27  and  C_28
REMARK    8  A    between atoms: C_28  and  C_30
REMARK    9  A    between atoms: C_30  and  O_31
REMARK                            x       y       z     vdW  Elec       q    Type
REMARK                         _______ _______ _______ _____ _____    ______ ____
ROOT
ATOM      1  O   UNL     1      35.125 -10.979 -24.051  0.00  0.00    -0.252 OA
ATOM      2  O   UNL     1      34.878  -8.239 -23.649  0.00  0.00    -0.270 OA
ATOM      3  N   UNL     1      33.209 -12.174 -23.390  0.00  0.00    -0.268 N 
ATOM      4  N   UNL     1      33.284  -9.868 -23.170  0.00  0.00    -0.236 N 
ATOM      5  C   UNL     1      33.988 -11.016 -23.587  0.00  0.00    +0.310 C 
ATOM      6  C   UNL     1      33.770  -8.563 -23.228  0.00  0.00    +0.253 C 
ATOM      7  H   UNL     1      32.315 -12.028 -23.003  0.00  0.00    +0.156 HD
ATOM      8  H   UNL     1      32.377  -9.998 -22.811  0.00  0.00    +0.159 HD
ENDROOT
BRANCH   6  11
ATOM      9 CL   UNL     1      31.437  -7.776 -25.092  0.00  0.00    -0.082 Cl
ATOM     10 CL   UNL     1      30.072  -4.289 -21.228  0.00  0.00    -0.082 Cl
ATOM     11  C   UNL     1      32.835  -7.507 -22.765  0.00  0.00    +0.064 C 
ATOM     12  C   UNL     1      31.753  -7.087 -23.540  0.00  0.00    +0.063 C 
ATOM     13  C   UNL     1      33.062  -6.931 -21.515  0.00  0.00    +0.006 C 
ATOM     14  C   UNL     1      30.899  -6.093 -23.064  0.00  0.00    +0.023 C 
ATOM     15  C   UNL     1      32.208  -5.936 -21.040  0.00  0.00    +0.012 C 
ATOM     16  C   UNL     1      31.126  -5.518 -21.814  0.00  0.00    +0.059 C 
ENDBRANCH   6  11
BRANCH   3  19
ATOM     17  C   UNL     1      34.507 -15.619 -23.023  0.00  0.00    +0.136 C 
ATOM     18  C   UNL     1      34.184 -14.296 -22.721  0.00  0.00    +0.026 C 
ATOM     19  C   UNL     1      33.541 -13.501 -23.671  0.00  0.00    +0.050 C 
ATOM     20  C   UNL     1      34.189 -16.147 -24.273  0.00  0.00    +0.037 C 
ATOM     21  C   UNL     1      33.223 -14.029 -24.922  0.00  0.00    +0.015 C 
ATOM     22  C   UNL     1      34.530 -13.738 -21.376  0.00  0.00    +0.036 C 
ATOM     23  C   UNL     1      33.547 -15.352 -25.223  0.00  0.00    +0.004 C 
BRANCH  17  24
ATOM     24  O   UNL     1      35.139 -16.416 -22.102  0.00  0.00    -0.476 OA
BRANCH  24  25
ATOM     25  C   UNL     1      35.400 -17.757 -22.488  0.00  0.00    +0.205 C 
BRANCH  25  26
ATOM     26  C   UNL     1      35.591 -18.626 -21.250  0.00  0.00    +0.048 C 
BRANCH  26  27
ATOM     27  C   UNL     1      34.691 -19.868 -21.272  0.00  0.00    +0.015 C 
BRANCH  27  28
ATOM     28  C   UNL     1      34.684 -20.608 -19.934  0.00  0.00    +0.109 C 
BRANCH  28  30
ATOM     29  O   UNL     1      33.112 -22.342 -19.259  0.00  0.00    -0.250 OA
ATOM     30  C   UNL     1      33.331 -21.182 -19.575  0.00  0.00    +0.314 C 
BRANCH  30  31
ATOM     31  O   UNL     1      32.354 -20.243 -19.670  0.00  0.00    -0.480 OA
ATOM     32  H   UNL     1      31.927 -20.091 -20.490  0.00  0.00    +0.295 HD
ENDBRANCH  30  31
ENDBRANCH  28  30
ENDBRANCH  27  28
ENDBRANCH  26  27
ENDBRANCH  25  26
ENDBRANCH  24  25
ENDBRANCH  17  24
ENDBRANCH   3  19
TORSDOF 9
ENDMDL
MODEL 5
REMARK VINA RESULT:     -10.1      4.094      6.634
REMARK  Name = 5326887
REMARK  9 active torsions:
REMARK  status: ('A' for Active; 'I' for Inactive)
REMARK    1  A    between atoms: N_3  and  C_19
REMARK    2  A    between atoms: C_6  and  C_11
REMARK    3  A    between atoms: C_17  and  O_24
REMARK    4  A    between atoms: O_24  and  C_25
REMARK    5  A    between atoms: C_25  and  C_26
REMARK    6  A    between atoms: C_26  and  C_27
REMARK    7  A    between atoms: C_27  and  C_28
REMARK    8  A    between atoms: C_28  and  C_30
REMARK    9  A    between atoms: C_30  and  O_31
REMARK                            x       y       z     vdW  Elec       q    Type
REMARK                         _______ _______ _______ _____ _____    ______ ____
ROOT
ATOM      1  O   UNL     1      35.080 -19.450 -23.029  0.00  0.00    -0.252 OA
ATOM      2  O   UNL     1      34.687 -17.326 -24.781  0.00  0.00    -0.270 OA
ATOM      3  N   UNL     1      34.867 -18.821 -20.772  0.00  0.00    -0.268 N 
ATOM      4  N   UNL     1      34.588 -17.252 -22.456  0.00  0.00    -0.236 N 
ATOM      5  C   UNL     1      34.868 -18.603 -22.165  0.00  0.00    +0.310 C 
ATOM      6  C   UNL     1      34.516 -16.704 -23.736  0.00  0.00    +0.253 C 
ATOM      7  H   UNL     1      34.680 -18.030 -20.215  0.00  0.00    +0.156 HD
ATOM      8  H   UNL     1      34.431 -16.648 -21.694  0.00  0.00    +0.159 HD
ENDROOT
BRANCH   6  11
ATOM      9 CL   UNL     1      34.986 -14.990 -21.209  0.00  0.00    -0.082 Cl
ATOM     10 CL   UNL     1      33.086 -10.897 -24.139  0.00  0.00    -0.082 Cl
ATOM     11  C   UNL     1      34.172 -15.262 -23.799  0.00  0.00    +0.064 C 
ATOM     12  C   UNL     1      34.351 -14.411 -22.708  0.00  0.00    +0.063 C 
ATOM     13  C   UNL     1      33.659 -14.762 -24.996  0.00  0.00    +0.006 C 
ATOM     14  C   UNL     1      34.016 -13.061 -22.813  0.00  0.00    +0.023 C 
ATOM     15  C   UNL     1      33.323 -13.412 -25.101  0.00  0.00    +0.012 C 
ATOM     16  C   UNL     1      33.502 -12.562 -24.010  0.00  0.00    +0.059 C 
ENDBRANCH   6  11
BRANCH   3  19
ATOM     17  C   UNL     1      34.295 -22.011 -18.988  0.00  0.00    +0.136 C 
ATOM     18  C   UNL     1      34.041 -20.826 -19.679  0.00  0.00    +0.026 C 
ATOM     19  C   UNL     1      35.100 -20.012 -20.080  0.00  0.00    +0.050 C 
ATOM     20  C   UNL     1      35.608 -22.382 -18.700  0.00  0.00    +0.037 C 
ATOM     21  C   UNL     1      36.413 -20.382 -19.791  0.00  0.00    +0.015 C 
ATOM     22  C   UNL     1      32.628 -20.436 -19.983  0.00  0.00    +0.036 C 
ATOM     23  C   UNL     1      36.667 -21.568 -19.101  0.00  0.00    +0.004 C 
BRANCH  17  24
ATOM     24  O   UNL     1      33.267 -22.824 -18.585  0.00  0.00    -0.476 OA
BRANCH  24  25
ATOM     25  C   UNL     1      33.321 -23.313 -17.253  0.00  0.00    +0.205 C 
BRANCH  25  26
ATOM     26  C   UNL     1      32.067 -22.892 -16.495  0.00  0.00    +0.048 C 
BRANCH  26  27
ATOM     27  C   UNL     1      31.953 -23.592 -15.134  0.00  0.00    +0.015 C 
BRANCH  27  28
ATOM     28  C   UNL     1      30.501 -23.787 -14.698  0.00  0.00    +0.109 C 
BRANCH  28  30
ATOM     29  O   UNL     1      30.863 -24.578 -12.423  0.00  0.00    -0.250 OA
ATOM     30  C   UNL     1      30.351 -24.727 -13.522  0.00  0.00    +0.314 C 
BRANCH  30  31
ATOM     31  O   UNL     1      29.580 -25.799 -13.840  0.00  0.00    -0.480 OA
ATOM     32  H   UNL     1      28.666 -25.798 -13.635  0.00  0.00    +0.295 HD
ENDBRANCH  30  31
ENDBRANCH  28  30
ENDBRANCH  27  28
ENDBRANCH  26  27
ENDBRANCH  25  26
ENDBRANCH  24  25
ENDBRANCH  17  24
ENDBRANCH   3  19
TORSDOF 9
ENDMDL
MODEL 6
REMARK VINA RESULT:     -10.0      5.132     10.950
REMARK  Name = 5326887
REMARK  9 active torsions:
REMARK  status: ('A' for Active; 'I' for Inactive)
REMARK    1  A    between atoms: N_3  and  C_19
REMARK    2  A    between atoms: C_6  and  C_11
REMARK    3  A    between atoms: C_17  and  O_24
REMARK    4  A    between atoms: O_24  and  C_25
REMARK    5  A    between atoms: C_25  and  C_26
REMARK    6  A    between atoms: C_26  and  C_27
REMARK    7  A    between atoms: C_27  and  C_28
REMARK    8  A    between atoms: C_28  and  C_30
REMARK    9  A    between atoms: C_30  and  O_31
REMARK                            x       y       z     vdW  Elec       q    Type
REMARK                         _______ _______ _______ _____ _____    ______ ____
ROOT
ATOM      1  O   UNL     1      33.598 -20.210 -21.354  0.00  0.00    -0.252 OA
ATOM      2  O   UNL     1      33.567 -22.235 -19.449  0.00  0.00    -0.270 OA
ATOM      3  N   UNL     1      35.220 -18.564 -20.909  0.00  0.00    -0.268 N 
ATOM      4  N   UNL     1      34.969 -20.377 -19.486  0.00  0.00    -0.236 N 
ATOM      5  C   UNL     1      34.505 -19.754 -20.662  0.00  0.00    +0.310 C 
ATOM      6  C   UNL     1      34.474 -21.569 -18.959  0.00  0.00    +0.253 C 
ATOM      7  H   UNL     1      35.917 -18.340 -20.251  0.00  0.00    +0.156 HD
ATOM      8  H   UNL     1      35.702 -19.934 -18.998  0.00  0.00    +0.159 HD
ENDROOT
BRANCH   6  11
ATOM      9 CL   UNL     1      32.755 -23.051 -16.864  0.00  0.00    -0.082 Cl
ATOM     10 CL   UNL     1      37.311 -23.473 -14.032  0.00  0.00    -0.082 Cl
ATOM     11  C   UNL     1      35.144 -22.054 -17.725  0.00  0.00    +0.064 C 
ATOM     12  C   UNL     1      34.448 -22.733 -16.725  0.00  0.00    +0.063 C 
ATOM     13  C   UNL     1      36.510 -21.814 -17.584  0.00  0.00    +0.006 C 
ATOM     14  C   UNL     1      35.118 -23.172 -15.584  0.00  0.00    +0.023 C 
ATOM     15  C   UNL     1      37.181 -22.253 -16.442  0.00  0.00    +0.012 C 
ATOM     16  C   UNL     1      36.485 -22.932 -15.442  0.00  0.00    +0.059 C 
ENDBRANCH   6  11
BRANCH   3  19
ATOM     17  C   UNL     1      34.778 -15.412 -22.794  0.00  0.00    +0.136 C 
ATOM     18  C   UNL     1      34.932 -16.295 -21.725  0.00  0.00    +0.026 C 
ATOM     19  C   UNL     1      35.065 -17.662 -21.964  0.00  0.00    +0.050 C 
ATOM     20  C   UNL     1      34.756 -15.896 -24.101  0.00  0.00    +0.037 C 
ATOM     21  C   UNL     1      35.042 -18.147 -23.272  0.00  0.00    +0.015 C 
ATOM     22  C   UNL     1      34.954 -15.765 -20.326  0.00  0.00    +0.036 C 
ATOM     23  C   UNL     1      34.888 -17.264 -24.341  0.00  0.00    +0.004 C 
BRANCH  17  24
ATOM     24  O   UNL     1      34.646 -14.064 -22.579  0.00  0.00    -0.476 OA
BRANCH  24  25
ATOM     25  C   UNL     1      33.750 -13.364 -23.429  0.00  0.00    +0.205 C 
BRANCH  25  26
ATOM     26  C   UNL     1      32.835 -12.471 -22.597  0.00  0.00    +0.048 C 
BRANCH  26  27
ATOM     27  C   UNL     1      32.221 -13.221 -21.408  0.00  0.00    +0.015 C 
BRANCH  27  28
ATOM     28  C   UNL     1      32.100 -12.342 -20.163  0.00  0.00    +0.109 C 
BRANCH  28  30
ATOM     29  O   UNL     1      31.794  -9.932 -20.351  0.00  0.00    -0.250 OA
ATOM     30  C   UNL     1      31.331 -11.062 -20.409  0.00  0.00    +0.314 C 
BRANCH  30  31
ATOM     31  O   UNL     1      30.025 -11.313 -20.684  0.00  0.00    -0.480 OA
ATOM     32  H   UNL     1      29.769 -11.566 -21.549  0.00  0.00    +0.295 HD
ENDBRANCH  30  31
ENDBRANCH  28  30
ENDBRANCH  27  28
ENDBRANCH  26  27
ENDBRANCH  25  26
ENDBRANCH  24  25
ENDBRANCH  17  24
ENDBRANCH   3  19
TORSDOF 9
ENDMDL
MODEL 7
REMARK VINA RESULT:      -9.8      4.060      6.375
REMARK  Name = 5326887
REMARK  9 active torsions:
REMARK  status: ('A' for Active; 'I' for Inactive)
REMARK    1  A    between atoms: N_3  and  C_19
REMARK    2  A    between atoms: C_6  and  C_11
REMARK    3  A    between atoms: C_17  and  O_24
REMARK    4  A    between atoms: O_24  and  C_25
REMARK    5  A    between atoms: C_25  and  C_26
REMARK    6  A    between atoms: C_26  and  C_27
REMARK    7  A    between atoms: C_27  and  C_28
REMARK    8  A    between atoms: C_28  and  C_30
REMARK    9  A    between atoms: C_30  and  O_31
REMARK                            x       y       z     vdW  Elec       q    Type
REMARK                         _______ _______ _______ _____ _____    ______ ____
ROOT
ATOM      1  O   UNL     1      35.138 -19.389 -23.021  0.00  0.00    -0.252 OA
ATOM      2  O   UNL     1      34.754 -17.255 -24.762  0.00  0.00    -0.270 OA
ATOM      3  N   UNL     1      34.876 -18.783 -20.763  0.00  0.00    -0.268 N 
ATOM      4  N   UNL     1      34.611 -17.203 -22.438  0.00  0.00    -0.236 N 
ATOM      5  C   UNL     1      34.900 -18.553 -22.154  0.00  0.00    +0.310 C 
ATOM      6  C   UNL     1      34.557 -16.645 -23.715  0.00  0.00    +0.253 C 
ATOM      7  H   UNL     1      34.670 -17.999 -20.203  0.00  0.00    +0.156 HD
ATOM      8  H   UNL     1      34.433 -16.607 -21.675  0.00  0.00    +0.159 HD
ENDROOT
BRANCH   6  11
ATOM      9 CL   UNL     1      34.975 -14.944 -21.170  0.00  0.00    -0.082 Cl
ATOM     10 CL   UNL     1      33.068 -10.850 -24.095  0.00  0.00    -0.082 Cl
ATOM     11  C   UNL     1      34.198 -15.205 -23.772  0.00  0.00    +0.064 C 
ATOM     12  C   UNL     1      34.353 -14.360 -22.672  0.00  0.00    +0.063 C 
ATOM     13  C   UNL     1      33.694 -14.703 -24.972  0.00  0.00    +0.006 C 
ATOM     14  C   UNL     1      34.004 -13.014 -22.773  0.00  0.00    +0.023 C 
ATOM     15  C   UNL     1      33.345 -13.356 -25.072  0.00  0.00    +0.012 C 
ATOM     16  C   UNL     1      33.501 -12.512 -23.973  0.00  0.00    +0.059 C 
ENDBRANCH   6  11
BRANCH   3  19
ATOM     17  C   UNL     1      34.306 -21.984 -18.999  0.00  0.00    +0.136 C 
ATOM     18  C   UNL     1      34.051 -20.795 -19.683  0.00  0.00    +0.026 C 
ATOM     19  C   UNL     1      35.109 -19.977 -20.077  0.00  0.00    +0.050 C 
ATOM     20  C   UNL     1      35.618 -22.354 -18.708  0.00  0.00    +0.037 C 
ATOM     21  C   UNL     1      36.422 -20.347 -19.786  0.00  0.00    +0.015 C 
ATOM     22  C   UNL     1      32.638 -20.407 -19.990  0.00  0.00    +0.036 C 
ATOM     23  C   UNL     1      36.677 -21.535 -19.102  0.00  0.00    +0.004 C 
BRANCH  17  24
ATOM     24  O   UNL     1      33.278 -22.801 -18.603  0.00  0.00    -0.476 OA
BRANCH  24  25
ATOM     25  C   UNL     1      33.516 -23.629 -17.474  0.00  0.00    +0.205 C 
BRANCH  25  26
ATOM     26  C   UNL     1      32.665 -23.162 -16.299  0.00  0.00    +0.048 C 
BRANCH  26  27
ATOM     27  C   UNL     1      33.471 -23.088 -14.995  0.00  0.00    +0.015 C 
BRANCH  27  28
ATOM     28  C   UNL     1      34.963 -23.338 -15.217  0.00  0.00    +0.109 C 
BRANCH  28  30
ATOM     29  O   UNL     1      35.842 -25.608 -15.135  0.00  0.00    -0.250 OA
ATOM     30  C   UNL     1      35.462 -24.603 -14.554  0.00  0.00    +0.314 C 
BRANCH  30  31
ATOM     31  O   UNL     1      35.417 -24.503 -13.200  0.00  0.00    -0.480 OA
ATOM     32  H   UNL     1      35.418 -23.660 -12.791  0.00  0.00    +0.295 HD
ENDBRANCH  30  31
ENDBRANCH  28  30
ENDBRANCH  27  28
ENDBRANCH  26  27
ENDBRANCH  25  26
ENDBRANCH  24  25
ENDBRANCH  17  24
ENDBRANCH   3  19
TORSDOF 9
ENDMDL
MODEL 8
REMARK VINA RESULT:      -9.7      4.262     11.003
REMARK  Name = 5326887
REMARK  9 active torsions:
REMARK  status: ('A' for Active; 'I' for Inactive)
REMARK    1  A    between atoms: N_3  and  C_19
REMARK    2  A    between atoms: C_6  and  C_11
REMARK    3  A    between atoms: C_17  and  O_24
REMARK    4  A    between atoms: O_24  and  C_25
REMARK    5  A    between atoms: C_25  and  C_26
REMARK    6  A    between atoms: C_26  and  C_27
REMARK    7  A    between atoms: C_27  and  C_28
REMARK    8  A    between atoms: C_28  and  C_30
REMARK    9  A    between atoms: C_30  and  O_31
REMARK                            x       y       z     vdW  Elec       q    Type
REMARK                         _______ _______ _______ _____ _____    ______ ____
ROOT
ATOM      1  O   UNL     1      34.410 -15.667 -23.967  0.00  0.00    -0.252 OA
ATOM      2  O   UNL     1      35.127 -18.322 -23.552  0.00  0.00    -0.270 OA
ATOM      3  N   UNL     1      34.026 -14.503 -21.959  0.00  0.00    -0.268 N 
ATOM      4  N   UNL     1      34.641 -16.737 -21.917  0.00  0.00    -0.236 N 
ATOM      5  C   UNL     1      34.362 -15.627 -22.740  0.00  0.00    +0.310 C 
ATOM      6  C   UNL     1      35.004 -18.004 -22.372  0.00  0.00    +0.253 C 
ATOM      7  H   UNL     1      34.032 -14.641 -20.984  0.00  0.00    +0.156 HD
ATOM      8  H   UNL     1      34.576 -16.607 -20.943  0.00  0.00    +0.159 HD
ENDROOT
BRANCH   6  11
ATOM      9 CL   UNL     1      37.950 -18.489 -21.582  0.00  0.00    -0.082 Cl
ATOM     10 CL   UNL     1      35.990 -22.092 -18.100  0.00  0.00    -0.082 Cl
ATOM     11  C   UNL     1      35.285 -19.010 -21.318  0.00  0.00    +0.064 C 
ATOM     12  C   UNL     1      36.585 -19.295 -20.896  0.00  0.00    +0.063 C 
ATOM     13  C   UNL     1      34.204 -19.678 -20.743  0.00  0.00    +0.006 C 
ATOM     14  C   UNL     1      36.802 -20.247 -19.901  0.00  0.00    +0.023 C 
ATOM     15  C   UNL     1      34.422 -20.631 -19.748  0.00  0.00    +0.012 C 
ATOM     16  C   UNL     1      35.720 -20.915 -19.326  0.00  0.00    +0.059 C 
ENDBRANCH   6  11
BRANCH   3  19
ATOM     17  C   UNL     1      32.352 -11.212 -22.199  0.00  0.00    +0.136 C 
ATOM     18  C   UNL     1      32.678 -12.493 -21.752  0.00  0.00    +0.026 C 
ATOM     19  C   UNL     1      33.685 -13.218 -22.389  0.00  0.00    +0.050 C 
ATOM     20  C   UNL     1      33.033 -10.657 -23.282  0.00  0.00    +0.037 C 
ATOM     21  C   UNL     1      34.365 -12.664 -23.473  0.00  0.00    +0.015 C 
ATOM     22  C   UNL     1      31.941 -13.080 -20.589  0.00  0.00    +0.036 C 
ATOM     23  C   UNL     1      34.040 -11.383 -23.919  0.00  0.00    +0.004 C 
BRANCH  17  24
ATOM     24  O   UNL     1      31.366 -10.483 -21.585  0.00  0.00    -0.476 OA
BRANCH  24  25
ATOM     25  C   UNL     1      31.580  -9.084 -21.470  0.00  0.00    +0.205 C 
BRANCH  25  26
ATOM     26  C   UNL     1      32.017  -8.741 -20.050  0.00  0.00    +0.048 C 
BRANCH  26  27
ATOM     27  C   UNL     1      32.992  -7.557 -20.016  0.00  0.00    +0.015 C 
BRANCH  27  28
ATOM     28  C   UNL     1      33.331  -7.039 -21.414  0.00  0.00    +0.109 C 
BRANCH  28  30
ATOM     29  O   UNL     1      32.228  -5.448 -22.893  0.00  0.00    -0.250 OA
ATOM     30  C   UNL     1      32.600  -5.764 -21.773  0.00  0.00    +0.314 C 
BRANCH  30  31
ATOM     31  O   UNL     1      32.419  -4.974 -20.683  0.00  0.00    -0.480 OA
ATOM     32  H   UNL     1      32.235  -4.061 -20.790  0.00  0.00    +0.295 HD
ENDBRANCH  30  31
ENDBRANCH  28  30
ENDBRANCH  27  28
ENDBRANCH  26  27
ENDBRANCH  25  26
ENDBRANCH  24  25
ENDBRANCH  17  24
ENDBRANCH   3  19
TORSDOF 9
ENDMDL
MODEL 9
REMARK VINA RESULT:      -9.6      1.618      2.322
REMARK  Name = 5326887
REMARK  9 active torsions:
REMARK  status: ('A' for Active; 'I' for Inactive)
REMARK    1  A    between atoms: N_3  and  C_19
REMARK    2  A    between atoms: C_6  and  C_11
REMARK    3  A    between atoms: C_17  and  O_24
REMARK    4  A    between atoms: O_24  and  C_25
REMARK    5  A    between atoms: C_25  and  C_26
REMARK    6  A    between atoms: C_26  and  C_27
REMARK    7  A    between atoms: C_27  and  C_28
REMARK    8  A    between atoms: C_28  and  C_30
REMARK    9  A    between atoms: C_30  and  O_31
REMARK                            x       y       z     vdW  Elec       q    Type
REMARK                         _______ _______ _______ _____ _____    ______ ____
ROOT
ATOM      1  O   UNL     1      31.567 -12.460 -21.788  0.00  0.00    -0.252 OA
ATOM      2  O   UNL     1      30.442 -10.003 -22.445  0.00  0.00    -0.270 OA
ATOM      3  N   UNL     1      33.874 -12.557 -22.244  0.00  0.00    -0.268 N 
ATOM      4  N   UNL     1      32.672 -10.626 -22.691  0.00  0.00    -0.236 N 
ATOM      5  C   UNL     1      32.605 -11.944 -22.196  0.00  0.00    +0.310 C 
ATOM      6  C   UNL     1      31.595  -9.746 -22.782  0.00  0.00    +0.253 C 
ATOM      7  H   UNL     1      34.604 -12.003 -22.603  0.00  0.00    +0.156 HD
ATOM      8  H   UNL     1      33.551 -10.300 -22.995  0.00  0.00    +0.159 HD
ENDROOT
BRANCH   6  11
ATOM      9 CL   UNL     1      32.013  -7.468 -20.739  0.00  0.00    -0.082 Cl
ATOM     10 CL   UNL     1      32.871  -4.337 -25.030  0.00  0.00    -0.082 Cl
ATOM     11  C   UNL     1      31.912  -8.393 -23.304  0.00  0.00    +0.064 C 
ATOM     12  C   UNL     1      32.117  -7.304 -22.455  0.00  0.00    +0.063 C 
ATOM     13  C   UNL     1      32.004  -8.227 -24.685  0.00  0.00    +0.006 C 
ATOM     14  C   UNL     1      32.414  -6.050 -22.989  0.00  0.00    +0.023 C 
ATOM     15  C   UNL     1      32.301  -6.973 -25.219  0.00  0.00    +0.012 C 
ATOM     16  C   UNL     1      32.507  -5.885 -24.371  0.00  0.00    +0.059 C 
ENDBRANCH   6  11
BRANCH   3  19
ATOM     17  C   UNL     1      34.714 -16.158 -22.373  0.00  0.00    +0.136 C 
ATOM     18  C   UNL     1      34.361 -14.874 -22.788  0.00  0.00    +0.026 C 
ATOM     19  C   UNL     1      34.228 -13.850 -21.850  0.00  0.00    +0.050 C 
ATOM     20  C   UNL     1      34.935 -16.417 -21.021  0.00  0.00    +0.037 C 
ATOM     21  C   UNL     1      34.447 -14.110 -20.498  0.00  0.00    +0.015 C 
ATOM     22  C   UNL     1      34.126 -14.605 -24.241  0.00  0.00    +0.036 C 
ATOM     23  C   UNL     1      34.802 -15.393 -20.083  0.00  0.00    +0.004 C 
BRANCH  17  24
ATOM     24  O   UNL     1      34.850 -17.177 -23.280  0.00  0.00    -0.476 OA
BRANCH  24  25
ATOM     25  C   UNL     1      35.646 -18.284 -22.885  0.00  0.00    +0.205 C 
BRANCH  25  26
ATOM     26  C   UNL     1      34.752 -19.439 -22.448  0.00  0.00    +0.048 C 
BRANCH  26  27
ATOM     27  C   UNL     1      35.021 -19.863 -20.999  0.00  0.00    +0.015 C 
BRANCH  27  28
ATOM     28  C   UNL     1      33.739 -20.230 -20.250  0.00  0.00    +0.109 C 
BRANCH  28  30
ATOM     29  O   UNL     1      34.930 -21.779 -18.795  0.00  0.00    -0.250 OA
ATOM     30  C   UNL     1      33.897 -21.436 -19.351  0.00  0.00    +0.314 C 
BRANCH  30  31
ATOM     31  O   UNL     1      32.734 -22.131 -19.245  0.00  0.00    -0.480 OA
ATOM     32  H   UNL     1      32.206 -22.046 -18.476  0.00  0.00    +0.295 HD
ENDBRANCH  30  31
ENDBRANCH  28  30
ENDBRANCH  27  28
ENDBRANCH  26  27
ENDBRANCH  25  26
ENDBRANCH  24  25
ENDBRANCH  17  24
ENDBRANCH   3  19
TORSDOF 9
ENDMDL
