MODEL 1
REMARK VINA RESULT:     -11.4      0.000      0.000
REMARK  Name = 11394238
REMARK  5 active torsions:
REMARK  status: ('A' for Active; 'I' for Inactive)
REMARK    1  A    between atoms: C_4  and  C_19
REMARK    2  A    between atoms: C_9  and  O_10
REMARK    3  A    between atoms: O_10  and  C_11
REMARK    4  A    between atoms: C_11  and  C_12
REMARK    5  A    between atoms: C_19  and  N_20
REMARK                            x       y       z     vdW  Elec       q    Type
REMARK                         _______ _______ _______ _____ _____    ______ ____
ROOT
ATOM      1  F   UNL     1      35.933 -21.130 -17.633  0.00  0.00    -0.235 F 
ATOM      2  O   UNL     1      37.534 -18.866 -20.444  0.00  0.00    -0.226 OA
ATOM      3  N   UNL     1      35.646 -20.220 -20.358  0.00  0.00    -0.243 N 
ATOM      4  C   UNL     1      34.237 -22.245 -18.839  0.00  0.00    +0.056 C 
ATOM      5  C   UNL     1      35.741 -22.006 -18.660  0.00  0.00    +0.182 C 
ATOM      6  C   UNL     1      33.543 -20.956 -19.306  0.00  0.00    +0.026 C 
ATOM      7  C   UNL     1      36.376 -21.408 -19.911  0.00  0.00    +0.132 C 
ATOM      8  C   UNL     1      34.206 -20.403 -20.564  0.00  0.00    +0.097 C 
ATOM      9  C   UNL     1      36.327 -19.026 -20.616  0.00  0.00    +0.405 C 
ENDROOT
BRANCH   9  10
ATOM     10  O   UNL     1      35.502 -18.038 -21.085  0.00  0.00    -0.430 OA
BRANCH  10  11
ATOM     11  C   UNL     1      35.538 -17.803 -22.497  0.00  0.00    +0.237 C 
BRANCH  11  12
ATOM     12  C   UNL     1      34.967 -16.445 -22.782  0.00  0.00    +0.021 C 
ATOM     13  C   UNL     1      34.501 -16.150 -24.058  0.00  0.00    -0.001 C 
ATOM     14  C   UNL     1      34.911 -15.495 -21.769  0.00  0.00    -0.001 C 
ATOM     15  C   UNL     1      33.910 -13.929 -23.312  0.00  0.00    -0.022 C 
ATOM     16  C   UNL     1      33.970 -14.886 -24.323  0.00  0.00    -0.004 C 
ATOM     17  C   UNL     1      34.380 -14.233 -22.034  0.00  0.00    -0.004 C 
ATOM     18  C   UNL     1      33.342 -12.579 -23.596  0.00  0.00    +0.031 C 
ENDBRANCH  11  12
ENDBRANCH  10  11
ENDBRANCH   9  10
BRANCH   4  19
ATOM     19  C   UNL     1      33.605 -22.759 -17.546  0.00  0.00    +0.100 C 
BRANCH  19  20
ATOM     20  N   UNL     1      32.203 -22.438 -17.529  0.00  0.00    -0.278 N 
ATOM     21  N   UNL     1      30.032 -22.451 -16.637  0.00  0.00    -0.181 NA
ATOM     22  N   UNL     1      31.846 -23.551 -15.495  0.00  0.00    -0.203 NA
ATOM     23  C   UNL     1      31.332 -22.826 -16.520  0.00  0.00    +0.087 C 
ATOM     24  C   UNL     1      29.215 -22.844 -15.639  0.00  0.00    +0.108 C 
ATOM     25  C   UNL     1      30.973 -23.912 -14.532  0.00  0.00    +0.165 C 
ATOM     26  C   UNL     1      29.633 -23.583 -14.551  0.00  0.00    +0.022 C 
ATOM     27  H   UNL     1      31.838 -21.912 -18.278  0.00  0.00    +0.158 HD
ENDBRANCH  19  20
ENDBRANCH   4  19
TORSDOF 5
ENDMDL
MODEL 2
REMARK VINA RESULT:     -11.4      4.989     10.004
REMARK  Name = 11394238
REMARK  5 active torsions:
REMARK  status: ('A' for Active; 'I' for Inactive)
REMARK    1  A    between atoms: C_4  and  C_19
REMARK    2  A    between atoms: C_9  and  O_10
REMARK    3  A    between atoms: O_10  and  C_11
REMARK    4  A    between atoms: C_11  and  C_12
REMARK    5  A    between atoms: C_19  and  N_20
REMARK                            x       y       z     vdW  Elec       q    Type
REMARK                         _______ _______ _______ _____ _____    ______ ____
ROOT
ATOM      1  F   UNL     1      32.337 -14.162 -22.815  0.00  0.00    -0.235 F 
ATOM      2  O   UNL     1      35.332 -16.705 -23.206  0.00  0.00    -0.226 OA
ATOM      3  N   UNL     1      34.693 -15.227 -21.530  0.00  0.00    -0.243 N 
ATOM      4  C   UNL     1      32.948 -13.018 -20.841  0.00  0.00    +0.056 C 
ATOM      5  C   UNL     1      33.298 -13.344 -22.298  0.00  0.00    +0.182 C 
ATOM      6  C   UNL     1      33.026 -14.286 -19.978  0.00  0.00    +0.026 C 
ATOM      7  C   UNL     1      34.638 -14.063 -22.416  0.00  0.00    +0.132 C 
ATOM      8  C   UNL     1      34.386 -14.964 -20.120  0.00  0.00    +0.097 C 
ATOM      9  C   UNL     1      35.074 -16.478 -22.026  0.00  0.00    +0.405 C 
ENDROOT
BRANCH   9  10
ATOM     10  O   UNL     1      35.132 -17.438 -21.050  0.00  0.00    -0.430 OA
BRANCH  10  11
ATOM     11  C   UNL     1      35.724 -18.686 -21.428  0.00  0.00    +0.237 C 
BRANCH  11  12
ATOM     12  C   UNL     1      35.178 -19.773 -20.549  0.00  0.00    +0.021 C 
ATOM     13  C   UNL     1      33.802 -19.947 -20.446  0.00  0.00    -0.001 C 
ATOM     14  C   UNL     1      36.051 -20.594 -19.846  0.00  0.00    -0.001 C 
ATOM     15  C   UNL     1      34.164 -21.785 -18.920  0.00  0.00    -0.022 C 
ATOM     16  C   UNL     1      33.294 -20.958 -19.628  0.00  0.00    -0.004 C 
ATOM     17  C   UNL     1      35.543 -21.604 -19.029  0.00  0.00    -0.004 C 
ATOM     18  C   UNL     1      33.621 -22.865 -18.047  0.00  0.00    +0.031 C 
ENDBRANCH  11  12
ENDBRANCH  10  11
ENDBRANCH   9  10
BRANCH   4  19
ATOM     19  C   UNL     1      31.564 -12.380 -20.739  0.00  0.00    +0.100 C 
BRANCH  19  20
ATOM     20  N   UNL     1      31.491 -11.234 -21.605  0.00  0.00    -0.278 N 
ATOM     21  N   UNL     1      31.568  -8.943 -22.107  0.00  0.00    -0.181 NA
ATOM     22  N   UNL     1      31.919  -9.730 -19.856  0.00  0.00    -0.203 NA
ATOM     23  C   UNL     1      31.665  -9.926 -21.175  0.00  0.00    +0.087 C 
ATOM     24  C   UNL     1      31.743  -7.685 -21.654  0.00  0.00    +0.108 C 
ATOM     25  C   UNL     1      32.083  -8.447 -19.472  0.00  0.00    +0.165 C 
ATOM     26  C   UNL     1      32.006  -7.373 -20.336  0.00  0.00    +0.022 C 
ATOM     27  H   UNL     1      31.306 -11.387 -22.561  0.00  0.00    +0.158 HD
ENDBRANCH  19  20
ENDBRANCH   4  19
TORSDOF 5
ENDMDL
MODEL 3
REMARK VINA RESULT:     -10.7      4.234      9.611
REMARK  Name = 11394238
REMARK  5 active torsions:
REMARK  status: ('A' for Active; 'I' for Inactive)
REMARK    1  A    between atoms: C_4  and  C_19
REMARK    2  A    between atoms: C_9  and  O_10
REMARK    3  A    between atoms: O_10  and  C_11
REMARK    4  A    between atoms: C_11  and  C_12
REMARK    5  A    between atoms: C_19  and  N_20
REMARK                            x       y       z     vdW  Elec       q    Type
REMARK                         _______ _______ _______ _____ _____    ______ ____
ROOT
ATOM      1  F   UNL     1      32.772 -15.647 -24.597  0.00  0.00    -0.235 F 
ATOM      2  O   UNL     1      34.658 -18.998 -23.702  0.00  0.00    -0.226 OA
ATOM      3  N   UNL     1      34.963 -16.776 -23.093  0.00  0.00    -0.243 N 
ATOM      4  C   UNL     1      34.203 -14.033 -23.636  0.00  0.00    +0.056 C 
ATOM      5  C   UNL     1      34.034 -15.138 -24.685  0.00  0.00    +0.182 C 
ATOM      6  C   UNL     1      34.133 -14.626 -22.221  0.00  0.00    +0.026 C 
ATOM      7  C   UNL     1      35.017 -16.284 -24.471  0.00  0.00    +0.132 C 
ATOM      8  C   UNL     1      35.140 -15.759 -22.051  0.00  0.00    +0.097 C 
ATOM      9  C   UNL     1      34.808 -18.141 -22.833  0.00  0.00    +0.405 C 
ENDROOT
BRANCH   9  10
ATOM     10  O   UNL     1      34.841 -18.432 -21.495  0.00  0.00    -0.430 OA
BRANCH  10  11
ATOM     11  C   UNL     1      35.792 -19.422 -21.087  0.00  0.00    +0.237 C 
BRANCH  11  12
ATOM     12  C   UNL     1      35.128 -20.379 -20.142  0.00  0.00    +0.021 C 
ATOM     13  C   UNL     1      33.740 -20.431 -20.077  0.00  0.00    -0.001 C 
ATOM     14  C   UNL     1      35.907 -21.205 -19.338  0.00  0.00    -0.001 C 
ATOM     15  C   UNL     1      33.897 -22.151 -18.388  0.00  0.00    -0.022 C 
ATOM     16  C   UNL     1      33.123 -21.321 -19.197  0.00  0.00    -0.004 C 
ATOM     17  C   UNL     1      35.289 -22.094 -18.459  0.00  0.00    -0.004 C 
ATOM     18  C   UNL     1      33.237 -23.103 -17.449  0.00  0.00    +0.031 C 
ENDBRANCH  11  12
ENDBRANCH  10  11
ENDBRANCH   9  10
BRANCH   4  19
ATOM     19  C   UNL     1      33.151 -12.940 -23.816  0.00  0.00    +0.100 C 
BRANCH  19  20
ATOM     20  N   UNL     1      32.404 -12.779 -22.597  0.00  0.00    -0.278 N 
ATOM     21  N   UNL     1      31.425 -11.552 -20.852  0.00  0.00    -0.181 NA
ATOM     22  N   UNL     1      32.634 -10.444 -22.619  0.00  0.00    -0.203 NA
ATOM     23  C   UNL     1      32.146 -11.551 -22.003  0.00  0.00    +0.087 C 
ATOM     24  C   UNL     1      31.193 -10.342 -20.303  0.00  0.00    +0.108 C 
ATOM     25  C   UNL     1      32.365  -9.268 -22.015  0.00  0.00    +0.165 C 
ATOM     26  C   UNL     1      31.642  -9.155 -20.845  0.00  0.00    +0.022 C 
ATOM     27  H   UNL     1      32.054 -13.588 -22.157  0.00  0.00    +0.158 HD
ENDBRANCH  19  20
ENDBRANCH   4  19
TORSDOF 5
ENDMDL
MODEL 4
REMARK VINA RESULT:     -10.5      1.370      2.169
REMARK  Name = 11394238
REMARK  5 active torsions:
REMARK  status: ('A' for Active; 'I' for Inactive)
REMARK    1  A    between atoms: C_4  and  C_19
REMARK    2  A    between atoms: C_9  and  O_10
REMARK    3  A    between atoms: O_10  and  C_11
REMARK    4  A    between atoms: C_11  and  C_12
REMARK    5  A    between atoms: C_19  and  N_20
REMARK                            x       y       z     vdW  Elec       q    Type
REMARK                         _______ _______ _______ _____ _____    ______ ____
ROOT
ATOM      1  F   UNL     1      35.604 -21.172 -17.744  0.00  0.00    -0.235 F 
ATOM      2  O   UNL     1      37.499 -18.974 -20.422  0.00  0.00    -0.226 OA
ATOM      3  N   UNL     1      35.491 -20.146 -20.440  0.00  0.00    -0.243 N 
ATOM      4  C   UNL     1      33.850 -22.080 -19.039  0.00  0.00    +0.056 C 
ATOM      5  C   UNL     1      35.363 -21.990 -18.809  0.00  0.00    +0.182 C 
ATOM      6  C   UNL     1      33.296 -20.715 -19.477  0.00  0.00    +0.026 C 
ATOM      7  C   UNL     1      36.092 -21.412 -20.017  0.00  0.00    +0.132 C 
ATOM      8  C   UNL     1      34.048 -20.184 -20.694  0.00  0.00    +0.097 C 
ATOM      9  C   UNL     1      36.289 -19.013 -20.634  0.00  0.00    +0.405 C 
ENDROOT
BRANCH   9  10
ATOM     10  O   UNL     1      35.576 -17.936 -21.089  0.00  0.00    -0.430 OA
BRANCH  10  11
ATOM     11  C   UNL     1      35.613 -17.705 -22.501  0.00  0.00    +0.237 C 
BRANCH  11  12
ATOM     12  C   UNL     1      34.998 -16.369 -22.796  0.00  0.00    +0.021 C 
ATOM     13  C   UNL     1      34.933 -15.406 -21.795  0.00  0.00    -0.001 C 
ATOM     14  C   UNL     1      34.498 -16.106 -24.067  0.00  0.00    -0.001 C 
ATOM     15  C   UNL     1      33.857 -13.893 -23.341  0.00  0.00    -0.022 C 
ATOM     16  C   UNL     1      34.361 -14.163 -22.069  0.00  0.00    -0.004 C 
ATOM     17  C   UNL     1      33.926 -14.863 -24.340  0.00  0.00    -0.004 C 
ATOM     18  C   UNL     1      33.247 -12.564 -23.634  0.00  0.00    +0.031 C 
ENDBRANCH  11  12
ENDBRANCH  10  11
ENDBRANCH   9  10
BRANCH   4  19
ATOM     19  C   UNL     1      33.132 -22.575 -17.786  0.00  0.00    +0.100 C 
BRANCH  19  20
ATOM     20  N   UNL     1      34.048 -23.318 -16.962  0.00  0.00    -0.278 N 
ATOM     21  N   UNL     1      34.788 -24.302 -14.964  0.00  0.00    -0.181 NA
ATOM     22  N   UNL     1      32.692 -23.117 -15.057  0.00  0.00    -0.203 NA
ATOM     23  C   UNL     1      33.836 -23.588 -15.617  0.00  0.00    +0.087 C 
ATOM     24  C   UNL     1      34.549 -24.546 -13.659  0.00  0.00    +0.108 C 
ATOM     25  C   UNL     1      32.517 -23.396 -13.749  0.00  0.00    +0.165 C 
ATOM     26  C   UNL     1      33.420 -24.114 -12.992  0.00  0.00    +0.022 C 
ATOM     27  H   UNL     1      34.875 -23.656 -17.376  0.00  0.00    +0.158 HD
ENDBRANCH  19  20
ENDBRANCH   4  19
TORSDOF 5
ENDMDL
MODEL 5
REMARK VINA RESULT:     -10.4      4.517      7.387
REMARK  Name = 11394238
REMARK  5 active torsions:
REMARK  status: ('A' for Active; 'I' for Inactive)
REMARK    1  A    between atoms: C_4  and  C_19
REMARK    2  A    between atoms: C_9  and  O_10
REMARK    3  A    between atoms: O_10  and  C_11
REMARK    4  A    between atoms: C_11  and  C_12
REMARK    5  A    between atoms: C_19  and  N_20
REMARK                            x       y       z     vdW  Elec       q    Type
REMARK                         _______ _______ _______ _____ _____    ______ ____
ROOT
ATOM      1  F   UNL     1      33.758 -16.096 -20.615  0.00  0.00    -0.235 F 
ATOM      2  O   UNL     1      32.251 -12.542 -19.782  0.00  0.00    -0.226 OA
ATOM      3  N   UNL     1      33.495 -13.379 -21.558  0.00  0.00    -0.243 N 
ATOM      4  C   UNL     1      35.074 -15.612 -22.515  0.00  0.00    +0.056 C 
ATOM      5  C   UNL     1      34.842 -15.373 -21.018  0.00  0.00    +0.182 C 
ATOM      6  C   UNL     1      33.909 -15.036 -23.334  0.00  0.00    +0.026 C 
ATOM      7  C   UNL     1      34.567 -13.905 -20.711  0.00  0.00    +0.132 C 
ATOM      8  C   UNL     1      33.680 -13.564 -23.000  0.00  0.00    +0.097 C 
ATOM      9  C   UNL     1      32.413 -12.700 -20.990  0.00  0.00    +0.405 C 
ENDROOT
BRANCH   9  10
ATOM     10  O   UNL     1      31.537 -12.222 -21.929  0.00  0.00    -0.430 OA
BRANCH  10  11
ATOM     11  C   UNL     1      30.984 -10.926 -21.675  0.00  0.00    +0.237 C 
BRANCH  11  12
ATOM     12  C   UNL     1      32.005  -9.882 -22.018  0.00  0.00    +0.021 C 
ATOM     13  C   UNL     1      32.720  -9.984 -23.206  0.00  0.00    -0.001 C 
ATOM     14  C   UNL     1      32.227  -8.823 -21.145  0.00  0.00    -0.001 C 
ATOM     15  C   UNL     1      33.898  -7.948 -22.655  0.00  0.00    -0.022 C 
ATOM     16  C   UNL     1      33.670  -9.013 -23.525  0.00  0.00    -0.004 C 
ATOM     17  C   UNL     1      33.177  -7.852 -21.465  0.00  0.00    -0.004 C 
ATOM     18  C   UNL     1      34.913  -6.910 -22.997  0.00  0.00    +0.031 C 
ENDBRANCH  11  12
ENDBRANCH  10  11
ENDBRANCH   9  10
BRANCH   4  19
ATOM     19  C   UNL     1      35.258 -17.099 -22.812  0.00  0.00    +0.100 C 
BRANCH  19  20
ATOM     20  N   UNL     1      36.232 -17.658 -21.914  0.00  0.00    -0.278 N 
ATOM     21  N   UNL     1      37.011 -19.176 -20.301  0.00  0.00    -0.181 NA
ATOM     22  N   UNL     1      34.765 -19.329 -21.163  0.00  0.00    -0.203 NA
ATOM     23  C   UNL     1      35.995 -18.757 -21.099  0.00  0.00    +0.087 C 
ATOM     24  C   UNL     1      36.745 -20.245 -19.524  0.00  0.00    +0.108 C 
ATOM     25  C   UNL     1      34.568 -20.393 -20.359  0.00  0.00    +0.165 C 
ATOM     26  C   UNL     1      35.531 -20.901 -19.510  0.00  0.00    +0.022 C 
ATOM     27  H   UNL     1      37.122 -17.237 -21.874  0.00  0.00    +0.158 HD
ENDBRANCH  19  20
ENDBRANCH   4  19
TORSDOF 5
ENDMDL
MODEL 6
REMARK VINA RESULT:     -10.2      3.945      9.836
REMARK  Name = 11394238
REMARK  5 active torsions:
REMARK  status: ('A' for Active; 'I' for Inactive)
REMARK    1  A    between atoms: C_4  and  C_19
REMARK    2  A    between atoms: C_9  and  O_10
REMARK    3  A    between atoms: O_10  and  C_11
REMARK    4  A    between atoms: C_11  and  C_12
REMARK    5  A    between atoms: C_19  and  N_20
REMARK                            x       y       z     vdW  Elec       q    Type
REMARK                         _______ _______ _______ _____ _____    ______ ____
ROOT
ATOM      1  F   UNL     1      33.460 -20.303 -19.180  0.00  0.00    -0.235 F 
ATOM      2  O   UNL     1      32.769 -23.253 -16.649  0.00  0.00    -0.226 OA
ATOM      3  N   UNL     1      34.631 -22.596 -17.874  0.00  0.00    -0.243 N 
ATOM      4  C   UNL     1      35.599 -20.879 -19.998  0.00  0.00    +0.056 C 
ATOM      5  C   UNL     1      34.120 -21.266 -19.886  0.00  0.00    +0.182 C 
ATOM      6  C   UNL     1      36.263 -20.904 -18.613  0.00  0.00    +0.026 C 
ATOM      7  C   UNL     1      33.930 -22.592 -19.159  0.00  0.00    +0.132 C 
ATOM      8  C   UNL     1      36.056 -22.253 -17.930  0.00  0.00    +0.097 C 
ATOM      9  C   UNL     1      33.963 -22.966 -16.703  0.00  0.00    +0.405 C 
ENDROOT
BRANCH   9  10
ATOM     10  O   UNL     1      34.783 -22.974 -15.605  0.00  0.00    -0.430 OA
BRANCH  10  11
ATOM     11  C   UNL     1      34.793 -24.180 -14.834  0.00  0.00    +0.237 C 
BRANCH  11  12
ATOM     12  C   UNL     1      36.211 -24.642 -14.666  0.00  0.00    +0.021 C 
ATOM     13  C   UNL     1      37.248 -23.717 -14.735  0.00  0.00    -0.001 C 
ATOM     14  C   UNL     1      36.475 -25.988 -14.443  0.00  0.00    -0.001 C 
ATOM     15  C   UNL     1      38.839 -25.495 -14.355  0.00  0.00    -0.022 C 
ATOM     16  C   UNL     1      38.566 -24.147 -14.578  0.00  0.00    -0.004 C 
ATOM     17  C   UNL     1      37.794 -26.416 -14.286  0.00  0.00    -0.004 C 
ATOM     18  C   UNL     1      40.248 -25.953 -14.186  0.00  0.00    +0.031 C 
ENDBRANCH  11  12
ENDBRANCH  10  11
ENDBRANCH   9  10
BRANCH   4  19
ATOM     19  C   UNL     1      35.761 -19.506 -20.648  0.00  0.00    +0.100 C 
BRANCH  19  20
ATOM     20  N   UNL     1      35.133 -19.504 -21.943  0.00  0.00    -0.278 N 
ATOM     21  N   UNL     1      34.349 -18.515 -23.921  0.00  0.00    -0.181 NA
ATOM     22  N   UNL     1      35.409 -17.190 -22.210  0.00  0.00    -0.203 NA
ATOM     23  C   UNL     1      34.958 -18.366 -22.717  0.00  0.00    +0.087 C 
ATOM     24  C   UNL     1      34.196 -17.388 -24.646  0.00  0.00    +0.108 C 
ATOM     25  C   UNL     1      35.223 -16.103 -22.988  0.00  0.00    +0.165 C 
ATOM     26  C   UNL     1      34.617 -16.143 -24.227  0.00  0.00    +0.022 C 
ATOM     27  H   UNL     1      34.809 -20.362 -22.302  0.00  0.00    +0.158 HD
ENDBRANCH  19  20
ENDBRANCH   4  19
TORSDOF 5
ENDMDL
MODEL 7
REMARK VINA RESULT:      -9.8      3.649      9.790
REMARK  Name = 11394238
REMARK  5 active torsions:
REMARK  status: ('A' for Active; 'I' for Inactive)
REMARK    1  A    between atoms: C_4  and  C_19
REMARK    2  A    between atoms: C_9  and  O_10
REMARK    3  A    between atoms: O_10  and  C_11
REMARK    4  A    between atoms: C_11  and  C_12
REMARK    5  A    between atoms: C_19  and  N_20
REMARK                            x       y       z     vdW  Elec       q    Type
REMARK                         _______ _______ _______ _____ _____    ______ ____
ROOT
ATOM      1  F   UNL     1      33.947 -19.044 -20.122  0.00  0.00    -0.235 F 
ATOM      2  O   UNL     1      33.246 -22.429 -18.212  0.00  0.00    -0.226 OA
ATOM      3  N   UNL     1      35.087 -21.582 -19.351  0.00  0.00    -0.243 N 
ATOM      4  C   UNL     1      36.040 -19.495 -21.120  0.00  0.00    +0.056 C 
ATOM      5  C   UNL     1      34.553 -19.860 -21.032  0.00  0.00    +0.182 C 
ATOM      6  C   UNL     1      36.747 -19.816 -19.795  0.00  0.00    +0.026 C 
ATOM      7  C   UNL     1      34.345 -21.301 -20.581  0.00  0.00    +0.132 C 
ATOM      8  C   UNL     1      36.519 -21.270 -19.391  0.00  0.00    +0.097 C 
ATOM      9  C   UNL     1      34.446 -22.165 -18.253  0.00  0.00    +0.405 C 
ENDROOT
BRANCH   9  10
ATOM     10  O   UNL     1      35.301 -22.416 -17.212  0.00  0.00    -0.430 OA
BRANCH  10  11
ATOM     11  C   UNL     1      34.710 -22.963 -16.028  0.00  0.00    +0.237 C 
BRANCH  11  12
ATOM     12  C   UNL     1      35.767 -23.680 -15.241  0.00  0.00    +0.021 C 
ATOM     13  C   UNL     1      37.080 -23.225 -15.279  0.00  0.00    -0.001 C 
ATOM     14  C   UNL     1      35.423 -24.793 -14.482  0.00  0.00    -0.001 C 
ATOM     15  C   UNL     1      37.725 -25.010 -13.783  0.00  0.00    -0.022 C 
ATOM     16  C   UNL     1      38.063 -23.893 -14.546  0.00  0.00    -0.004 C 
ATOM     17  C   UNL     1      36.406 -25.460 -13.749  0.00  0.00    -0.004 C 
ATOM     18  C   UNL     1      38.776 -25.723 -13.000  0.00  0.00    +0.031 C 
ENDBRANCH  11  12
ENDBRANCH  10  11
ENDBRANCH   9  10
BRANCH   4  19
ATOM     19  C   UNL     1      36.223 -18.023 -21.486  0.00  0.00    +0.100 C 
BRANCH  19  20
ATOM     20  N   UNL     1      35.673 -17.774 -22.792  0.00  0.00    -0.278 N 
ATOM     21  N   UNL     1      34.539 -16.511 -24.413  0.00  0.00    -0.181 NA
ATOM     22  N   UNL     1      34.870 -15.654 -22.185  0.00  0.00    -0.203 NA
ATOM     23  C   UNL     1      35.005 -16.608 -23.142  0.00  0.00    +0.087 C 
ATOM     24  C   UNL     1      33.897 -15.365 -24.718  0.00  0.00    +0.108 C 
ATOM     25  C   UNL     1      34.217 -14.534 -22.558  0.00  0.00    +0.165 C 
ATOM     26  C   UNL     1      33.704 -14.332 -23.823  0.00  0.00    +0.022 C 
ATOM     27  H   UNL     1      35.776 -18.472 -23.479  0.00  0.00    +0.158 HD
ENDBRANCH  19  20
ENDBRANCH   4  19
TORSDOF 5
ENDMDL
MODEL 8
REMARK VINA RESULT:      -9.7      4.685      7.199
REMARK  Name = 11394238
REMARK  5 active torsions:
REMARK  status: ('A' for Active; 'I' for Inactive)
REMARK    1  A    between atoms: C_4  and  C_19
REMARK    2  A    between atoms: C_9  and  O_10
REMARK    3  A    between atoms: O_10  and  C_11
REMARK    4  A    between atoms: C_11  and  C_12
REMARK    5  A    between atoms: C_19  and  N_20
REMARK                            x       y       z     vdW  Elec       q    Type
REMARK                         _______ _______ _______ _____ _____    ______ ____
ROOT
ATOM      1  F   UNL     1      33.294 -25.231 -13.853  0.00  0.00    -0.235 F 
ATOM      2  O   UNL     1      31.597 -23.165 -16.759  0.00  0.00    -0.226 OA
ATOM      3  N   UNL     1      33.540 -22.883 -15.516  0.00  0.00    -0.243 N 
ATOM      4  C   UNL     1      35.036 -23.777 -13.201  0.00  0.00    +0.056 C 
ATOM      5  C   UNL     1      33.523 -23.998 -13.317  0.00  0.00    +0.182 C 
ATOM      6  C   UNL     1      35.674 -23.706 -14.597  0.00  0.00    +0.026 C 
ATOM      7  C   UNL     1      32.862 -22.963 -14.221  0.00  0.00    +0.132 C 
ATOM      8  C   UNL     1      34.987 -22.651 -15.460  0.00  0.00    +0.097 C 
ATOM      9  C   UNL     1      32.809 -22.970 -16.705  0.00  0.00    +0.405 C 
ENDROOT
BRANCH   9  10
ATOM     10  O   UNL     1      33.591 -22.813 -17.819  0.00  0.00    -0.430 OA
BRANCH  10  11
ATOM     11  C   UNL     1      33.041 -22.007 -18.867  0.00  0.00    +0.237 C 
BRANCH  11  12
ATOM     12  C   UNL     1      34.132 -21.166 -19.462  0.00  0.00    +0.021 C 
ATOM     13  C   UNL     1      33.811 -20.168 -20.375  0.00  0.00    -0.001 C 
ATOM     14  C   UNL     1      35.454 -21.395 -19.097  0.00  0.00    -0.001 C 
ATOM     15  C   UNL     1      36.154 -19.609 -20.567  0.00  0.00    -0.022 C 
ATOM     16  C   UNL     1      34.826 -19.386 -20.928  0.00  0.00    -0.004 C 
ATOM     17  C   UNL     1      36.468 -20.613 -19.651  0.00  0.00    -0.004 C 
ATOM     18  C   UNL     1      37.238 -18.773 -21.158  0.00  0.00    +0.031 C 
ENDBRANCH  11  12
ENDBRANCH  10  11
ENDBRANCH   9  10
BRANCH   4  19
ATOM     19  C   UNL     1      35.689 -24.875 -12.365  0.00  0.00    +0.100 C 
BRANCH  19  20
ATOM     20  N   UNL     1      36.370 -25.803 -13.228  0.00  0.00    -0.278 N 
ATOM     21  N   UNL     1      38.243 -26.719 -14.306  0.00  0.00    -0.181 NA
ATOM     22  N   UNL     1      38.464 -24.816 -12.843  0.00  0.00    -0.203 NA
ATOM     23  C   UNL     1      37.738 -25.779 -13.467  0.00  0.00    +0.087 C 
ATOM     24  C   UNL     1      39.575 -26.665 -14.515  0.00  0.00    +0.108 C 
ATOM     25  C   UNL     1      39.789 -24.821 -13.097  0.00  0.00    +0.165 C 
ATOM     26  C   UNL     1      40.406 -25.730 -13.932  0.00  0.00    +0.022 C 
ATOM     27  H   UNL     1      35.835 -26.498 -13.677  0.00  0.00    +0.158 HD
ENDBRANCH  19  20
ENDBRANCH   4  19
TORSDOF 5
ENDMDL
MODEL 9
REMARK VINA RESULT:      -9.7      2.883      4.721
REMARK  Name = 11394238
REMARK  5 active torsions:
REMARK  status: ('A' for Active; 'I' for Inactive)
REMARK    1  A    between atoms: C_4  and  C_19
REMARK    2  A    between atoms: C_9  and  O_10
REMARK    3  A    between atoms: O_10  and  C_11
REMARK    4  A    between atoms: C_11  and  C_12
REMARK    5  A    between atoms: C_19  and  N_20
REMARK                            x       y       z     vdW  Elec       q    Type
REMARK                         _______ _______ _______ _____ _____    ______ ____
ROOT
ATOM      1  F   UNL     1      35.666 -22.785 -13.094  0.00  0.00    -0.235 F 
ATOM      2  O   UNL     1      38.075 -21.655 -16.011  0.00  0.00    -0.226 OA
ATOM      3  N   UNL     1      36.143 -22.944 -15.937  0.00  0.00    -0.243 N 
ATOM      4  C   UNL     1      34.262 -24.319 -14.214  0.00  0.00    +0.056 C 
ATOM      5  C   UNL     1      35.684 -23.982 -13.748  0.00  0.00    +0.182 C 
ATOM      6  C   UNL     1      33.797 -23.312 -15.278  0.00  0.00    +0.026 C 
ATOM      7  C   UNL     1      36.654 -23.862 -14.918  0.00  0.00    +0.132 C 
ATOM      8  C   UNL     1      34.793 -23.236 -16.431  0.00  0.00    +0.097 C 
ATOM      9  C   UNL     1      36.944 -21.906 -16.422  0.00  0.00    +0.405 C 
ENDROOT
BRANCH   9  10
ATOM     10  O   UNL     1      36.333 -21.184 -17.414  0.00  0.00    -0.430 OA
BRANCH  10  11
ATOM     11  C   UNL     1      36.522 -21.663 -18.750  0.00  0.00    +0.237 C 
BRANCH  11  12
ATOM     12  C   UNL     1      36.188 -20.563 -19.715  0.00  0.00    +0.021 C 
ATOM     13  C   UNL     1      34.882 -20.423 -20.172  0.00  0.00    -0.001 C 
ATOM     14  C   UNL     1      37.187 -19.697 -20.144  0.00  0.00    -0.001 C 
ATOM     15  C   UNL     1      35.568 -18.528 -21.505  0.00  0.00    -0.022 C 
ATOM     16  C   UNL     1      34.572 -19.401 -21.070  0.00  0.00    -0.004 C 
ATOM     17  C   UNL     1      36.876 -18.675 -21.042  0.00  0.00    -0.004 C 
ATOM     18  C   UNL     1      35.236 -17.435 -22.464  0.00  0.00    +0.031 C 
ENDBRANCH  11  12
ENDBRANCH  10  11
ENDBRANCH   9  10
BRANCH   4  19
ATOM     19  C   UNL     1      33.290 -24.344 -13.036  0.00  0.00    +0.100 C 
BRANCH  19  20
ATOM     20  N   UNL     1      32.162 -25.179 -13.354  0.00  0.00    -0.278 N 
ATOM     21  N   UNL     1      29.985 -25.607 -14.119  0.00  0.00    -0.181 NA
ATOM     22  N   UNL     1      30.863 -23.363 -14.074  0.00  0.00    -0.203 NA
ATOM     23  C   UNL     1      30.964 -24.701 -13.866  0.00  0.00    +0.087 C 
ATOM     24  C   UNL     1      28.835 -25.107 -14.616  0.00  0.00    +0.108 C 
ATOM     25  C   UNL     1      29.686 -22.932 -14.572  0.00  0.00    +0.165 C 
ATOM     26  C   UNL     1      28.626 -23.766 -14.865  0.00  0.00    +0.022 C 
ATOM     27  H   UNL     1      32.245 -26.149 -13.199  0.00  0.00    +0.158 HD
ENDBRANCH  19  20
ENDBRANCH   4  19
TORSDOF 5
ENDMDL
