MODEL 1
REMARK VINA RESULT:     -11.7      0.000      0.000
REMARK  Name = 10409068
REMARK  6 active torsions:
REMARK  status: ('A' for Active; 'I' for Inactive)
REMARK    1  A    between atoms: N_1  and  C_16
REMARK    2  A    between atoms: C_8  and  C_29
REMARK    3  A    between atoms: C_13  and  C_22
REMARK    4  A    between atoms: N_21  and  C_24
REMARK    5  A    between atoms: N_28  and  C_31
REMARK    6  A    between atoms: C_31  and  C_32
REMARK                            x       y       z     vdW  Elec       q    Type
REMARK                         _______ _______ _______ _____ _____    ______ ____
ROOT
ATOM      1  N   UNL     1      33.774 -13.063 -22.385  0.00  0.00    -0.297 N 
ATOM      2  N   UNL     1      34.201 -16.248 -24.221  0.00  0.00    -0.185 N 
ATOM      3  N   UNL     1      33.255 -13.747 -24.543  0.00  0.00    -0.206 NA
ATOM      4  N   UNL     1      33.683 -15.945 -25.435  0.00  0.00    -0.151 NA
ATOM      5  C   UNL     1      34.266 -15.362 -23.176  0.00  0.00    +0.102 C 
ATOM      6  C   UNL     1      34.849 -16.005 -22.106  0.00  0.00    +0.002 C 
ATOM      7  C   UNL     1      33.755 -14.025 -23.364  0.00  0.00    +0.149 C 
ATOM      8  C   UNL     1      35.145 -17.327 -22.524  0.00  0.00    +0.067 C 
ATOM      9  C   UNL     1      34.734 -17.449 -23.834  0.00  0.00    +0.094 C 
ATOM     10  C   UNL     1      35.126 -15.452 -20.764  0.00  0.00    +0.033 C 
ATOM     11  C   UNL     1      33.242 -14.721 -25.525  0.00  0.00    +0.219 C 
ATOM     12  H   UNL     1      34.505 -13.113 -21.729  0.00  0.00    +0.154 HD
ENDROOT
BRANCH   1  16
ATOM     13  C   UNL     1      32.050  -9.851 -22.908  0.00  0.00    +0.055 C 
ATOM     14  C   UNL     1      32.953 -10.904 -23.055  0.00  0.00    +0.019 C 
ATOM     15  C   UNL     1      31.057  -9.915 -21.930  0.00  0.00    +0.004 C 
ATOM     16  C   UNL     1      32.863 -12.021 -22.224  0.00  0.00    +0.045 C 
ATOM     17  C   UNL     1      31.871 -12.085 -21.246  0.00  0.00    -0.008 C 
ATOM     18  C   UNL     1      30.967 -11.033 -21.099  0.00  0.00    -0.003 C 
ATOM     19  C   UNL     1      31.751 -13.270 -20.342  0.00  0.00    +0.032 C 
BRANCH  13  22
ATOM     20  O   UNL     1      31.175  -8.340 -24.475  0.00  0.00    -0.270 OA
ATOM     21  N   UNL     1      33.363  -8.001 -23.792  0.00  0.00    -0.302 N 
ATOM     22  C   UNL     1      32.142  -8.686 -23.773  0.00  0.00    +0.246 C 
ATOM     23  H   UNL     1      34.090  -8.326 -23.213  0.00  0.00    +0.150 HD
BRANCH  21  24
ATOM     24  C   UNL     1      33.608  -6.847 -24.612  0.00  0.00    +0.072 C 
ATOM     25  C   UNL     1      34.853  -6.027 -24.447  0.00  0.00    +0.021 C 
ATOM     26  C   UNL     1      33.522  -5.461 -24.044  0.00  0.00    +0.021 C 
ENDBRANCH  21  24
ENDBRANCH  13  22
ENDBRANCH   1  16
BRANCH   8  29
ATOM     27  O   UNL     1      37.003 -18.508 -21.713  0.00  0.00    -0.270 OA
ATOM     28  N   UNL     1      34.910 -19.293 -21.107  0.00  0.00    -0.301 N 
ATOM     29  C   UNL     1      35.757 -18.384 -21.769  0.00  0.00    +0.247 C 
ATOM     30  H   UNL     1      33.937 -19.156 -21.179  0.00  0.00    +0.150 HD
BRANCH  28  31
ATOM     31  C   UNL     1      35.377 -20.408 -20.332  0.00  0.00    +0.090 C 
BRANCH  31  32
ATOM     32  C   UNL     1      34.251 -21.098 -19.570  0.00  0.00    +0.021 C 
ATOM     33  C   UNL     1      32.891 -20.467 -19.832  0.00  0.00    +0.002 C 
ENDBRANCH  31  32
ENDBRANCH  28  31
ENDBRANCH   8  29
TORSDOF 6
ENDMDL
MODEL 2
REMARK VINA RESULT:     -11.4      1.364      9.785
REMARK  Name = 10409068
REMARK  6 active torsions:
REMARK  status: ('A' for Active; 'I' for Inactive)
REMARK    1  A    between atoms: N_1  and  C_16
REMARK    2  A    between atoms: C_8  and  C_29
REMARK    3  A    between atoms: C_13  and  C_22
REMARK    4  A    between atoms: N_21  and  C_24
REMARK    5  A    between atoms: N_28  and  C_31
REMARK    6  A    between atoms: C_31  and  C_32
REMARK                            x       y       z     vdW  Elec       q    Type
REMARK                         _______ _______ _______ _____ _____    ______ ____
ROOT
ATOM      1  N   UNL     1      34.590 -14.319 -22.633  0.00  0.00    -0.297 N 
ATOM      2  N   UNL     1      32.174 -11.907 -21.203  0.00  0.00    -0.185 N 
ATOM      3  N   UNL     1      33.157 -14.383 -20.807  0.00  0.00    -0.206 NA
ATOM      4  N   UNL     1      31.685 -12.593 -20.142  0.00  0.00    -0.151 NA
ATOM      5  C   UNL     1      33.122 -12.402 -22.061  0.00  0.00    +0.102 C 
ATOM      6  C   UNL     1      33.380 -11.441 -23.013  0.00  0.00    +0.002 C 
ATOM      7  C   UNL     1      33.639 -13.730 -21.835  0.00  0.00    +0.149 C 
ATOM      8  C   UNL     1      32.556 -10.326 -22.716  0.00  0.00    +0.067 C 
ATOM      9  C   UNL     1      31.821 -10.642 -21.593  0.00  0.00    +0.094 C 
ATOM     10  C   UNL     1      34.328 -11.523 -24.144  0.00  0.00    +0.033 C 
ATOM     11  C   UNL     1      32.201 -13.783 -20.007  0.00  0.00    +0.219 C 
ATOM     12  H   UNL     1      35.234 -13.717 -23.071  0.00  0.00    +0.154 HD
ENDROOT
BRANCH   1  16
ATOM     13  C   UNL     1      35.492 -17.857 -22.164  0.00  0.00    +0.055 C 
ATOM     14  C   UNL     1      35.337 -16.492 -21.925  0.00  0.00    +0.019 C 
ATOM     15  C   UNL     1      35.048 -18.412 -23.364  0.00  0.00    +0.004 C 
ATOM     16  C   UNL     1      34.737 -15.680 -22.888  0.00  0.00    +0.045 C 
ATOM     17  C   UNL     1      34.292 -16.234 -24.089  0.00  0.00    -0.008 C 
ATOM     18  C   UNL     1      34.447 -17.599 -24.327  0.00  0.00    -0.003 C 
ATOM     19  C   UNL     1      33.645 -15.387 -25.137  0.00  0.00    +0.032 C 
BRANCH  13  22
ATOM     20  O   UNL     1      37.339 -18.627 -20.937  0.00  0.00    -0.270 OA
ATOM     21  N   UNL     1      35.290 -19.614 -20.489  0.00  0.00    -0.302 N 
ATOM     22  C   UNL     1      36.118 -18.705 -21.161  0.00  0.00    +0.246 C 
ATOM     23  H   UNL     1      34.332 -19.627 -20.712  0.00  0.00    +0.150 HD
BRANCH  21  24
ATOM     24  C   UNL     1      35.771 -20.528 -19.490  0.00  0.00    +0.072 C 
ATOM     25  C   UNL     1      36.088 -21.954 -19.829  0.00  0.00    +0.021 C 
ATOM     26  C   UNL     1      34.901 -21.634 -18.969  0.00  0.00    +0.021 C 
ENDBRANCH  21  24
ENDBRANCH  13  22
ENDBRANCH   1  16
BRANCH   8  29
ATOM     27  O   UNL     1      31.969  -9.011 -24.568  0.00  0.00    -0.270 OA
ATOM     28  N   UNL     1      32.956  -7.925 -22.775  0.00  0.00    -0.301 N 
ATOM     29  C   UNL     1      32.460  -9.077 -23.417  0.00  0.00    +0.247 C 
ATOM     30  H   UNL     1      33.333  -8.025 -21.871  0.00  0.00    +0.150 HD
BRANCH  28  31
ATOM     31  C   UNL     1      32.947  -6.613 -23.360  0.00  0.00    +0.090 C 
BRANCH  31  32
ATOM     32  C   UNL     1      34.334  -6.167 -23.807  0.00  0.00    +0.021 C 
ATOM     33  C   UNL     1      35.445  -7.024 -23.219  0.00  0.00    +0.002 C 
ENDBRANCH  31  32
ENDBRANCH  28  31
ENDBRANCH   8  29
TORSDOF 6
ENDMDL
MODEL 3
REMARK VINA RESULT:      -9.9      5.654     13.161
REMARK  Name = 10409068
REMARK  6 active torsions:
REMARK  status: ('A' for Active; 'I' for Inactive)
REMARK    1  A    between atoms: N_1  and  C_16
REMARK    2  A    between atoms: C_8  and  C_29
REMARK    3  A    between atoms: C_13  and  C_22
REMARK    4  A    between atoms: N_21  and  C_24
REMARK    5  A    between atoms: N_28  and  C_31
REMARK    6  A    between atoms: C_31  and  C_32
REMARK                            x       y       z     vdW  Elec       q    Type
REMARK                         _______ _______ _______ _____ _____    ______ ____
ROOT
ATOM      1  N   UNL     1      33.636 -22.834 -17.036  0.00  0.00    -0.297 N 
ATOM      2  N   UNL     1      36.433 -21.087 -18.715  0.00  0.00    -0.185 N 
ATOM      3  N   UNL     1      35.919 -22.710 -16.629  0.00  0.00    -0.206 NA
ATOM      4  N   UNL     1      37.492 -21.452 -17.953  0.00  0.00    -0.151 NA
ATOM      5  C   UNL     1      35.145 -21.496 -18.480  0.00  0.00    +0.102 C 
ATOM      6  C   UNL     1      34.337 -20.937 -19.445  0.00  0.00    +0.002 C 
ATOM      7  C   UNL     1      34.886 -22.366 -17.358  0.00  0.00    +0.149 C 
ATOM      8  C   UNL     1      35.170 -20.163 -20.292  0.00  0.00    +0.067 C 
ATOM      9  C   UNL     1      36.459 -20.273 -19.817  0.00  0.00    +0.094 C 
ATOM     10  C   UNL     1      32.875 -21.094 -19.597  0.00  0.00    +0.033 C 
ATOM     11  C   UNL     1      37.176 -22.236 -16.961  0.00  0.00    +0.219 C 
ATOM     12  H   UNL     1      33.004 -22.956 -17.780  0.00  0.00    +0.154 HD
ENDROOT
BRANCH   1  16
ATOM     13  C   UNL     1      33.630 -23.857 -13.499  0.00  0.00    +0.055 C 
ATOM     14  C   UNL     1      34.080 -23.533 -14.779  0.00  0.00    +0.019 C 
ATOM     15  C   UNL     1      32.267 -23.800 -13.203  0.00  0.00    +0.004 C 
ATOM     16  C   UNL     1      33.168 -23.153 -15.763  0.00  0.00    +0.045 C 
ATOM     17  C   UNL     1      31.806 -23.095 -15.468  0.00  0.00    -0.008 C 
ATOM     18  C   UNL     1      31.356 -23.418 -14.188  0.00  0.00    -0.003 C 
ATOM     19  C   UNL     1      30.807 -22.691 -16.504  0.00  0.00    +0.032 C 
BRANCH  13  22
ATOM     20  O   UNL     1      34.466 -23.832 -11.306  0.00  0.00    -0.270 OA
ATOM     21  N   UNL     1      35.623 -25.102 -12.862  0.00  0.00    -0.302 N 
ATOM     22  C   UNL     1      34.579 -24.254 -12.471  0.00  0.00    +0.246 C 
ATOM     23  H   UNL     1      35.657 -25.400 -13.799  0.00  0.00    +0.150 HD
BRANCH  21  24
ATOM     24  C   UNL     1      36.646 -25.560 -11.962  0.00  0.00    +0.072 C 
ATOM     25  C   UNL     1      37.838 -24.707 -11.643  0.00  0.00    +0.021 C 
ATOM     26  C   UNL     1      38.003 -25.950 -12.467  0.00  0.00    +0.021 C 
ENDBRANCH  21  24
ENDBRANCH  13  22
ENDBRANCH   1  16
BRANCH   8  29
ATOM     27  O   UNL     1      34.012 -19.843 -22.307  0.00  0.00    -0.270 OA
ATOM     28  N   UNL     1      35.359 -18.104 -21.578  0.00  0.00    -0.301 N 
ATOM     29  C   UNL     1      34.797 -19.389 -21.442  0.00  0.00    +0.247 C 
ATOM     30  H   UNL     1      35.970 -17.790 -20.873  0.00  0.00    +0.150 HD
BRANCH  28  31
ATOM     31  C   UNL     1      35.095 -17.225 -22.683  0.00  0.00    +0.090 C 
BRANCH  31  32
ATOM     32  C   UNL     1      35.012 -15.764 -22.255  0.00  0.00    +0.021 C 
ATOM     33  C   UNL     1      34.761 -15.602 -20.763  0.00  0.00    +0.002 C 
ENDBRANCH  31  32
ENDBRANCH  28  31
ENDBRANCH   8  29
TORSDOF 6
ENDMDL
MODEL 4
REMARK VINA RESULT:      -9.2      2.737     10.528
REMARK  Name = 10409068
REMARK  6 active torsions:
REMARK  status: ('A' for Active; 'I' for Inactive)
REMARK    1  A    between atoms: N_1  and  C_16
REMARK    2  A    between atoms: C_8  and  C_29
REMARK    3  A    between atoms: C_13  and  C_22
REMARK    4  A    between atoms: N_21  and  C_24
REMARK    5  A    between atoms: N_28  and  C_31
REMARK    6  A    between atoms: C_31  and  C_32
REMARK                            x       y       z     vdW  Elec       q    Type
REMARK                         _______ _______ _______ _____ _____    ______ ____
ROOT
ATOM      1  N   UNL     1      34.597 -18.587 -20.776  0.00  0.00    -0.297 N 
ATOM      2  N   UNL     1      34.438 -16.642 -23.921  0.00  0.00    -0.185 N 
ATOM      3  N   UNL     1      34.503 -19.179 -23.020  0.00  0.00    -0.206 NA
ATOM      4  N   UNL     1      34.404 -17.621 -24.857  0.00  0.00    -0.151 NA
ATOM      5  C   UNL     1      34.501 -16.877 -22.571  0.00  0.00    +0.102 C 
ATOM      6  C   UNL     1      34.519 -15.661 -21.926  0.00  0.00    +0.002 C 
ATOM      7  C   UNL     1      34.535 -18.243 -22.104  0.00  0.00    +0.149 C 
ATOM      8  C   UNL     1      34.464 -14.656 -22.925  0.00  0.00    +0.067 C 
ATOM      9  C   UNL     1      34.416 -15.291 -24.148  0.00  0.00    +0.094 C 
ATOM     10  C   UNL     1      34.583 -15.414 -20.470  0.00  0.00    +0.033 C 
ATOM     11  C   UNL     1      34.439 -18.824 -24.355  0.00  0.00    +0.219 C 
ATOM     12  H   UNL     1      34.179 -17.965 -20.138  0.00  0.00    +0.154 HD
ENDROOT
BRANCH   1  16
ATOM     13  C   UNL     1      34.961 -21.847 -19.104  0.00  0.00    +0.055 C 
ATOM     14  C   UNL     1      34.384 -20.700 -19.648  0.00  0.00    +0.019 C 
ATOM     15  C   UNL     1      36.345 -22.021 -19.149  0.00  0.00    +0.004 C 
ATOM     16  C   UNL     1      35.190 -19.726 -20.237  0.00  0.00    +0.045 C 
ATOM     17  C   UNL     1      36.574 -19.900 -20.284  0.00  0.00    -0.008 C 
ATOM     18  C   UNL     1      37.151 -21.047 -19.740  0.00  0.00    -0.003 C 
ATOM     19  C   UNL     1      37.461 -18.873 -20.909  0.00  0.00    +0.032 C 
BRANCH  13  22
ATOM     20  O   UNL     1      33.842 -23.910 -19.100  0.00  0.00    -0.270 OA
ATOM     21  N   UNL     1      33.635 -22.594 -17.203  0.00  0.00    -0.302 N 
ATOM     22  C   UNL     1      34.122 -22.863 -18.489  0.00  0.00    +0.246 C 
ATOM     23  H   UNL     1      33.893 -21.748 -16.773  0.00  0.00    +0.150 HD
BRANCH  21  24
ATOM     24  C   UNL     1      32.779 -23.494 -16.480  0.00  0.00    +0.072 C 
ATOM     25  C   UNL     1      31.394 -23.089 -16.072  0.00  0.00    +0.021 C 
ATOM     26  C   UNL     1      32.461 -23.264 -15.032  0.00  0.00    +0.021 C 
ENDBRANCH  21  24
ENDBRANCH  13  22
ENDBRANCH   1  16
BRANCH   8  29
ATOM     27  O   UNL     1      34.579 -12.709 -21.623  0.00  0.00    -0.270 OA
ATOM     28  N   UNL     1      34.294 -12.434 -23.906  0.00  0.00    -0.301 N 
ATOM     29  C   UNL     1      34.459 -13.231 -22.756  0.00  0.00    +0.247 C 
ATOM     30  H   UNL     1      34.203 -12.889 -24.774  0.00  0.00    +0.150 HD
BRANCH  28  31
ATOM     31  C   UNL     1      34.248 -10.998 -23.888  0.00  0.00    +0.090 C 
BRANCH  31  32
ATOM     32  C   UNL     1      32.846 -10.465 -23.622  0.00  0.00    +0.021 C 
ATOM     33  C   UNL     1      32.852  -9.064 -23.027  0.00  0.00    +0.002 C 
ENDBRANCH  31  32
ENDBRANCH  28  31
ENDBRANCH   8  29
TORSDOF 6
ENDMDL
