MODEL 1
REMARK VINA RESULT:     -12.2      0.000      0.000
REMARK  Name = 6419766
REMARK  1 active torsions:
REMARK  status: ('A' for Active; 'I' for Inactive)
REMARK    1  A    between atoms: C_9  and  C_20
REMARK                            x       y       z     vdW  Elec       q    Type
REMARK                         _______ _______ _______ _____ _____    ______ ____
ROOT
ATOM      1  N   UNL     1      34.233 -24.011 -14.209  0.00  0.00    -0.274 N 
ATOM      2  N   UNL     1      34.003 -22.922 -16.282  0.00  0.00    -0.328 NA
ATOM      3  N   UNL     1      31.825 -22.555 -17.243  0.00  0.00    -0.343 NA
ATOM      4  N   UNL     1      37.424 -25.127 -14.770  0.00  0.00    -0.239 N 
ATOM      5  N   UNL     1      36.293 -24.612 -15.282  0.00  0.00    -0.166 NA
ATOM      6  C   UNL     1      32.016 -23.669 -15.128  0.00  0.00    +0.143 C 
ATOM      7  C   UNL     1      33.395 -23.518 -15.240  0.00  0.00    +0.185 C 
ATOM      8  C   UNL     1      31.249 -23.156 -16.188  0.00  0.00    +0.133 C 
ATOM      9  C   UNL     1      33.171 -22.471 -17.234  0.00  0.00    +0.138 C 
ATOM     10  C   UNL     1      35.546 -24.509 -14.212  0.00  0.00    +0.152 C 
ATOM     11  C   UNL     1      31.403 -24.295 -14.029  0.00  0.00    -0.011 C 
ATOM     12  C   UNL     1      29.865 -23.288 -16.111  0.00  0.00    +0.029 C 
ATOM     13  C   UNL     1      36.124 -24.928 -13.026  0.00  0.00    +0.048 C 
ATOM     14  C   UNL     1      37.374 -25.336 -13.423  0.00  0.00    +0.046 C 
ATOM     15  C   UNL     1      30.018 -24.414 -13.980  0.00  0.00    -0.004 C 
ATOM     16  C   UNL     1      29.247 -23.910 -15.022  0.00  0.00    +0.002 C 
ATOM     17  C   UNL     1      38.511 -25.893 -12.672  0.00  0.00    +0.049 C 
ATOM     18  H   UNL     1      33.814 -24.002 -13.318  0.00  0.00    +0.156 HD
ATOM     19  H   UNL     1      38.215 -25.335 -15.317  0.00  0.00    +0.174 HD
ENDROOT
BRANCH   9  20
ATOM     20  C   UNL     1      33.780 -21.826 -18.368  0.00  0.00    +0.086 C 
ATOM     21  C   UNL     1      33.009 -21.041 -19.230  0.00  0.00    +0.012 C 
ATOM     22  C   UNL     1      35.148 -21.979 -18.614  0.00  0.00    +0.012 C 
ATOM     23  C   UNL     1      33.599 -20.415 -20.327  0.00  0.00    +0.001 C 
ATOM     24  C   UNL     1      35.739 -21.353 -19.710  0.00  0.00    +0.001 C 
ATOM     25  C   UNL     1      34.965 -20.570 -20.568  0.00  0.00    +0.000 C 
ENDBRANCH   9  20
TORSDOF 1
ENDMDL
MODEL 2
REMARK VINA RESULT:     -11.5      1.232      4.946
REMARK  Name = 6419766
REMARK  1 active torsions:
REMARK  status: ('A' for Active; 'I' for Inactive)
REMARK    1  A    between atoms: C_9  and  C_20
REMARK                            x       y       z     vdW  Elec       q    Type
REMARK                         _______ _______ _______ _____ _____    ______ ____
ROOT
ATOM      1  N   UNL     1      35.793 -23.306 -15.720  0.00  0.00    -0.274 N 
ATOM      2  N   UNL     1      33.443 -23.377 -15.816  0.00  0.00    -0.328 NA
ATOM      3  N   UNL     1      32.257 -22.383 -17.662  0.00  0.00    -0.343 NA
ATOM      4  N   UNL     1      35.996 -23.593 -12.312  0.00  0.00    -0.239 N 
ATOM      5  N   UNL     1      35.232 -23.341 -13.387  0.00  0.00    -0.166 NA
ATOM      6  C   UNL     1      34.652 -22.289 -17.603  0.00  0.00    +0.143 C 
ATOM      7  C   UNL     1      34.590 -22.982 -16.398  0.00  0.00    +0.185 C 
ATOM      8  C   UNL     1      33.421 -22.003 -18.216  0.00  0.00    +0.133 C 
ATOM      9  C   UNL     1      32.330 -23.049 -16.492  0.00  0.00    +0.138 C 
ATOM     10  C   UNL     1      36.098 -23.472 -14.360  0.00  0.00    +0.152 C 
ATOM     11  C   UNL     1      35.864 -21.887 -18.191  0.00  0.00    -0.011 C 
ATOM     12  C   UNL     1      33.443 -21.311 -19.424  0.00  0.00    +0.029 C 
ATOM     13  C   UNL     1      37.390 -23.797 -13.982  0.00  0.00    +0.048 C 
ATOM     14  C   UNL     1      37.298 -23.872 -12.613  0.00  0.00    +0.046 C 
ATOM     15  C   UNL     1      35.855 -21.196 -19.398  0.00  0.00    -0.004 C 
ATOM     16  C   UNL     1      34.644 -20.907 -20.016  0.00  0.00    +0.002 C 
ATOM     17  C   UNL     1      38.296 -24.176 -11.575  0.00  0.00    +0.049 C 
ATOM     18  H   UNL     1      36.562 -23.441 -16.319  0.00  0.00    +0.156 HD
ATOM     19  H   UNL     1      35.650 -23.578 -11.391  0.00  0.00    +0.174 HD
ENDROOT
BRANCH   9  20
ATOM     20  C   UNL     1      31.079 -23.452 -15.906  0.00  0.00    +0.086 C 
ATOM     21  C   UNL     1      29.900 -22.771 -16.222  0.00  0.00    +0.012 C 
ATOM     22  C   UNL     1      31.033 -24.530 -15.016  0.00  0.00    +0.012 C 
ATOM     23  C   UNL     1      28.688 -23.163 -15.655  0.00  0.00    +0.001 C 
ATOM     24  C   UNL     1      29.822 -24.922 -14.449  0.00  0.00    +0.001 C 
ATOM     25  C   UNL     1      28.647 -24.239 -14.769  0.00  0.00    +0.000 C 
ENDBRANCH   9  20
TORSDOF 1
ENDMDL
MODEL 3
REMARK VINA RESULT:     -11.4      1.535      5.779
REMARK  Name = 6419766
REMARK  1 active torsions:
REMARK  status: ('A' for Active; 'I' for Inactive)
REMARK    1  A    between atoms: C_9  and  C_20
REMARK                            x       y       z     vdW  Elec       q    Type
REMARK                         _______ _______ _______ _____ _____    ______ ____
ROOT
ATOM      1  N   UNL     1      33.440 -22.586 -17.611  0.00  0.00    -0.274 N 
ATOM      2  N   UNL     1      34.878 -23.757 -16.164  0.00  0.00    -0.328 NA
ATOM      3  N   UNL     1      34.080 -24.601 -14.054  0.00  0.00    -0.343 NA
ATOM      4  N   UNL     1      35.920 -20.841 -19.206  0.00  0.00    -0.239 N 
ATOM      5  N   UNL     1      35.557 -21.596 -18.156  0.00  0.00    -0.166 NA
ATOM      6  C   UNL     1      32.581 -23.413 -15.500  0.00  0.00    +0.143 C 
ATOM      7  C   UNL     1      33.643 -23.273 -16.389  0.00  0.00    +0.185 C 
ATOM      8  C   UNL     1      32.856 -24.105 -14.309  0.00  0.00    +0.133 C 
ATOM      9  C   UNL     1      35.025 -24.400 -14.995  0.00  0.00    +0.138 C 
ATOM     10  C   UNL     1      34.295 -21.823 -18.423  0.00  0.00    +0.152 C 
ATOM     11  C   UNL     1      31.298 -22.898 -15.757  0.00  0.00    -0.011 C 
ATOM     12  C   UNL     1      31.818 -24.264 -13.396  0.00  0.00    +0.029 C 
ATOM     13  C   UNL     1      33.811 -21.259 -19.590  0.00  0.00    +0.048 C 
ATOM     14  C   UNL     1      34.911 -20.609 -20.095  0.00  0.00    +0.046 C 
ATOM     15  C   UNL     1      30.280 -23.072 -14.825  0.00  0.00    -0.004 C 
ATOM     16  C   UNL     1      30.540 -23.755 -13.643  0.00  0.00    +0.002 C 
ATOM     17  C   UNL     1      35.106 -19.804 -21.311  0.00  0.00    +0.049 C 
ATOM     18  H   UNL     1      32.522 -22.657 -17.959  0.00  0.00    +0.156 HD
ATOM     19  H   UNL     1      36.831 -20.486 -19.324  0.00  0.00    +0.174 HD
ENDROOT
BRANCH   9  20
ATOM     20  C   UNL     1      36.331 -24.935 -14.713  0.00  0.00    +0.086 C 
ATOM     21  C   UNL     1      37.434 -24.082 -14.607  0.00  0.00    +0.012 C 
ATOM     22  C   UNL     1      36.507 -26.312 -14.543  0.00  0.00    +0.012 C 
ATOM     23  C   UNL     1      38.699 -24.600 -14.333  0.00  0.00    +0.001 C 
ATOM     24  C   UNL     1      37.771 -26.830 -14.269  0.00  0.00    +0.001 C 
ATOM     25  C   UNL     1      38.869 -25.975 -14.163  0.00  0.00    +0.000 C 
ENDBRANCH   9  20
TORSDOF 1
ENDMDL
MODEL 4
REMARK VINA RESULT:     -11.1      1.576      5.198
REMARK  Name = 6419766
REMARK  1 active torsions:
REMARK  status: ('A' for Active; 'I' for Inactive)
REMARK    1  A    between atoms: C_9  and  C_20
REMARK                            x       y       z     vdW  Elec       q    Type
REMARK                         _______ _______ _______ _____ _____    ______ ____
ROOT
ATOM      1  N   UNL     1      32.961 -23.942 -15.762  0.00  0.00    -0.274 N 
ATOM      2  N   UNL     1      34.106 -22.598 -17.316  0.00  0.00    -0.328 NA
ATOM      3  N   UNL     1      36.455 -22.137 -17.048  0.00  0.00    -0.343 NA
ATOM      4  N   UNL     1      29.867 -22.606 -16.381  0.00  0.00    -0.239 N 
ATOM      5  N   UNL     1      31.199 -22.498 -16.516  0.00  0.00    -0.166 NA
ATOM      6  C   UNL     1      35.326 -23.513 -15.442  0.00  0.00    +0.143 C 
ATOM      7  C   UNL     1      34.166 -23.330 -16.189  0.00  0.00    +0.185 C 
ATOM      8  C   UNL     1      36.481 -22.877 -15.925  0.00  0.00    +0.133 C 
ATOM      9  C   UNL     1      35.270 -22.037 -17.682  0.00  0.00    +0.138 C 
ATOM     10  C   UNL     1      31.612 -23.578 -15.902  0.00  0.00    +0.152 C 
ATOM     11  C   UNL     1      35.363 -24.284 -14.266  0.00  0.00    -0.011 C 
ATOM     12  C   UNL     1      37.660 -23.036 -15.204  0.00  0.00    +0.029 C 
ATOM     13  C   UNL     1      30.624 -24.390 -15.372  0.00  0.00    +0.048 C 
ATOM     14  C   UNL     1      29.470 -23.721 -15.702  0.00  0.00    +0.046 C 
ATOM     15  C   UNL     1      36.556 -24.426 -13.566  0.00  0.00    -0.004 C 
ATOM     16  C   UNL     1      37.706 -23.801 -14.034  0.00  0.00    +0.002 C 
ATOM     17  C   UNL     1      28.052 -24.022 -15.449  0.00  0.00    +0.049 C 
ATOM     18  H   UNL     1      33.096 -24.785 -15.272  0.00  0.00    +0.156 HD
ATOM     19  H   UNL     1      29.235 -21.941 -16.738  0.00  0.00    +0.174 HD
ENDROOT
BRANCH   9  20
ATOM     20  C   UNL     1      35.252 -21.243 -18.883  0.00  0.00    +0.086 C 
ATOM     21  C   UNL     1      34.048 -21.001 -19.550  0.00  0.00    +0.012 C 
ATOM     22  C   UNL     1      36.440 -20.708 -19.391  0.00  0.00    +0.012 C 
ATOM     23  C   UNL     1      34.030 -20.231 -20.713  0.00  0.00    +0.001 C 
ATOM     24  C   UNL     1      36.423 -19.938 -20.553  0.00  0.00    +0.001 C 
ATOM     25  C   UNL     1      35.218 -19.698 -21.215  0.00  0.00    +0.000 C 
ENDBRANCH   9  20
TORSDOF 1
ENDMDL
MODEL 5
REMARK VINA RESULT:     -10.8      2.011      6.166
REMARK  Name = 6419766
REMARK  1 active torsions:
REMARK  status: ('A' for Active; 'I' for Inactive)
REMARK    1  A    between atoms: C_9  and  C_20
REMARK                            x       y       z     vdW  Elec       q    Type
REMARK                         _______ _______ _______ _____ _____    ______ ____
ROOT
ATOM      1  N   UNL     1      35.904 -22.308 -15.444  0.00  0.00    -0.274 N 
ATOM      2  N   UNL     1      33.823 -23.171 -14.766  0.00  0.00    -0.328 NA
ATOM      3  N   UNL     1      33.615 -24.404 -12.707  0.00  0.00    -0.343 NA
ATOM      4  N   UNL     1      35.163 -22.239 -18.789  0.00  0.00    -0.239 N 
ATOM      5  N   UNL     1      34.844 -22.688 -17.563  0.00  0.00    -0.166 NA
ATOM      6  C   UNL     1      35.754 -23.540 -13.361  0.00  0.00    +0.143 C 
ATOM      7  C   UNL     1      35.134 -23.028 -14.497  0.00  0.00    +0.185 C 
ATOM      8  C   UNL     1      34.928 -24.242 -12.468  0.00  0.00    +0.133 C 
ATOM      9  C   UNL     1      33.133 -23.860 -13.843  0.00  0.00    +0.138 C 
ATOM     10  C   UNL     1      35.786 -22.144 -16.834  0.00  0.00    +0.152 C 
ATOM     11  C   UNL     1      37.126 -23.377 -13.102  0.00  0.00    -0.011 C 
ATOM     12  C   UNL     1      35.513 -24.769 -11.320  0.00  0.00    +0.029 C 
ATOM     13  C   UNL     1      36.705 -21.363 -17.513  0.00  0.00    +0.048 C 
ATOM     14  C   UNL     1      36.270 -21.442 -18.814  0.00  0.00    +0.046 C 
ATOM     15  C   UNL     1      37.684 -23.915 -11.946  0.00  0.00    -0.004 C 
ATOM     16  C   UNL     1      36.877 -24.612 -11.054  0.00  0.00    +0.002 C 
ATOM     17  C   UNL     1      36.783 -20.850 -20.060  0.00  0.00    +0.049 C 
ATOM     18  H   UNL     1      36.670 -21.830 -15.052  0.00  0.00    +0.156 HD
ATOM     19  H   UNL     1      34.646 -22.465 -19.595  0.00  0.00    +0.174 HD
ENDROOT
BRANCH   9  20
ATOM     20  C   UNL     1      31.727 -24.038 -14.091  0.00  0.00    +0.086 C 
ATOM     21  C   UNL     1      30.958 -22.977 -14.579  0.00  0.00    +0.012 C 
ATOM     22  C   UNL     1      31.119 -25.273 -13.846  0.00  0.00    +0.012 C 
ATOM     23  C   UNL     1      29.595 -23.150 -14.820  0.00  0.00    +0.001 C 
ATOM     24  C   UNL     1      29.757 -25.446 -14.088  0.00  0.00    +0.001 C 
ATOM     25  C   UNL     1      28.994 -24.384 -14.576  0.00  0.00    +0.000 C 
ENDBRANCH   9  20
TORSDOF 1
ENDMDL
MODEL 6
REMARK VINA RESULT:      -9.8      1.625      6.494
REMARK  Name = 6419766
REMARK  1 active torsions:
REMARK  status: ('A' for Active; 'I' for Inactive)
REMARK    1  A    between atoms: C_9  and  C_20
REMARK                            x       y       z     vdW  Elec       q    Type
REMARK                         _______ _______ _______ _____ _____    ______ ____
ROOT
ATOM      1  N   UNL     1      32.615 -23.077 -15.849  0.00  0.00    -0.274 N 
ATOM      2  N   UNL     1      34.724 -23.335 -14.838  0.00  0.00    -0.328 NA
ATOM      3  N   UNL     1      36.735 -22.724 -16.015  0.00  0.00    -0.343 NA
ATOM      4  N   UNL     1      31.051 -25.484 -13.978  0.00  0.00    -0.239 N 
ATOM      5  N   UNL     1      32.207 -24.937 -14.389  0.00  0.00    -0.166 NA
ATOM      6  C   UNL     1      34.606 -22.444 -17.081  0.00  0.00    +0.143 C 
ATOM      7  C   UNL     1      34.025 -22.950 -15.922  0.00  0.00    +0.185 C 
ATOM      8  C   UNL     1      36.007 -22.348 -17.081  0.00  0.00    +0.133 C 
ATOM      9  C   UNL     1      36.055 -23.198 -14.952  0.00  0.00    +0.138 C 
ATOM     10  C   UNL     1      31.779 -23.970 -15.161  0.00  0.00    +0.152 C 
ATOM     11  C   UNL     1      33.853 -22.048 -18.201  0.00  0.00    -0.011 C 
ATOM     12  C   UNL     1      36.624 -21.846 -18.224  0.00  0.00    +0.029 C 
ATOM     13  C   UNL     1      30.404 -23.852 -15.278  0.00  0.00    +0.048 C 
ATOM     14  C   UNL     1      29.941 -24.872 -14.482  0.00  0.00    +0.046 C 
ATOM     15  C   UNL     1      34.497 -21.551 -19.330  0.00  0.00    -0.004 C 
ATOM     16  C   UNL     1      35.883 -21.450 -19.342  0.00  0.00    +0.002 C 
ATOM     17  C   UNL     1      28.579 -25.320 -14.153  0.00  0.00    +0.049 C 
ATOM     18  H   UNL     1      32.129 -22.410 -16.385  0.00  0.00    +0.156 HD
ATOM     19  H   UNL     1      31.009 -26.256 -13.369  0.00  0.00    +0.174 HD
ENDROOT
BRANCH   9  20
ATOM     20  C   UNL     1      36.842 -23.599 -13.816  0.00  0.00    +0.086 C 
ATOM     21  C   UNL     1      36.560 -23.086 -12.546  0.00  0.00    +0.012 C 
ATOM     22  C   UNL     1      37.896 -24.505 -13.973  0.00  0.00    +0.012 C 
ATOM     23  C   UNL     1      37.321 -23.476 -11.445  0.00  0.00    +0.001 C 
ATOM     24  C   UNL     1      38.657 -24.895 -12.873  0.00  0.00    +0.001 C 
ATOM     25  C   UNL     1      38.371 -24.381 -11.607  0.00  0.00    +0.000 C 
ENDBRANCH   9  20
TORSDOF 1
ENDMDL
MODEL 7
REMARK VINA RESULT:      -9.8      1.778      5.309
REMARK  Name = 6419766
REMARK  1 active torsions:
REMARK  status: ('A' for Active; 'I' for Inactive)
REMARK    1  A    between atoms: C_9  and  C_20
REMARK                            x       y       z     vdW  Elec       q    Type
REMARK                         _______ _______ _______ _____ _____    ______ ____
ROOT
ATOM      1  N   UNL     1      33.334 -24.782 -13.729  0.00  0.00    -0.274 N 
ATOM      2  N   UNL     1      34.533 -23.536 -15.325  0.00  0.00    -0.328 NA
ATOM      3  N   UNL     1      36.742 -22.712 -14.833  0.00  0.00    -0.343 NA
ATOM      4  N   UNL     1      30.233 -24.007 -14.963  0.00  0.00    -0.239 N 
ATOM      5  N   UNL     1      31.547 -23.732 -14.939  0.00  0.00    -0.166 NA
ATOM      6  C   UNL     1      35.554 -23.978 -13.180  0.00  0.00    +0.143 C 
ATOM      7  C   UNL     1      34.508 -24.076 -14.092  0.00  0.00    +0.185 C 
ATOM      8  C   UNL     1      36.685 -23.264 -13.609  0.00  0.00    +0.133 C 
ATOM      9  C   UNL     1      35.664 -22.877 -15.625  0.00  0.00    +0.138 C 
ATOM     10  C   UNL     1      31.988 -24.639 -14.104  0.00  0.00    +0.152 C 
ATOM     11  C   UNL     1      35.505 -24.552 -11.897  0.00  0.00    -0.011 C 
ATOM     12  C   UNL     1      37.752 -23.145 -12.723  0.00  0.00    +0.029 C 
ATOM     13  C   UNL     1      31.035 -25.494 -13.578  0.00  0.00    +0.048 C 
ATOM     14  C   UNL     1      29.873 -25.053 -14.164  0.00  0.00    +0.046 C 
ATOM     15  C   UNL     1      36.586 -24.416 -11.033  0.00  0.00    -0.004 C 
ATOM     16  C   UNL     1      37.711 -23.712 -11.445  0.00  0.00    +0.002 C 
ATOM     17  C   UNL     1      28.479 -25.511 -14.051  0.00  0.00    +0.049 C 
ATOM     18  H   UNL     1      33.492 -25.515 -13.092  0.00  0.00    +0.156 HD
ATOM     19  H   UNL     1      29.587 -23.500 -15.506  0.00  0.00    +0.174 HD
ENDROOT
BRANCH   9  20
ATOM     20  C   UNL     1      35.733 -22.283 -16.934  0.00  0.00    +0.086 C 
ATOM     21  C   UNL     1      36.835 -21.503 -17.296  0.00  0.00    +0.012 C 
ATOM     22  C   UNL     1      34.700 -22.483 -17.854  0.00  0.00    +0.012 C 
ATOM     23  C   UNL     1      36.904 -20.929 -18.565  0.00  0.00    +0.001 C 
ATOM     24  C   UNL     1      34.767 -21.910 -19.123  0.00  0.00    +0.001 C 
ATOM     25  C   UNL     1      35.870 -21.132 -19.480  0.00  0.00    +0.000 C 
ENDBRANCH   9  20
TORSDOF 1
ENDMDL
MODEL 8
REMARK VINA RESULT:      -9.4      1.514      6.342
REMARK  Name = 6419766
REMARK  1 active torsions:
REMARK  status: ('A' for Active; 'I' for Inactive)
REMARK    1  A    between atoms: C_9  and  C_20
REMARK                            x       y       z     vdW  Elec       q    Type
REMARK                         _______ _______ _______ _____ _____    ______ ____
ROOT
ATOM      1  N   UNL     1      35.740 -22.079 -16.759  0.00  0.00    -0.274 N 
ATOM      2  N   UNL     1      33.771 -22.997 -15.854  0.00  0.00    -0.328 NA
ATOM      3  N   UNL     1      33.871 -24.544 -14.010  0.00  0.00    -0.343 NA
ATOM      4  N   UNL     1      34.421 -21.450 -19.858  0.00  0.00    -0.239 N 
ATOM      5  N   UNL     1      34.303 -22.086 -18.681  0.00  0.00    -0.166 NA
ATOM      6  C   UNL     1      35.900 -23.630 -14.902  0.00  0.00    +0.143 C 
ATOM      7  C   UNL     1      35.115 -22.928 -15.811  0.00  0.00    +0.185 C 
ATOM      8  C   UNL     1      35.212 -24.451 -13.994  0.00  0.00    +0.133 C 
ATOM      9  C   UNL     1      33.223 -23.813 -14.939  0.00  0.00    +0.138 C 
ATOM     10  C   UNL     1      35.385 -21.688 -18.060  0.00  0.00    +0.152 C 
ATOM     11  C   UNL     1      37.303 -23.541 -14.877  0.00  0.00    -0.011 C 
ATOM     12  C   UNL     1      35.964 -25.170 -13.069  0.00  0.00    +0.029 C 
ATOM     13  C   UNL     1      36.207 -20.826 -18.766  0.00  0.00    +0.048 C 
ATOM     14  C   UNL     1      35.544 -20.683 -19.961  0.00  0.00    +0.046 C 
ATOM     15  C   UNL     1      38.029 -24.271 -13.942  0.00  0.00    -0.004 C 
ATOM     16  C   UNL     1      37.360 -25.087 -13.037  0.00  0.00    +0.002 C 
ATOM     17  C   UNL     1      35.857 -19.907 -21.172  0.00  0.00    +0.049 C 
ATOM     18  H   UNL     1      36.586 -21.688 -16.444  0.00  0.00    +0.156 HD
ATOM     19  H   UNL     1      33.758 -21.531 -20.581  0.00  0.00    +0.174 HD
ENDROOT
BRANCH   9  20
ATOM     20  C   UNL     1      31.787 -23.918 -14.950  0.00  0.00    +0.086 C 
ATOM     21  C   UNL     1      31.113 -24.469 -13.857  0.00  0.00    +0.012 C 
ATOM     22  C   UNL     1      31.056 -23.467 -16.053  0.00  0.00    +0.012 C 
ATOM     23  C   UNL     1      29.722 -24.569 -13.866  0.00  0.00    +0.001 C 
ATOM     24  C   UNL     1      29.666 -23.567 -16.063  0.00  0.00    +0.001 C 
ATOM     25  C   UNL     1      28.997 -24.117 -14.969  0.00  0.00    +0.000 C 
ENDBRANCH   9  20
TORSDOF 1
ENDMDL
