MODEL 1
REMARK VINA RESULT:     -12.5      0.000      0.000
REMARK  Name = 11840906
REMARK  7 active torsions:
REMARK  status: ('A' for Active; 'I' for Inactive)
REMARK    1  A    between atoms: O_1  and  C_3
REMARK    2  A    between atoms: O_1  and  C_18
REMARK    3  A    between atoms: C_5  and  C_9
REMARK    4  A    between atoms: C_18  and  C_19
REMARK    5  A    between atoms: C_19  and  N_20
REMARK    6  A    between atoms: C_19  and  C_24
REMARK    7  A    between atoms: C_24  and  C_26
REMARK                            x       y       z     vdW  Elec       q    Type
REMARK                         _______ _______ _______ _____ _____    ______ ____
ROOT
ATOM      1  O   UNL     1      35.325 -14.907 -23.118  0.00  0.00    -0.476 OA
ENDROOT
BRANCH   1   3
ATOM      2  N   UNL     1      34.238 -18.085 -24.532  0.00  0.00    -0.239 NA
ATOM      3  C   UNL     1      35.051 -16.247 -23.212  0.00  0.00    +0.158 C 
ATOM      4  C   UNL     1      35.294 -17.090 -22.142  0.00  0.00    +0.040 C 
ATOM      5  C   UNL     1      35.005 -18.444 -22.268  0.00  0.00    +0.022 C 
ATOM      6  C   UNL     1      34.531 -16.775 -24.374  0.00  0.00    +0.136 C 
ATOM      7  C   UNL     1      34.484 -18.887 -23.472  0.00  0.00    +0.099 C 
BRANCH   5   9
ATOM      8  N   UNL     1      34.884 -22.766 -17.447  0.00  0.00    -0.242 NA
ATOM      9  C   UNL     1      35.242 -19.359 -21.176  0.00  0.00    +0.002 C 
ATOM     10  C   UNL     1      34.398 -20.990 -19.577  0.00  0.00    +0.003 C 
ATOM     11  C   UNL     1      34.183 -20.098 -20.640  0.00  0.00    +0.000 C 
ATOM     12  C   UNL     1      35.699 -21.134 -19.054  0.00  0.00    +0.019 C 
ATOM     13  C   UNL     1      36.526 -19.505 -20.653  0.00  0.00    +0.000 C 
ATOM     14  C   UNL     1      36.757 -20.387 -19.598  0.00  0.00    +0.002 C 
ATOM     15  C   UNL     1      33.357 -21.744 -19.021  0.00  0.00    +0.021 C 
ATOM     16  C   UNL     1      35.875 -22.030 -17.998  0.00  0.00    +0.099 C 
ATOM     17  C   UNL     1      33.651 -22.604 -17.974  0.00  0.00    +0.099 C 
ENDBRANCH   5   9
ENDBRANCH   1   3
BRANCH   1  18
ATOM     18  C   UNL     1      34.292 -14.076 -22.605  0.00  0.00    +0.184 C 
BRANCH  18  19
ATOM     19  C   UNL     1      33.719 -13.206 -23.728  0.00  0.00    -0.021 C 
BRANCH  19  20
ATOM     20  N   UNL     1      32.356 -13.653 -24.019  0.00  0.00    +0.384 N 
ATOM     21  H   UNL     1      32.240 -14.616 -23.701  0.00  0.00    -0.089 HD
ATOM     22  H   UNL     1      32.189 -13.604 -25.024  0.00  0.00    -0.089 HD
ATOM     23  H   UNL     1      31.690 -13.052 -23.533  0.00  0.00    -0.089 HD
ENDBRANCH  19  20
BRANCH  19  24
ATOM     24  C   UNL     1      33.742 -11.709 -23.350  0.00  0.00    -0.012 C 
BRANCH  24  26
ATOM     25  N   UNL     1      32.023  -8.825 -22.529  0.00  0.00    -0.270 NA
ATOM     26  C   UNL     1      32.379 -11.142 -23.004  0.00  0.00    +0.046 C 
ATOM     27  C   UNL     1      32.160 -10.931 -21.541  0.00  0.00    -0.007 C 
ATOM     28  C   UNL     1      32.258  -9.693 -23.466  0.00  0.00    +0.130 C 
ATOM     29  C   UNL     1      31.955  -9.562 -21.333  0.00  0.00    +0.071 C 
ATOM     30  C   UNL     1      32.131 -11.836 -20.497  0.00  0.00    -0.024 C 
ATOM     31  C   UNL     1      31.721  -9.066 -20.062  0.00  0.00    +0.014 C 
ATOM     32  C   UNL     1      31.896 -11.343 -19.212  0.00  0.00    +0.052 C 
ATOM     33  C   UNL     1      31.693  -9.969 -18.996  0.00  0.00    -0.020 C 
ENDBRANCH  24  26
ENDBRANCH  19  24
ENDBRANCH  18  19
ENDBRANCH   1  18
TORSDOF 7
ENDMDL
MODEL 2
REMARK VINA RESULT:     -12.3      1.376      1.744
REMARK  Name = 11840906
REMARK  7 active torsions:
REMARK  status: ('A' for Active; 'I' for Inactive)
REMARK    1  A    between atoms: O_1  and  C_3
REMARK    2  A    between atoms: O_1  and  C_18
REMARK    3  A    between atoms: C_5  and  C_9
REMARK    4  A    between atoms: C_18  and  C_19
REMARK    5  A    between atoms: C_19  and  N_20
REMARK    6  A    between atoms: C_19  and  C_24
REMARK    7  A    between atoms: C_24  and  C_26
REMARK                            x       y       z     vdW  Elec       q    Type
REMARK                         _______ _______ _______ _____ _____    ______ ____
ROOT
ATOM      1  O   UNL     1      34.522 -13.794 -22.611  0.00  0.00    -0.476 OA
ENDROOT
BRANCH   1   3
ATOM      2  N   UNL     1      34.587 -16.741 -24.756  0.00  0.00    -0.239 NA
ATOM      3  C   UNL     1      34.652 -15.104 -22.994  0.00  0.00    +0.158 C 
ATOM      4  C   UNL     1      34.965 -16.080 -22.065  0.00  0.00    +0.040 C 
ATOM      5  C   UNL     1      35.090 -17.400 -22.485  0.00  0.00    +0.022 C 
ATOM      6  C   UNL     1      34.474 -15.469 -24.311  0.00  0.00    +0.136 C 
ATOM      7  C   UNL     1      34.892 -17.676 -23.827  0.00  0.00    +0.099 C 
BRANCH   5   9
ATOM      8  N   UNL     1      35.364 -22.351 -18.319  0.00  0.00    -0.242 NA
ATOM      9  C   UNL     1      35.414 -18.451 -21.548  0.00  0.00    +0.002 C 
ATOM     10  C   UNL     1      34.707 -20.312 -20.146  0.00  0.00    +0.003 C 
ATOM     11  C   UNL     1      34.407 -19.287 -21.058  0.00  0.00    +0.000 C 
ATOM     12  C   UNL     1      36.042 -20.489 -19.727  0.00  0.00    +0.019 C 
ATOM     13  C   UNL     1      36.732 -18.630 -21.130  0.00  0.00    +0.000 C 
ATOM     14  C   UNL     1      37.047 -19.643 -20.224  0.00  0.00    +0.002 C 
ATOM     15  C   UNL     1      33.720 -21.165 -19.639  0.00  0.00    +0.021 C 
ATOM     16  C   UNL     1      36.303 -21.517 -18.820  0.00  0.00    +0.099 C 
ATOM     17  C   UNL     1      34.097 -22.153 -18.743  0.00  0.00    +0.099 C 
ENDBRANCH   5   9
ENDBRANCH   1   3
BRANCH   1  18
ATOM     18  C   UNL     1      33.413 -13.478 -21.779  0.00  0.00    +0.184 C 
BRANCH  18  19
ATOM     19  C   UNL     1      32.434 -12.577 -22.539  0.00  0.00    -0.021 C 
BRANCH  19  20
ATOM     20  N   UNL     1      31.228 -12.409 -21.728  0.00  0.00    +0.384 N 
ATOM     21  H   UNL     1      31.449 -12.588 -20.748  0.00  0.00    -0.089 HD
ATOM     22  H   UNL     1      30.514 -13.067 -22.041  0.00  0.00    -0.089 HD
ATOM     23  H   UNL     1      30.879 -11.456 -21.830  0.00  0.00    -0.089 HD
ENDBRANCH  19  20
BRANCH  19  24
ATOM     24  C   UNL     1      33.070 -11.211 -22.875  0.00  0.00    -0.012 C 
BRANCH  24  26
ATOM     25  N   UNL     1      32.591  -7.943 -23.897  0.00  0.00    -0.270 NA
ATOM     26  C   UNL     1      32.076 -10.065 -22.922  0.00  0.00    +0.046 C 
ATOM     27  C   UNL     1      32.285  -9.035 -21.860  0.00  0.00    -0.007 C 
ATOM     28  C   UNL     1      32.314  -9.187 -24.146  0.00  0.00    +0.130 C 
ATOM     29  C   UNL     1      32.577  -7.821 -22.496  0.00  0.00    +0.071 C 
ATOM     30  C   UNL     1      32.218  -9.135 -20.484  0.00  0.00    -0.024 C 
ATOM     31  C   UNL     1      32.817  -6.675 -21.757  0.00  0.00    +0.014 C 
ATOM     32  C   UNL     1      32.459  -7.982 -19.733  0.00  0.00    +0.052 C 
ATOM     33  C   UNL     1      32.756  -6.763 -20.364  0.00  0.00    -0.020 C 
ENDBRANCH  24  26
ENDBRANCH  19  24
ENDBRANCH  18  19
ENDBRANCH   1  18
TORSDOF 7
ENDMDL
MODEL 3
REMARK VINA RESULT:     -12.2      1.762      2.696
REMARK  Name = 11840906
REMARK  7 active torsions:
REMARK  status: ('A' for Active; 'I' for Inactive)
REMARK    1  A    between atoms: O_1  and  C_3
REMARK    2  A    between atoms: O_1  and  C_18
REMARK    3  A    between atoms: C_5  and  C_9
REMARK    4  A    between atoms: C_18  and  C_19
REMARK    5  A    between atoms: C_19  and  N_20
REMARK    6  A    between atoms: C_19  and  C_24
REMARK    7  A    between atoms: C_24  and  C_26
REMARK                            x       y       z     vdW  Elec       q    Type
REMARK                         _______ _______ _______ _____ _____    ______ ____
ROOT
ATOM      1  O   UNL     1      34.602 -14.235 -23.131  0.00  0.00    -0.476 OA
ENDROOT
BRANCH   1   3
ATOM      2  N   UNL     1      34.285 -17.436 -24.847  0.00  0.00    -0.239 NA
ATOM      3  C   UNL     1      34.623 -15.590 -23.342  0.00  0.00    +0.158 C 
ATOM      4  C   UNL     1      34.985 -16.454 -22.324  0.00  0.00    +0.040 C 
ATOM      5  C   UNL     1      34.998 -17.823 -22.569  0.00  0.00    +0.022 C 
ATOM      6  C   UNL     1      34.286 -16.112 -24.572  0.00  0.00    +0.136 C 
ATOM      7  C   UNL     1      34.642 -18.258 -23.834  0.00  0.00    +0.099 C 
BRANCH   5   9
ATOM      8  N   UNL     1      35.500 -22.353 -17.969  0.00  0.00    -0.242 NA
ATOM      9  C   UNL     1      35.368 -18.760 -21.534  0.00  0.00    +0.002 C 
ATOM     10  C   UNL     1      34.754 -20.536 -19.986  0.00  0.00    +0.003 C 
ATOM     11  C   UNL     1      34.409 -19.621 -20.994  0.00  0.00    +0.000 C 
ATOM     12  C   UNL     1      36.085 -20.578 -19.524  0.00  0.00    +0.019 C 
ATOM     13  C   UNL     1      36.683 -18.805 -21.072  0.00  0.00    +0.000 C 
ATOM     14  C   UNL     1      37.043 -19.708 -20.072  0.00  0.00    +0.002 C 
ATOM     15  C   UNL     1      33.815 -21.411 -19.427  0.00  0.00    +0.021 C 
ATOM     16  C   UNL     1      36.392 -21.501 -18.522  0.00  0.00    +0.099 C 
ATOM     17  C   UNL     1      34.235 -22.286 -18.437  0.00  0.00    +0.099 C 
ENDBRANCH   5   9
ENDBRANCH   1   3
BRANCH   1  18
ATOM     18  C   UNL     1      33.863 -13.455 -24.061  0.00  0.00    +0.184 C 
BRANCH  18  19
ATOM     19  C   UNL     1      33.191 -12.283 -23.338  0.00  0.00    -0.021 C 
BRANCH  19  20
ATOM     20  N   UNL     1      33.155 -12.577 -21.905  0.00  0.00    +0.384 N 
ATOM     21  H   UNL     1      32.837 -13.536 -21.762  0.00  0.00    -0.089 HD
ATOM     22  H   UNL     1      32.514 -11.933 -21.441  0.00  0.00    -0.089 HD
ATOM     23  H   UNL     1      34.090 -12.467 -21.511  0.00  0.00    -0.089 HD
ENDBRANCH  19  20
BRANCH  19  24
ATOM     24  C   UNL     1      33.927 -10.954 -23.613  0.00  0.00    -0.012 C 
BRANCH  24  26
ATOM     25  N   UNL     1      31.619  -8.409 -23.997  0.00  0.00    -0.270 NA
ATOM     26  C   UNL     1      33.294  -9.750 -22.940  0.00  0.00    +0.046 C 
ATOM     27  C   UNL     1      33.865  -8.440 -23.375  0.00  0.00    -0.007 C 
ATOM     28  C   UNL     1      31.860  -9.549 -23.421  0.00  0.00    +0.130 C 
ATOM     29  C   UNL     1      32.837  -7.706 -23.979  0.00  0.00    +0.071 C 
ATOM     30  C   UNL     1      35.143  -7.931 -23.251  0.00  0.00    -0.024 C 
ATOM     31  C   UNL     1      33.072  -6.437 -24.480  0.00  0.00    +0.014 C 
ATOM     32  C   UNL     1      35.389  -6.652 -23.755  0.00  0.00    +0.052 C 
ATOM     33  C   UNL     1      34.362  -5.911 -24.365  0.00  0.00    -0.020 C 
ENDBRANCH  24  26
ENDBRANCH  19  24
ENDBRANCH  18  19
ENDBRANCH   1  18
TORSDOF 7
ENDMDL
MODEL 4
REMARK VINA RESULT:     -11.9      1.570      9.886
REMARK  Name = 11840906
REMARK  7 active torsions:
REMARK  status: ('A' for Active; 'I' for Inactive)
REMARK    1  A    between atoms: O_1  and  C_3
REMARK    2  A    between atoms: O_1  and  C_18
REMARK    3  A    between atoms: C_5  and  C_9
REMARK    4  A    between atoms: C_18  and  C_19
REMARK    5  A    between atoms: C_19  and  N_20
REMARK    6  A    between atoms: C_19  and  C_24
REMARK    7  A    between atoms: C_24  and  C_26
REMARK                            x       y       z     vdW  Elec       q    Type
REMARK                         _______ _______ _______ _____ _____    ______ ____
ROOT
ATOM      1  O   UNL     1      35.617 -17.536 -22.272  0.00  0.00    -0.476 OA
ENDROOT
BRANCH   1   3
ATOM      2  N   UNL     1      33.899 -16.358 -25.264  0.00  0.00    -0.239 NA
ATOM      3  C   UNL     1      34.923 -16.706 -23.115  0.00  0.00    +0.158 C 
ATOM      4  C   UNL     1      34.554 -15.438 -22.706  0.00  0.00    +0.040 C 
ATOM      5  C   UNL     1      33.850 -14.620 -23.583  0.00  0.00    +0.022 C 
ATOM      6  C   UNL     1      34.582 -17.124 -24.384  0.00  0.00    +0.136 C 
ATOM      7  C   UNL     1      33.551 -15.123 -24.839  0.00  0.00    +0.099 C 
BRANCH   5   9
ATOM      8  N   UNL     1      31.503  -9.203 -20.922  0.00  0.00    -0.242 NA
ATOM      9  C   UNL     1      33.446 -13.289 -23.197  0.00  0.00    +0.002 C 
ATOM     10  C   UNL     1      32.282 -11.808 -21.654  0.00  0.00    +0.003 C 
ATOM     11  C   UNL     1      32.683 -13.097 -22.041  0.00  0.00    +0.000 C 
ATOM     12  C   UNL     1      32.657 -10.705 -22.446  0.00  0.00    +0.019 C 
ATOM     13  C   UNL     1      33.813 -12.194 -23.978  0.00  0.00    +0.000 C 
ATOM     14  C   UNL     1      33.423 -10.907 -23.607  0.00  0.00    +0.002 C 
ATOM     15  C   UNL     1      31.518 -11.585 -20.501  0.00  0.00    +0.021 C 
ATOM     16  C   UNL     1      32.241  -9.439 -22.030  0.00  0.00    +0.099 C 
ATOM     17  C   UNL     1      31.163 -10.283 -20.186  0.00  0.00    +0.099 C 
ENDBRANCH   5   9
ENDBRANCH   1   3
BRANCH   1  18
ATOM     18  C   UNL     1      35.281 -18.917 -22.313  0.00  0.00    +0.184 C 
BRANCH  18  19
ATOM     19  C   UNL     1      35.821 -19.619 -21.063  0.00  0.00    -0.021 C 
BRANCH  19  20
ATOM     20  N   UNL     1      36.757 -18.720 -20.388  0.00  0.00    +0.384 N 
ATOM     21  H   UNL     1      36.240 -18.091 -19.772  0.00  0.00    -0.089 HD
ATOM     22  H   UNL     1      37.265 -18.173 -21.083  0.00  0.00    -0.089 HD
ATOM     23  H   UNL     1      37.418 -19.268 -19.837  0.00  0.00    -0.089 HD
ENDBRANCH  19  20
BRANCH  19  24
ATOM     24  C   UNL     1      34.677 -20.041 -20.116  0.00  0.00    -0.012 C 
BRANCH  24  26
ATOM     25  N   UNL     1      33.082 -22.504 -18.289  0.00  0.00    -0.270 NA
ATOM     26  C   UNL     1      34.676 -21.519 -19.774  0.00  0.00    +0.046 C 
ATOM     27  C   UNL     1      35.309 -21.840 -18.459  0.00  0.00    -0.007 C 
ATOM     28  C   UNL     1      33.263 -22.009 -19.476  0.00  0.00    +0.130 C 
ATOM     29  C   UNL     1      34.327 -22.415 -17.642  0.00  0.00    +0.071 C 
ATOM     30  C   UNL     1      36.606 -21.663 -18.018  0.00  0.00    -0.024 C 
ATOM     31  C   UNL     1      34.627 -22.821 -16.353  0.00  0.00    +0.014 C 
ATOM     32  C   UNL     1      36.916 -22.070 -16.718  0.00  0.00    +0.052 C 
ATOM     33  C   UNL     1      35.934 -22.643 -15.893  0.00  0.00    -0.020 C 
ENDBRANCH  24  26
ENDBRANCH  19  24
ENDBRANCH  18  19
ENDBRANCH   1  18
TORSDOF 7
ENDMDL
MODEL 5
REMARK VINA RESULT:     -11.7      3.273     10.841
REMARK  Name = 11840906
REMARK  7 active torsions:
REMARK  status: ('A' for Active; 'I' for Inactive)
REMARK    1  A    between atoms: O_1  and  C_3
REMARK    2  A    between atoms: O_1  and  C_18
REMARK    3  A    between atoms: C_5  and  C_9
REMARK    4  A    between atoms: C_18  and  C_19
REMARK    5  A    between atoms: C_19  and  N_20
REMARK    6  A    between atoms: C_19  and  C_24
REMARK    7  A    between atoms: C_24  and  C_26
REMARK                            x       y       z     vdW  Elec       q    Type
REMARK                         _______ _______ _______ _____ _____    ______ ____
ROOT
ATOM      1  O   UNL     1      34.822 -21.877 -19.534  0.00  0.00    -0.476 OA
ENDROOT
BRANCH   1   3
ATOM      2  N   UNL     1      37.523 -19.456 -19.890  0.00  0.00    -0.239 NA
ATOM      3  C   UNL     1      35.519 -20.783 -19.978  0.00  0.00    +0.158 C 
ATOM      4  C   UNL     1      34.966 -19.932 -20.917  0.00  0.00    +0.040 C 
ATOM      5  C   UNL     1      35.698 -18.831 -21.348  0.00  0.00    +0.022 C 
ATOM      6  C   UNL     1      36.782 -20.516 -19.496  0.00  0.00    +0.136 C 
ATOM      7  C   UNL     1      36.959 -18.639 -20.808  0.00  0.00    +0.099 C 
BRANCH   5   9
ATOM      8  N   UNL     1      33.510 -13.882 -24.906  0.00  0.00    -0.242 NA
ATOM      9  C   UNL     1      35.159 -17.916 -22.326  0.00  0.00    +0.002 C 
ATOM     10  C   UNL     1      34.567 -15.647 -22.984  0.00  0.00    +0.003 C 
ATOM     11  C   UNL     1      35.091 -16.549 -22.043  0.00  0.00    +0.000 C 
ATOM     12  C   UNL     1      34.110 -16.138 -24.224  0.00  0.00    +0.019 C 
ATOM     13  C   UNL     1      34.704 -18.395 -23.554  0.00  0.00    +0.000 C 
ATOM     14  C   UNL     1      34.181 -17.513 -24.500  0.00  0.00    +0.002 C 
ATOM     15  C   UNL     1      34.487 -14.273 -22.728  0.00  0.00    +0.021 C 
ATOM     16  C   UNL     1      33.597 -15.212 -25.134  0.00  0.00    +0.099 C 
ATOM     17  C   UNL     1      33.959 -13.448 -23.709  0.00  0.00    +0.099 C 
ENDBRANCH   5   9
ENDBRANCH   1   3
BRANCH   1  18
ATOM     18  C   UNL     1      35.061 -22.289 -18.194  0.00  0.00    +0.184 C 
BRANCH  18  19
ATOM     19  C   UNL     1      33.741 -22.318 -17.416  0.00  0.00    -0.021 C 
BRANCH  19  20
ATOM     20  N   UNL     1      32.640 -22.457 -18.369  0.00  0.00    +0.384 N 
ATOM     21  H   UNL     1      32.595 -23.422 -18.699  0.00  0.00    -0.089 HD
ATOM     22  H   UNL     1      32.794 -21.835 -19.162  0.00  0.00    -0.089 HD
ATOM     23  H   UNL     1      31.761 -22.214 -17.912  0.00  0.00    -0.089 HD
ENDBRANCH  19  20
BRANCH  19  24
ATOM     24  C   UNL     1      33.724 -23.460 -16.378  0.00  0.00    -0.012 C 
BRANCH  24  26
ATOM     25  N   UNL     1      32.964 -24.570 -13.194  0.00  0.00    -0.270 NA
ATOM     26  C   UNL     1      33.038 -23.096 -15.075  0.00  0.00    +0.046 C 
ATOM     27  C   UNL     1      31.673 -23.684 -14.920  0.00  0.00    -0.007 C 
ATOM     28  C   UNL     1      33.719 -23.776 -13.892  0.00  0.00    +0.130 C 
ATOM     29  C   UNL     1      31.698 -24.530 -13.804  0.00  0.00    +0.071 C 
ATOM     30  C   UNL     1      30.524 -23.498 -15.664  0.00  0.00    -0.024 C 
ATOM     31  C   UNL     1      30.562 -25.217 -13.411  0.00  0.00    +0.014 C 
ATOM     32  C   UNL     1      29.374 -24.188 -15.273  0.00  0.00    +0.052 C 
ATOM     33  C   UNL     1      29.394 -25.041 -14.157  0.00  0.00    -0.020 C 
ENDBRANCH  24  26
ENDBRANCH  19  24
ENDBRANCH  18  19
ENDBRANCH   1  18
TORSDOF 7
ENDMDL
MODEL 6
REMARK VINA RESULT:     -11.4      2.768     11.199
REMARK  Name = 11840906
REMARK  7 active torsions:
REMARK  status: ('A' for Active; 'I' for Inactive)
REMARK    1  A    between atoms: O_1  and  C_3
REMARK    2  A    between atoms: O_1  and  C_18
REMARK    3  A    between atoms: C_5  and  C_9
REMARK    4  A    between atoms: C_18  and  C_19
REMARK    5  A    between atoms: C_19  and  N_20
REMARK    6  A    between atoms: C_19  and  C_24
REMARK    7  A    between atoms: C_24  and  C_26
REMARK                            x       y       z     vdW  Elec       q    Type
REMARK                         _______ _______ _______ _____ _____    ______ ____
ROOT
ATOM      1  O   UNL     1      32.159 -13.181 -21.445  0.00  0.00    -0.476 OA
ENDROOT
BRANCH   1   3
ATOM      2  N   UNL     1      31.954 -10.616 -18.864  0.00  0.00    -0.239 NA
ATOM      3  C   UNL     1      32.021 -11.946 -20.867  0.00  0.00    +0.158 C 
ATOM      4  C   UNL     1      31.818 -10.823 -21.649  0.00  0.00    +0.040 C 
ATOM      5  C   UNL     1      31.681  -9.584 -21.033  0.00  0.00    +0.022 C 
ATOM      6  C   UNL     1      32.083 -11.803 -19.497  0.00  0.00    +0.136 C 
ATOM      7  C   UNL     1      31.755  -9.534 -19.651  0.00  0.00    +0.099 C 
BRANCH   5   9
ATOM      8  N   UNL     1      31.037  -3.637 -23.515  0.00  0.00    -0.242 NA
ATOM      9  C   UNL     1      31.466  -8.386 -21.811  0.00  0.00    +0.002 C 
ATOM     10  C   UNL     1      31.463  -5.957 -21.978  0.00  0.00    +0.003 C 
ATOM     11  C   UNL     1      31.669  -7.130 -21.233  0.00  0.00    +0.000 C 
ATOM     12  C   UNL     1      31.048  -6.060 -23.321  0.00  0.00    +0.019 C 
ATOM     13  C   UNL     1      31.054  -8.482 -23.140  0.00  0.00    +0.000 C 
ATOM     14  C   UNL     1      30.845  -7.327 -23.893  0.00  0.00    +0.002 C 
ATOM     15  C   UNL     1      31.660  -4.685 -21.425  0.00  0.00    +0.021 C 
ATOM     16  C   UNL     1      30.854  -4.874 -24.030  0.00  0.00    +0.099 C 
ATOM     17  C   UNL     1      31.436  -3.576 -22.226  0.00  0.00    +0.099 C 
ENDBRANCH   5   9
ENDBRANCH   1   3
BRANCH   1  18
ATOM     18  C   UNL     1      32.179 -13.224 -22.866  0.00  0.00    +0.184 C 
BRANCH  18  19
ATOM     19  C   UNL     1      33.584 -13.593 -23.354  0.00  0.00    -0.021 C 
BRANCH  19  20
ATOM     20  N   UNL     1      34.393 -12.375 -23.414  0.00  0.00    +0.384 N 
ATOM     21  H   UNL     1      34.689 -12.117 -22.472  0.00  0.00    -0.089 HD
ATOM     22  H   UNL     1      33.839 -11.618 -23.815  0.00  0.00    -0.089 HD
ATOM     23  H   UNL     1      35.214 -12.540 -23.996  0.00  0.00    -0.089 HD
ENDBRANCH  19  20
BRANCH  19  24
ATOM     24  C   UNL     1      34.240 -14.649 -22.440  0.00  0.00    -0.012 C 
BRANCH  24  26
ATOM     25  N   UNL     1      34.297 -17.215 -24.755  0.00  0.00    -0.270 NA
ATOM     26  C   UNL     1      35.136 -15.628 -23.176  0.00  0.00    +0.046 C 
ATOM     27  C   UNL     1      35.142 -17.004 -22.593  0.00  0.00    -0.007 C 
ATOM     28  C   UNL     1      34.566 -15.961 -24.551  0.00  0.00    +0.130 C 
ATOM     29  C   UNL     1      34.645 -17.880 -23.566  0.00  0.00    +0.071 C 
ATOM     30  C   UNL     1      35.546 -17.453 -21.351  0.00  0.00    -0.024 C 
ATOM     31  C   UNL     1      34.537 -19.236 -23.308  0.00  0.00    +0.014 C 
ATOM     32  C   UNL     1      35.439 -18.819 -21.084  0.00  0.00    +0.052 C 
ATOM     33  C   UNL     1      34.939 -19.703 -22.054  0.00  0.00    -0.020 C 
ENDBRANCH  24  26
ENDBRANCH  19  24
ENDBRANCH  18  19
ENDBRANCH   1  18
TORSDOF 7
ENDMDL
MODEL 7
REMARK VINA RESULT:     -11.3      3.328     11.010
REMARK  Name = 11840906
REMARK  7 active torsions:
REMARK  status: ('A' for Active; 'I' for Inactive)
REMARK    1  A    between atoms: O_1  and  C_3
REMARK    2  A    between atoms: O_1  and  C_18
REMARK    3  A    between atoms: C_5  and  C_9
REMARK    4  A    between atoms: C_18  and  C_19
REMARK    5  A    between atoms: C_19  and  N_20
REMARK    6  A    between atoms: C_19  and  C_24
REMARK    7  A    between atoms: C_24  and  C_26
REMARK                            x       y       z     vdW  Elec       q    Type
REMARK                         _______ _______ _______ _____ _____    ______ ____
ROOT
ATOM      1  O   UNL     1      34.279 -21.529 -19.508  0.00  0.00    -0.476 OA
ENDROOT
BRANCH   1   3
ATOM      2  N   UNL     1      37.340 -19.607 -19.979  0.00  0.00    -0.239 NA
ATOM      3  C   UNL     1      35.129 -20.555 -19.963  0.00  0.00    +0.158 C 
ATOM      4  C   UNL     1      34.676 -19.574 -20.826  0.00  0.00    +0.040 C 
ATOM      5  C   UNL     1      35.562 -18.599 -21.270  0.00  0.00    +0.022 C 
ATOM      6  C   UNL     1      36.450 -20.538 -19.568  0.00  0.00    +0.136 C 
ATOM      7  C   UNL     1      36.871 -18.659 -20.821  0.00  0.00    +0.099 C 
BRANCH   5   9
ATOM      8  N   UNL     1      33.732 -13.202 -24.347  0.00  0.00    -0.242 NA
ATOM      9  C   UNL     1      35.130 -17.556 -22.171  0.00  0.00    +0.002 C 
ATOM     10  C   UNL     1      34.577 -15.219 -22.573  0.00  0.00    +0.003 C 
ATOM     11  C   UNL     1      34.998 -16.243 -21.709  0.00  0.00    +0.000 C 
ATOM     12  C   UNL     1      34.290 -15.530 -23.918  0.00  0.00    +0.019 C 
ATOM     13  C   UNL     1      34.844 -17.858 -23.501  0.00  0.00    +0.000 C 
ATOM     14  C   UNL     1      34.425 -16.852 -24.373  0.00  0.00    +0.002 C 
ATOM     15  C   UNL     1      34.436 -13.895 -22.139  0.00  0.00    +0.021 C 
ATOM     16  C   UNL     1      33.875 -14.486 -24.747  0.00  0.00    +0.099 C 
ATOM     17  C   UNL     1      34.017 -12.941 -23.053  0.00  0.00    +0.099 C 
ENDBRANCH   5   9
ENDBRANCH   1   3
BRANCH   1  18
ATOM     18  C   UNL     1      34.815 -22.463 -18.579  0.00  0.00    +0.184 C 
BRANCH  18  19
ATOM     19  C   UNL     1      33.983 -22.452 -17.293  0.00  0.00    -0.021 C 
BRANCH  19  20
ATOM     20  N   UNL     1      32.617 -22.867 -17.616  0.00  0.00    +0.384 N 
ATOM     21  H   UNL     1      32.385 -23.711 -17.091  0.00  0.00    -0.089 HD
ATOM     22  H   UNL     1      32.547 -23.058 -18.615  0.00  0.00    -0.089 HD
ATOM     23  H   UNL     1      31.967 -22.121 -17.366  0.00  0.00    -0.089 HD
ENDBRANCH  19  20
BRANCH  19  24
ATOM     24  C   UNL     1      34.599 -23.368 -16.214  0.00  0.00    -0.012 C 
BRANCH  24  26
ATOM     25  N   UNL     1      37.738 -22.985 -14.818  0.00  0.00    -0.270 NA
ATOM     26  C   UNL     1      35.399 -22.626 -15.161  0.00  0.00    +0.046 C 
ATOM     27  C   UNL     1      35.634 -23.409 -13.910  0.00  0.00    -0.007 C 
ATOM     28  C   UNL     1      36.849 -22.451 -15.600  0.00  0.00    +0.130 C 
ATOM     29  C   UNL     1      37.017 -23.580 -13.768  0.00  0.00    +0.071 C 
ATOM     30  C   UNL     1      34.742 -23.914 -12.984  0.00  0.00    -0.024 C 
ATOM     31  C   UNL     1      37.538 -24.272 -12.688  0.00  0.00    +0.014 C 
ATOM     32  C   UNL     1      35.260 -24.613 -11.892  0.00  0.00    +0.052 C 
ATOM     33  C   UNL     1      36.645 -24.791 -11.745  0.00  0.00    -0.020 C 
ENDBRANCH  24  26
ENDBRANCH  19  24
ENDBRANCH  18  19
ENDBRANCH   1  18
TORSDOF 7
ENDMDL
MODEL 8
REMARK VINA RESULT:     -11.2      3.571      7.002
REMARK  Name = 11840906
REMARK  7 active torsions:
REMARK  status: ('A' for Active; 'I' for Inactive)
REMARK    1  A    between atoms: O_1  and  C_3
REMARK    2  A    between atoms: O_1  and  C_18
REMARK    3  A    between atoms: C_5  and  C_9
REMARK    4  A    between atoms: C_18  and  C_19
REMARK    5  A    between atoms: C_19  and  N_20
REMARK    6  A    between atoms: C_19  and  C_24
REMARK    7  A    between atoms: C_24  and  C_26
REMARK                            x       y       z     vdW  Elec       q    Type
REMARK                         _______ _______ _______ _____ _____    ______ ____
ROOT
ATOM      1  O   UNL     1      35.839 -21.135 -19.703  0.00  0.00    -0.476 OA
ENDROOT
BRANCH   1   3
ATOM      2  N   UNL     1      32.681 -22.392 -18.386  0.00  0.00    -0.239 NA
ATOM      3  C   UNL     1      34.946 -21.725 -18.846  0.00  0.00    +0.158 C 
ATOM      4  C   UNL     1      35.369 -22.231 -17.630  0.00  0.00    +0.040 C 
ATOM      5  C   UNL     1      34.439 -22.824 -16.783  0.00  0.00    +0.022 C 
ATOM      6  C   UNL     1      33.613 -21.823 -19.183  0.00  0.00    +0.136 C 
ATOM      7  C   UNL     1      33.120 -22.878 -17.203  0.00  0.00    +0.099 C 
BRANCH   5   9
ATOM      8  N   UNL     1      37.337 -25.217 -11.509  0.00  0.00    -0.242 NA
ATOM      9  C   UNL     1      34.837 -23.365 -15.504  0.00  0.00    +0.002 C 
ATOM     10  C   UNL     1      36.585 -24.161 -14.008  0.00  0.00    +0.003 C 
ATOM     11  C   UNL     1      36.184 -23.634 -15.247  0.00  0.00    +0.000 C 
ATOM     12  C   UNL     1      35.611 -24.417 -13.023  0.00  0.00    +0.019 C 
ATOM     13  C   UNL     1      33.877 -23.620 -14.525  0.00  0.00    +0.000 C 
ATOM     14  C   UNL     1      34.259 -24.143 -13.290  0.00  0.00    +0.002 C 
ATOM     15  C   UNL     1      37.927 -24.441 -13.722  0.00  0.00    +0.021 C 
ATOM     16  C   UNL     1      36.047 -24.940 -11.804  0.00  0.00    +0.099 C 
ATOM     17  C   UNL     1      38.243 -24.959 -12.476  0.00  0.00    +0.099 C 
ENDBRANCH   5   9
ENDBRANCH   1   3
BRANCH   1  18
ATOM     18  C   UNL     1      35.314 -20.183 -20.619  0.00  0.00    +0.184 C 
BRANCH  18  19
ATOM     19  C   UNL     1      36.262 -18.984 -20.723  0.00  0.00    -0.021 C 
BRANCH  19  20
ATOM     20  N   UNL     1      37.612 -19.422 -20.365  0.00  0.00    +0.384 N 
ATOM     21  H   UNL     1      38.177 -19.508 -21.210  0.00  0.00    -0.089 HD
ATOM     22  H   UNL     1      37.562 -20.327 -19.896  0.00  0.00    -0.089 HD
ATOM     23  H   UNL     1      38.036 -18.738 -19.739  0.00  0.00    -0.089 HD
ENDBRANCH  19  20
BRANCH  19  24
ATOM     24  C   UNL     1      36.238 -18.367 -22.138  0.00  0.00    -0.012 C 
BRANCH  24  26
ATOM     25  N   UNL     1      34.695 -16.167 -24.312  0.00  0.00    -0.270 NA
ATOM     26  C   UNL     1      34.919 -17.712 -22.500  0.00  0.00    +0.046 C 
ATOM     27  C   UNL     1      34.772 -16.316 -21.987  0.00  0.00    -0.007 C 
ATOM     28  C   UNL     1      34.849 -17.417 -23.995  0.00  0.00    +0.130 C 
ATOM     29  C   UNL     1      34.642 -15.467 -23.093  0.00  0.00    +0.071 C 
ATOM     30  C   UNL     1      34.744 -15.831 -20.694  0.00  0.00    -0.024 C 
ATOM     31  C   UNL     1      34.485 -14.101 -22.924  0.00  0.00    +0.014 C 
ATOM     32  C   UNL     1      34.586 -14.455 -20.515  0.00  0.00    +0.052 C 
ATOM     33  C   UNL     1      34.459 -13.598 -21.620  0.00  0.00    -0.020 C 
ENDBRANCH  24  26
ENDBRANCH  19  24
ENDBRANCH  18  19
ENDBRANCH   1  18
TORSDOF 7
ENDMDL
MODEL 9
REMARK VINA RESULT:     -11.2      3.847     11.628
REMARK  Name = 11840906
REMARK  7 active torsions:
REMARK  status: ('A' for Active; 'I' for Inactive)
REMARK    1  A    between atoms: O_1  and  C_3
REMARK    2  A    between atoms: O_1  and  C_18
REMARK    3  A    between atoms: C_5  and  C_9
REMARK    4  A    between atoms: C_18  and  C_19
REMARK    5  A    between atoms: C_19  and  N_20
REMARK    6  A    between atoms: C_19  and  C_24
REMARK    7  A    between atoms: C_24  and  C_26
REMARK                            x       y       z     vdW  Elec       q    Type
REMARK                         _______ _______ _______ _____ _____    ______ ____
ROOT
ATOM      1  O   UNL     1      33.150 -22.565 -18.275  0.00  0.00    -0.476 OA
ENDROOT
BRANCH   1   3
ATOM      2  N   UNL     1      36.582 -21.418 -18.719  0.00  0.00    -0.239 NA
ATOM      3  C   UNL     1      34.219 -21.867 -18.775  0.00  0.00    +0.158 C 
ATOM      4  C   UNL     1      34.044 -20.948 -19.794  0.00  0.00    +0.040 C 
ATOM      5  C   UNL     1      35.147 -20.256 -20.280  0.00  0.00    +0.022 C 
ATOM      6  C   UNL     1      35.486 -22.072 -18.272  0.00  0.00    +0.136 C 
ATOM      7  C   UNL     1      36.382 -20.525 -19.714  0.00  0.00    +0.099 C 
BRANCH   5   9
ATOM      8  N   UNL     1      34.616 -15.096 -24.157  0.00  0.00    -0.242 NA
ATOM      9  C   UNL     1      35.009 -19.287 -21.342  0.00  0.00    +0.002 C 
ATOM     10  C   UNL     1      34.890 -16.967 -22.071  0.00  0.00    +0.003 C 
ATOM     11  C   UNL     1      35.025 -17.920 -21.049  0.00  0.00    +0.000 C 
ATOM     12  C   UNL     1      34.737 -17.404 -23.402  0.00  0.00    +0.019 C 
ATOM     13  C   UNL     1      34.856 -19.714 -22.660  0.00  0.00    +0.000 C 
ATOM     14  C   UNL     1      34.720 -18.779 -23.687  0.00  0.00    +0.002 C 
ATOM     15  C   UNL     1      34.904 -15.591 -21.807  0.00  0.00    +0.021 C 
ATOM     16  C   UNL     1      34.606 -16.428 -24.391  0.00  0.00    +0.099 C 
ATOM     17  C   UNL     1      34.766 -14.714 -22.870  0.00  0.00    +0.099 C 
ENDBRANCH   5   9
ENDBRANCH   1   3
BRANCH   1  18
ATOM     18  C   UNL     1      33.433 -23.544 -17.284  0.00  0.00    +0.184 C 
BRANCH  18  19
ATOM     19  C   UNL     1      32.977 -23.040 -15.911  0.00  0.00    -0.021 C 
BRANCH  19  20
ATOM     20  N   UNL     1      31.875 -23.883 -15.445  0.00  0.00    +0.384 N 
ATOM     21  H   UNL     1      31.846 -24.740 -15.997  0.00  0.00    -0.089 HD
ATOM     22  H   UNL     1      30.994 -23.380 -15.551  0.00  0.00    -0.089 HD
ATOM     23  H   UNL     1      32.017 -24.116 -14.462  0.00  0.00    -0.089 HD
ENDBRANCH  19  20
BRANCH  19  24
ATOM     24  C   UNL     1      34.140 -23.038 -14.896  0.00  0.00    -0.012 C 
BRANCH  24  26
ATOM     25  N   UNL     1      34.685 -24.513 -11.817  0.00  0.00    -0.270 NA
ATOM     26  C   UNL     1      34.331 -24.361 -14.177  0.00  0.00    +0.046 C 
ATOM     27  C   UNL     1      35.758 -24.690 -13.879  0.00  0.00    -0.007 C 
ATOM     28  C   UNL     1      33.807 -24.285 -12.747  0.00  0.00    +0.130 C 
ATOM     29  C   UNL     1      35.895 -24.768 -12.487  0.00  0.00    +0.071 C 
ATOM     30  C   UNL     1      36.826 -24.911 -14.726  0.00  0.00    -0.024 C 
ATOM     31  C   UNL     1      37.118 -25.066 -11.911  0.00  0.00    +0.014 C 
ATOM     32  C   UNL     1      38.064 -25.211 -14.152  0.00  0.00    +0.052 C 
ATOM     33  C   UNL     1      38.208 -25.287 -12.757  0.00  0.00    -0.020 C 
ENDBRANCH  24  26
ENDBRANCH  19  24
ENDBRANCH  18  19
ENDBRANCH   1  18
TORSDOF 7
ENDMDL
