MODEL 1
REMARK VINA RESULT:     -11.3      0.000      0.000
REMARK  Name = 11711595
REMARK  10 active torsions:
REMARK  status: ('A' for Active; 'I' for Inactive)
REMARK    1  A    between atoms: C_1  and  C_9
REMARK    2  A    between atoms: C_3  and  C_17
REMARK    3  A    between atoms: C_5  and  O_7
REMARK    4  A    between atoms: C_9  and  C_10
REMARK    5  A    between atoms: C_10  and  C_12
REMARK    6  A    between atoms: C_10  and  C_15
REMARK    7  A    between atoms: C_12  and  O_13
REMARK    8  A    between atoms: C_17  and  N_19
REMARK    9  A    between atoms: C_20  and  C_23
REMARK   10  A    between atoms: C_26  and  C_32
REMARK                            x       y       z     vdW  Elec       q    Type
REMARK                         _______ _______ _______ _____ _____    ______ ____
ROOT
ATOM      1  C   UNL     1      35.137 -24.175 -14.245  0.00  0.00    -0.022 C 
ATOM      2  C   UNL     1      34.401 -23.849 -15.385  0.00  0.00    -0.004 C 
ATOM      3  C   UNL     1      33.029 -23.619 -15.287  0.00  0.00    +0.031 C 
ATOM      4  C   UNL     1      34.500 -24.270 -13.008  0.00  0.00    -0.001 C 
ATOM      5  C   UNL     1      32.392 -23.714 -14.049  0.00  0.00    +0.136 C 
ATOM      6  C   UNL     1      33.127 -24.040 -12.910  0.00  0.00    +0.036 C 
ENDROOT
BRANCH   5   7
ATOM      7  O   UNL     1      31.053 -23.492 -13.936  0.00  0.00    -0.472 OA
ATOM      8  C   UNL     1      30.208 -24.641 -13.884  0.00  0.00    +0.252 C 
ENDBRANCH   5   7
BRANCH   1   9
ATOM      9  C   UNL     1      36.623 -24.425 -14.351  0.00  0.00    +0.037 C 
BRANCH   9  10
ATOM     10  C   UNL     1      37.084 -25.679 -13.585  0.00  0.00    +0.103 C 
BRANCH  10  12
ATOM     11  O   UNL     1      36.746 -27.144 -15.501  0.00  0.00    -0.250 OA
ATOM     12  C   UNL     1      37.460 -26.770 -14.578  0.00  0.00    +0.314 C 
BRANCH  12  13
ATOM     13  O   UNL     1      38.698 -27.280 -14.352  0.00  0.00    -0.480 OA
ATOM     14  H   UNL     1      38.791 -28.137 -13.986  0.00  0.00    +0.295 HD
ENDBRANCH  12  13
ENDBRANCH  10  12
BRANCH  10  15
ATOM     15  C   UNL     1      38.288 -25.341 -12.687  0.00  0.00    +0.011 C 
ATOM     16  C   UNL     1      37.950 -24.313 -11.615  0.00  0.00    +0.001 C 
ENDBRANCH  10  15
ENDBRANCH   9  10
ENDBRANCH   1   9
BRANCH   3  17
ATOM     17  C   UNL     1      32.258 -23.271 -16.517  0.00  0.00    +0.120 C 
BRANCH  17  19
ATOM     18  O   UNL     1      33.844 -23.918 -18.821  0.00  0.00    -0.270 OA
ATOM     19  N   UNL     1      32.966 -22.344 -17.361  0.00  0.00    -0.297 N 
ATOM     20  C   UNL     1      33.712 -22.752 -18.459  0.00  0.00    +0.248 C 
ATOM     21  H   UNL     1      32.920 -21.383 -17.151  0.00  0.00    +0.150 HD
BRANCH  20  23
ATOM     22  F   UNL     1      32.337 -20.886 -20.074  0.00  0.00    -0.204 F 
ATOM     23  C   UNL     1      34.405 -21.675 -19.212  0.00  0.00    +0.081 C 
ATOM     24  C   UNL     1      33.672 -20.783 -19.993  0.00  0.00    +0.144 C 
ATOM     25  C   UNL     1      35.793 -21.558 -19.136  0.00  0.00    +0.007 C 
ATOM     26  C   UNL     1      35.713 -19.655 -20.622  0.00  0.00    +0.074 C 
ATOM     27  C   UNL     1      34.325 -19.772 -20.698  0.00  0.00    +0.034 C 
ATOM     28  C   UNL     1      36.447 -20.548 -19.842  0.00  0.00    +0.004 C 
BRANCH  26  32
ATOM     29  F   UNL     1      37.770 -18.590 -21.223  0.00  0.00    -0.166 F 
ATOM     30  F   UNL     1      36.205 -18.627 -22.725  0.00  0.00    -0.166 F 
ATOM     31  F   UNL     1      36.014 -17.326 -20.993  0.00  0.00    -0.166 F 
ATOM     32  C   UNL     1      36.412 -18.574 -21.376  0.00  0.00    +0.419 C 
ENDBRANCH  26  32
ENDBRANCH  20  23
ENDBRANCH  17  19
ENDBRANCH   3  17
TORSDOF 10
ENDMDL
MODEL 2
REMARK VINA RESULT:     -11.3      0.867      1.235
REMARK  Name = 11711595
REMARK  10 active torsions:
REMARK  status: ('A' for Active; 'I' for Inactive)
REMARK    1  A    between atoms: C_1  and  C_9
REMARK    2  A    between atoms: C_3  and  C_17
REMARK    3  A    between atoms: C_5  and  O_7
REMARK    4  A    between atoms: C_9  and  C_10
REMARK    5  A    between atoms: C_10  and  C_12
REMARK    6  A    between atoms: C_10  and  C_15
REMARK    7  A    between atoms: C_12  and  O_13
REMARK    8  A    between atoms: C_17  and  N_19
REMARK    9  A    between atoms: C_20  and  C_23
REMARK   10  A    between atoms: C_26  and  C_32
REMARK                            x       y       z     vdW  Elec       q    Type
REMARK                         _______ _______ _______ _____ _____    ______ ____
ROOT
ATOM      1  C   UNL     1      34.989 -24.048 -14.359  0.00  0.00    -0.022 C 
ATOM      2  C   UNL     1      34.264 -23.735 -15.510  0.00  0.00    -0.004 C 
ATOM      3  C   UNL     1      32.888 -23.520 -15.431  0.00  0.00    +0.031 C 
ATOM      4  C   UNL     1      34.337 -24.146 -13.131  0.00  0.00    -0.001 C 
ATOM      5  C   UNL     1      32.236 -23.618 -14.201  0.00  0.00    +0.136 C 
ATOM      6  C   UNL     1      32.960 -23.931 -13.051  0.00  0.00    +0.036 C 
ENDROOT
BRANCH   5   7
ATOM      7  O   UNL     1      30.893 -23.412 -14.106  0.00  0.00    -0.472 OA
ATOM      8  C   UNL     1      30.090 -24.534 -13.743  0.00  0.00    +0.252 C 
ENDBRANCH   5   7
BRANCH   1   9
ATOM      9  C   UNL     1      36.479 -24.280 -14.445  0.00  0.00    +0.037 C 
BRANCH   9  10
ATOM     10  C   UNL     1      36.948 -25.509 -13.645  0.00  0.00    +0.103 C 
BRANCH  10  12
ATOM     11  O   UNL     1      36.455 -26.991 -15.514  0.00  0.00    -0.250 OA
ATOM     12  C   UNL     1      37.203 -26.668 -14.599  0.00  0.00    +0.314 C 
BRANCH  12  13
ATOM     13  O   UNL     1      38.374 -27.307 -14.347  0.00  0.00    -0.480 OA
ATOM     14  H   UNL     1      39.182 -26.944 -14.653  0.00  0.00    +0.295 HD
ENDBRANCH  12  13
ENDBRANCH  10  12
BRANCH  10  15
ATOM     15  C   UNL     1      38.232 -25.176 -12.862  0.00  0.00    +0.011 C 
ATOM     16  C   UNL     1      37.967 -24.287 -11.653  0.00  0.00    +0.001 C 
ENDBRANCH  10  15
ENDBRANCH   9  10
ENDBRANCH   1   9
BRANCH   3  17
ATOM     17  C   UNL     1      32.129 -23.186 -16.672  0.00  0.00    +0.120 C 
BRANCH  17  19
ATOM     18  O   UNL     1      33.789 -23.810 -18.930  0.00  0.00    -0.270 OA
ATOM     19  N   UNL     1      32.834 -22.247 -17.507  0.00  0.00    -0.297 N 
ATOM     20  C   UNL     1      33.618 -22.645 -18.582  0.00  0.00    +0.248 C 
ATOM     21  H   UNL     1      32.758 -21.287 -17.307  0.00  0.00    +0.150 HD
BRANCH  20  23
ATOM     22  F   UNL     1      36.387 -22.141 -18.351  0.00  0.00    -0.204 F 
ATOM     23  C   UNL     1      34.302 -21.557 -19.328  0.00  0.00    +0.081 C 
ATOM     24  C   UNL     1      35.673 -21.357 -19.173  0.00  0.00    +0.144 C 
ATOM     25  C   UNL     1      33.569 -20.736 -20.185  0.00  0.00    +0.007 C 
ATOM     26  C   UNL     1      35.581 -19.515 -20.732  0.00  0.00    +0.074 C 
ATOM     27  C   UNL     1      36.313 -20.337 -19.875  0.00  0.00    +0.034 C 
ATOM     28  C   UNL     1      34.209 -19.715 -20.887  0.00  0.00    +0.004 C 
BRANCH  26  32
ATOM     29  F   UNL     1      37.628 -18.456 -21.377  0.00  0.00    -0.166 F 
ATOM     30  F   UNL     1      36.013 -18.442 -22.826  0.00  0.00    -0.166 F 
ATOM     31  F   UNL     1      35.894 -17.181 -21.058  0.00  0.00    -0.166 F 
ATOM     32  C   UNL     1      36.266 -18.423 -21.484  0.00  0.00    +0.419 C 
ENDBRANCH  26  32
ENDBRANCH  20  23
ENDBRANCH  17  19
ENDBRANCH   3  17
TORSDOF 10
ENDMDL
MODEL 3
REMARK VINA RESULT:     -11.1      2.278      5.257
REMARK  Name = 11711595
REMARK  10 active torsions:
REMARK  status: ('A' for Active; 'I' for Inactive)
REMARK    1  A    between atoms: C_1  and  C_9
REMARK    2  A    between atoms: C_3  and  C_17
REMARK    3  A    between atoms: C_5  and  O_7
REMARK    4  A    between atoms: C_9  and  C_10
REMARK    5  A    between atoms: C_10  and  C_12
REMARK    6  A    between atoms: C_10  and  C_15
REMARK    7  A    between atoms: C_12  and  O_13
REMARK    8  A    between atoms: C_17  and  N_19
REMARK    9  A    between atoms: C_20  and  C_23
REMARK   10  A    between atoms: C_26  and  C_32
REMARK                            x       y       z     vdW  Elec       q    Type
REMARK                         _______ _______ _______ _____ _____    ______ ____
ROOT
ATOM      1  C   UNL     1      31.149 -22.849 -14.631  0.00  0.00    -0.022 C 
ATOM      2  C   UNL     1      32.211 -23.094 -15.503  0.00  0.00    -0.004 C 
ATOM      3  C   UNL     1      33.417 -23.592 -15.010  0.00  0.00    +0.031 C 
ATOM      4  C   UNL     1      31.294 -23.103 -13.267  0.00  0.00    -0.001 C 
ATOM      5  C   UNL     1      33.562 -23.846 -13.645  0.00  0.00    +0.136 C 
ATOM      6  C   UNL     1      32.500 -23.601 -12.775  0.00  0.00    +0.036 C 
ENDROOT
BRANCH   5   7
ATOM      7  O   UNL     1      34.733 -24.332 -13.148  0.00  0.00    -0.472 OA
ATOM      8  C   UNL     1      35.128 -23.874 -11.856  0.00  0.00    +0.252 C 
ENDBRANCH   5   7
BRANCH   1   9
ATOM      9  C   UNL     1      29.843 -22.310 -15.164  0.00  0.00    +0.037 C 
BRANCH   9  10
ATOM     10  C   UNL     1      28.742 -23.381 -15.271  0.00  0.00    +0.103 C 
BRANCH  10  12
ATOM     11  O   UNL     1      27.496 -23.931 -17.290  0.00  0.00    -0.250 OA
ATOM     12  C   UNL     1      27.865 -23.088 -16.481  0.00  0.00    +0.314 C 
BRANCH  12  13
ATOM     13  O   UNL     1      27.505 -21.782 -16.563  0.00  0.00    -0.480 OA
ATOM     14  H   UNL     1      27.287 -21.407 -17.394  0.00  0.00    +0.295 HD
ENDBRANCH  12  13
ENDBRANCH  10  12
BRANCH  10  15
ATOM     15  C   UNL     1      29.372 -24.781 -15.400  0.00  0.00    +0.011 C 
ATOM     16  C   UNL     1      29.031 -25.688 -14.225  0.00  0.00    +0.001 C 
ENDBRANCH  10  15
ENDBRANCH   9  10
ENDBRANCH   1   9
BRANCH   3  17
ATOM     17  C   UNL     1      34.542 -23.847 -15.957  0.00  0.00    +0.120 C 
BRANCH  17  19
ATOM     18  O   UNL     1      33.885 -23.896 -18.751  0.00  0.00    -0.270 OA
ATOM     19  N   UNL     1      34.716 -22.772 -16.900  0.00  0.00    -0.297 N 
ATOM     20  C   UNL     1      34.367 -22.889 -18.239  0.00  0.00    +0.248 C 
ATOM     21  H   UNL     1      35.097 -21.922 -16.584  0.00  0.00    +0.150 HD
BRANCH  20  23
ATOM     22  F   UNL     1      36.967 -21.873 -18.674  0.00  0.00    -0.204 F 
ATOM     23  C   UNL     1      34.634 -21.700 -19.089  0.00  0.00    +0.081 C 
ATOM     24  C   UNL     1      35.940 -21.245 -19.267  0.00  0.00    +0.144 C 
ATOM     25  C   UNL     1      33.575 -21.040 -19.710  0.00  0.00    +0.007 C 
ATOM     26  C   UNL     1      35.129 -19.469 -20.688  0.00  0.00    +0.074 C 
ATOM     27  C   UNL     1      36.188 -20.130 -20.066  0.00  0.00    +0.034 C 
ATOM     28  C   UNL     1      33.822 -19.923 -20.509  0.00  0.00    +0.004 C 
BRANCH  26  32
ATOM     29  F   UNL     1      35.110 -17.088 -20.929  0.00  0.00    -0.166 F 
ATOM     30  F   UNL     1      36.695 -18.168 -21.943  0.00  0.00    -0.166 F 
ATOM     31  F   UNL     1      34.656 -18.280 -22.691  0.00  0.00    -0.166 F 
ATOM     32  C   UNL     1      35.394 -18.276 -21.543  0.00  0.00    +0.419 C 
ENDBRANCH  26  32
ENDBRANCH  20  23
ENDBRANCH  17  19
ENDBRANCH   3  17
TORSDOF 10
ENDMDL
MODEL 4
REMARK VINA RESULT:     -10.5      1.752      2.283
REMARK  Name = 11711595
REMARK  10 active torsions:
REMARK  status: ('A' for Active; 'I' for Inactive)
REMARK    1  A    between atoms: C_1  and  C_9
REMARK    2  A    between atoms: C_3  and  C_17
REMARK    3  A    between atoms: C_5  and  O_7
REMARK    4  A    between atoms: C_9  and  C_10
REMARK    5  A    between atoms: C_10  and  C_12
REMARK    6  A    between atoms: C_10  and  C_15
REMARK    7  A    between atoms: C_12  and  O_13
REMARK    8  A    between atoms: C_17  and  N_19
REMARK    9  A    between atoms: C_20  and  C_23
REMARK   10  A    between atoms: C_26  and  C_32
REMARK                            x       y       z     vdW  Elec       q    Type
REMARK                         _______ _______ _______ _____ _____    ______ ____
ROOT
ATOM      1  C   UNL     1      34.025 -24.074 -13.797  0.00  0.00    -0.022 C 
ATOM      2  C   UNL     1      33.570 -23.995 -15.114  0.00  0.00    -0.004 C 
ATOM      3  C   UNL     1      32.301 -23.480 -15.383  0.00  0.00    +0.031 C 
ATOM      4  C   UNL     1      33.212 -23.639 -12.750  0.00  0.00    -0.001 C 
ATOM      5  C   UNL     1      31.488 -23.045 -14.335  0.00  0.00    +0.136 C 
ATOM      6  C   UNL     1      31.943 -23.125 -13.020  0.00  0.00    +0.036 C 
ENDROOT
BRANCH   5   7
ATOM      7  O   UNL     1      30.247 -22.541 -14.581  0.00  0.00    -0.472 OA
ATOM      8  C   UNL     1      29.157 -23.461 -14.558  0.00  0.00    +0.252 C 
ENDBRANCH   5   7
BRANCH   1   9
ATOM      9  C   UNL     1      35.398 -24.631 -13.505  0.00  0.00    +0.037 C 
BRANCH   9  10
ATOM     10  C   UNL     1      36.035 -24.041 -12.234  0.00  0.00    +0.103 C 
BRANCH  10  12
ATOM     11  O   UNL     1      35.524 -24.963 -10.038  0.00  0.00    -0.250 OA
ATOM     12  C   UNL     1      36.050 -25.097 -11.137  0.00  0.00    +0.314 C 
BRANCH  12  13
ATOM     13  O   UNL     1      36.694 -26.231 -11.510  0.00  0.00    -0.480 OA
ATOM     14  H   UNL     1      36.249 -26.875 -12.025  0.00  0.00    +0.295 HD
ENDBRANCH  12  13
ENDBRANCH  10  12
BRANCH  10  15
ATOM     15  C   UNL     1      37.470 -23.564 -12.529  0.00  0.00    +0.011 C 
ATOM     16  C   UNL     1      37.983 -24.051 -13.878  0.00  0.00    +0.001 C 
ENDBRANCH  10  15
ENDBRANCH   9  10
ENDBRANCH   1   9
BRANCH   3  17
ATOM     17  C   UNL     1      31.830 -23.403 -16.797  0.00  0.00    +0.120 C 
BRANCH  17  19
ATOM     18  O   UNL     1      33.891 -24.005 -18.703  0.00  0.00    -0.270 OA
ATOM     19  N   UNL     1      32.588 -22.455 -17.573  0.00  0.00    -0.297 N 
ATOM     20  C   UNL     1      33.570 -22.842 -18.474  0.00  0.00    +0.248 C 
ATOM     21  H   UNL     1      32.402 -21.495 -17.460  0.00  0.00    +0.150 HD
BRANCH  20  23
ATOM     22  F   UNL     1      36.320 -22.315 -18.103  0.00  0.00    -0.204 F 
ATOM     23  C   UNL     1      34.280 -21.743 -19.177  0.00  0.00    +0.081 C 
ATOM     24  C   UNL     1      35.640 -21.532 -18.954  0.00  0.00    +0.144 C 
ATOM     25  C   UNL     1      33.583 -20.921 -20.064  0.00  0.00    +0.007 C 
ATOM     26  C   UNL     1      35.608 -19.679 -20.502  0.00  0.00    +0.074 C 
ATOM     27  C   UNL     1      36.305 -20.500 -19.616  0.00  0.00    +0.034 C 
ATOM     28  C   UNL     1      34.248 -19.889 -20.726  0.00  0.00    +0.004 C 
BRANCH  26  32
ATOM     29  F   UNL     1      35.915 -17.328 -20.826  0.00  0.00    -0.166 F 
ATOM     30  F   UNL     1      37.671 -18.586 -21.022  0.00  0.00    -0.166 F 
ATOM     31  F   UNL     1      36.137 -18.618 -22.563  0.00  0.00    -0.166 F 
ATOM     32  C   UNL     1      36.319 -18.575 -21.211  0.00  0.00    +0.419 C 
ENDBRANCH  26  32
ENDBRANCH  20  23
ENDBRANCH  17  19
ENDBRANCH   3  17
TORSDOF 10
ENDMDL
MODEL 5
REMARK VINA RESULT:     -10.3      6.340     11.439
REMARK  Name = 11711595
REMARK  10 active torsions:
REMARK  status: ('A' for Active; 'I' for Inactive)
REMARK    1  A    between atoms: C_1  and  C_9
REMARK    2  A    between atoms: C_3  and  C_17
REMARK    3  A    between atoms: C_5  and  O_7
REMARK    4  A    between atoms: C_9  and  C_10
REMARK    5  A    between atoms: C_10  and  C_12
REMARK    6  A    between atoms: C_10  and  C_15
REMARK    7  A    between atoms: C_12  and  O_13
REMARK    8  A    between atoms: C_17  and  N_19
REMARK    9  A    between atoms: C_20  and  C_23
REMARK   10  A    between atoms: C_26  and  C_32
REMARK                            x       y       z     vdW  Elec       q    Type
REMARK                         _______ _______ _______ _____ _____    ______ ____
ROOT
ATOM      1  C   UNL     1      32.870 -13.779 -21.183  0.00  0.00    -0.022 C 
ATOM      2  C   UNL     1      33.941 -14.645 -20.958  0.00  0.00    -0.004 C 
ATOM      3  C   UNL     1      34.564 -15.277 -22.034  0.00  0.00    +0.031 C 
ATOM      4  C   UNL     1      32.423 -13.546 -22.483  0.00  0.00    -0.001 C 
ATOM      5  C   UNL     1      34.116 -15.043 -23.335  0.00  0.00    +0.136 C 
ATOM      6  C   UNL     1      33.046 -14.178 -23.560  0.00  0.00    +0.036 C 
ENDROOT
BRANCH   5   7
ATOM      7  O   UNL     1      34.713 -15.653 -24.397  0.00  0.00    -0.472 OA
ATOM      8  C   UNL     1      34.189 -16.918 -24.797  0.00  0.00    +0.252 C 
ENDBRANCH   5   7
BRANCH   1   9
ATOM      9  C   UNL     1      32.195 -13.094 -20.018  0.00  0.00    +0.037 C 
BRANCH   9  10
ATOM     10  C   UNL     1      32.284 -11.558 -20.082  0.00  0.00    +0.103 C 
BRANCH  10  12
ATOM     11  O   UNL     1      31.595 -10.264 -22.026  0.00  0.00    -0.250 OA
ATOM     12  C   UNL     1      31.302 -11.035 -21.120  0.00  0.00    +0.314 C 
BRANCH  12  13
ATOM     13  O   UNL     1      30.051 -11.535 -20.956  0.00  0.00    -0.480 OA
ATOM     14  H   UNL     1      29.342 -10.963 -20.735  0.00  0.00    +0.295 HD
ENDBRANCH  12  13
ENDBRANCH  10  12
BRANCH  10  15
ATOM     15  C   UNL     1      31.971 -10.950 -18.702  0.00  0.00    +0.011 C 
ATOM     16  C   UNL     1      31.841  -9.432 -18.747  0.00  0.00    +0.001 C 
ENDBRANCH  10  15
ENDBRANCH   9  10
ENDBRANCH   1   9
BRANCH   3  17
ATOM     17  C   UNL     1      35.707 -16.201 -21.775  0.00  0.00    +0.120 C 
BRANCH  17  19
ATOM     18  O   UNL     1      35.751 -18.947 -22.610  0.00  0.00    -0.270 OA
ATOM     19  N   UNL     1      35.318 -17.344 -20.990  0.00  0.00    -0.297 N 
ATOM     20  C   UNL     1      35.373 -18.642 -21.482  0.00  0.00    +0.248 C 
ATOM     21  H   UNL     1      35.000 -17.201 -20.070  0.00  0.00    +0.150 HD
BRANCH  20  23
ATOM     22  F   UNL     1      37.153 -20.221 -19.960  0.00  0.00    -0.204 F 
ATOM     23  C   UNL     1      34.911 -19.709 -20.558  0.00  0.00    +0.081 C 
ATOM     24  C   UNL     1      35.838 -20.456 -19.832  0.00  0.00    +0.144 C 
ATOM     25  C   UNL     1      33.547 -19.963 -20.417  0.00  0.00    +0.007 C 
ATOM     26  C   UNL     1      34.038 -21.710 -18.822  0.00  0.00    +0.074 C 
ATOM     27  C   UNL     1      35.402 -21.457 -18.964  0.00  0.00    +0.034 C 
ATOM     28  C   UNL     1      33.110 -20.964 -19.549  0.00  0.00    +0.004 C 
BRANCH  26  32
ATOM     29  F   UNL     1      34.308 -22.870 -16.746  0.00  0.00    -0.166 F 
ATOM     30  F   UNL     1      32.281 -22.618 -17.477  0.00  0.00    -0.166 F 
ATOM     31  F   UNL     1      33.620 -24.023 -18.458  0.00  0.00    -0.166 F 
ATOM     32  C   UNL     1      33.571 -22.781 -17.894  0.00  0.00    +0.419 C 
ENDBRANCH  26  32
ENDBRANCH  20  23
ENDBRANCH  17  19
ENDBRANCH   3  17
TORSDOF 10
ENDMDL
MODEL 6
REMARK VINA RESULT:     -10.2      2.951      4.847
REMARK  Name = 11711595
REMARK  10 active torsions:
REMARK  status: ('A' for Active; 'I' for Inactive)
REMARK    1  A    between atoms: C_1  and  C_9
REMARK    2  A    between atoms: C_3  and  C_17
REMARK    3  A    between atoms: C_5  and  O_7
REMARK    4  A    between atoms: C_9  and  C_10
REMARK    5  A    between atoms: C_10  and  C_12
REMARK    6  A    between atoms: C_10  and  C_15
REMARK    7  A    between atoms: C_12  and  O_13
REMARK    8  A    between atoms: C_17  and  N_19
REMARK    9  A    between atoms: C_20  and  C_23
REMARK   10  A    between atoms: C_26  and  C_32
REMARK                            x       y       z     vdW  Elec       q    Type
REMARK                         _______ _______ _______ _____ _____    ______ ____
ROOT
ATOM      1  C   UNL     1      35.121 -22.656 -16.310  0.00  0.00    -0.022 C 
ATOM      2  C   UNL     1      35.980 -22.074 -17.243  0.00  0.00    -0.004 C 
ATOM      3  C   UNL     1      35.492 -21.679 -18.489  0.00  0.00    +0.031 C 
ATOM      4  C   UNL     1      33.775 -22.843 -16.623  0.00  0.00    -0.001 C 
ATOM      5  C   UNL     1      34.145 -21.867 -18.802  0.00  0.00    +0.136 C 
ATOM      6  C   UNL     1      33.287 -22.448 -17.869  0.00  0.00    +0.036 C 
ENDROOT
BRANCH   5   7
ATOM      7  O   UNL     1      33.652 -21.487 -20.014  0.00  0.00    -0.472 OA
ATOM      8  C   UNL     1      32.667 -20.456 -20.019  0.00  0.00    +0.252 C 
ENDBRANCH   5   7
BRANCH   1   9
ATOM      9  C   UNL     1      35.649 -23.084 -14.961  0.00  0.00    +0.037 C 
BRANCH   9  10
ATOM     10  C   UNL     1      36.633 -24.266 -15.041  0.00  0.00    +0.103 C 
BRANCH  10  12
ATOM     11  O   UNL     1      37.946 -23.609 -13.098  0.00  0.00    -0.250 OA
ATOM     12  C   UNL     1      37.906 -23.919 -14.283  0.00  0.00    +0.314 C 
BRANCH  12  13
ATOM     13  O   UNL     1      39.018 -24.011 -15.057  0.00  0.00    -0.480 OA
ATOM     14  H   UNL     1      39.331 -23.258 -15.519  0.00  0.00    +0.295 HD
ENDBRANCH  12  13
ENDBRANCH  10  12
BRANCH  10  15
ATOM     15  C   UNL     1      35.991 -25.533 -14.447  0.00  0.00    +0.011 C 
ATOM     16  C   UNL     1      36.817 -26.787 -14.706  0.00  0.00    +0.001 C 
ENDBRANCH  10  15
ENDBRANCH   9  10
ENDBRANCH   1   9
BRANCH   3  17
ATOM     17  C   UNL     1      36.425 -21.059 -19.475  0.00  0.00    +0.120 C 
BRANCH  17  19
ATOM     18  O   UNL     1      37.846 -18.939 -20.789  0.00  0.00    -0.270 OA
ATOM     19  N   UNL     1      35.848 -19.911 -20.125  0.00  0.00    -0.297 N 
ATOM     20  C   UNL     1      36.619 -18.932 -20.737  0.00  0.00    +0.248 C 
ATOM     21  H   UNL     1      34.868 -19.816 -20.135  0.00  0.00    +0.150 HD
BRANCH  20  23
ATOM     22  F   UNL     1      35.912 -18.847 -23.470  0.00  0.00    -0.204 F 
ATOM     23  C   UNL     1      35.874 -17.797 -21.339  0.00  0.00    +0.081 C 
ATOM     24  C   UNL     1      35.552 -17.812 -22.696  0.00  0.00    +0.144 C 
ATOM     25  C   UNL     1      35.495 -16.715 -20.545  0.00  0.00    +0.007 C 
ATOM     26  C   UNL     1      34.472 -15.664 -22.465  0.00  0.00    +0.074 C 
ATOM     27  C   UNL     1      34.851 -16.746 -23.260  0.00  0.00    +0.034 C 
ATOM     28  C   UNL     1      34.795 -15.648 -21.108  0.00  0.00    +0.004 C 
BRANCH  26  32
ATOM     29  F   UNL     1      32.629 -14.144 -22.341  0.00  0.00    -0.166 F 
ATOM     30  F   UNL     1      34.470 -13.389 -23.203  0.00  0.00    -0.166 F 
ATOM     31  F   UNL     1      33.253 -14.806 -24.317  0.00  0.00    -0.166 F 
ATOM     32  C   UNL     1      33.723 -14.523 -23.067  0.00  0.00    +0.419 C 
ENDBRANCH  26  32
ENDBRANCH  20  23
ENDBRANCH  17  19
ENDBRANCH   3  17
TORSDOF 10
ENDMDL
MODEL 7
REMARK VINA RESULT:     -10.2      5.604     11.163
REMARK  Name = 11711595
REMARK  10 active torsions:
REMARK  status: ('A' for Active; 'I' for Inactive)
REMARK    1  A    between atoms: C_1  and  C_9
REMARK    2  A    between atoms: C_3  and  C_17
REMARK    3  A    between atoms: C_5  and  O_7
REMARK    4  A    between atoms: C_9  and  C_10
REMARK    5  A    between atoms: C_10  and  C_12
REMARK    6  A    between atoms: C_10  and  C_15
REMARK    7  A    between atoms: C_12  and  O_13
REMARK    8  A    between atoms: C_17  and  N_19
REMARK    9  A    between atoms: C_20  and  C_23
REMARK   10  A    between atoms: C_26  and  C_32
REMARK                            x       y       z     vdW  Elec       q    Type
REMARK                         _______ _______ _______ _____ _____    ______ ____
ROOT
ATOM      1  C   UNL     1      33.715 -14.022 -23.139  0.00  0.00    -0.022 C 
ATOM      2  C   UNL     1      34.722 -14.797 -22.561  0.00  0.00    -0.004 C 
ATOM      3  C   UNL     1      35.062 -16.029 -23.119  0.00  0.00    +0.031 C 
ATOM      4  C   UNL     1      33.049 -14.481 -24.275  0.00  0.00    -0.001 C 
ATOM      5  C   UNL     1      34.394 -16.487 -24.256  0.00  0.00    +0.136 C 
ATOM      6  C   UNL     1      33.388 -15.713 -24.833  0.00  0.00    +0.036 C 
ENDROOT
BRANCH   5   7
ATOM      7  O   UNL     1      34.713 -17.689 -24.814  0.00  0.00    -0.472 OA
ATOM      8  C   UNL     1      33.821 -18.774 -24.567  0.00  0.00    +0.252 C 
ENDBRANCH   5   7
BRANCH   1   9
ATOM      9  C   UNL     1      33.348 -12.688 -22.534  0.00  0.00    +0.037 C 
BRANCH   9  10
ATOM     10  C   UNL     1      31.959 -12.685 -21.869  0.00  0.00    +0.103 C 
BRANCH  10  12
ATOM     11  O   UNL     1      32.135 -14.229 -19.995  0.00  0.00    -0.250 OA
ATOM     12  C   UNL     1      32.096 -13.075 -20.404  0.00  0.00    +0.314 C 
BRANCH  12  13
ATOM     13  O   UNL     1      32.198 -11.999 -19.583  0.00  0.00    -0.480 OA
ATOM     14  H   UNL     1      31.449 -11.704 -19.102  0.00  0.00    +0.295 HD
ENDBRANCH  12  13
ENDBRANCH  10  12
BRANCH  10  15
ATOM     15  C   UNL     1      31.315 -11.290 -21.988  0.00  0.00    +0.011 C 
ATOM     16  C   UNL     1      32.154 -10.326 -22.817  0.00  0.00    +0.001 C 
ENDBRANCH  10  15
ENDBRANCH   9  10
ENDBRANCH   1   9
BRANCH   3  17
ATOM     17  C   UNL     1      36.141 -16.844 -22.487  0.00  0.00    +0.120 C 
BRANCH  17  19
ATOM     18  O   UNL     1      37.656 -18.831 -21.074  0.00  0.00    -0.270 OA
ATOM     19  N   UNL     1      35.614 -17.904 -21.666  0.00  0.00    -0.297 N 
ATOM     20  C   UNL     1      36.429 -18.823 -21.019  0.00  0.00    +0.248 C 
ATOM     21  H   UNL     1      34.639 -17.980 -21.560  0.00  0.00    +0.150 HD
BRANCH  20  23
ATOM     22  F   UNL     1      33.687 -19.413 -21.350  0.00  0.00    -0.204 F 
ATOM     23  C   UNL     1      35.732 -19.872 -20.231  0.00  0.00    +0.081 C 
ATOM     24  C   UNL     1      34.375 -20.118 -20.440  0.00  0.00    +0.144 C 
ATOM     25  C   UNL     1      36.437 -20.611 -19.282  0.00  0.00    +0.007 C 
ATOM     26  C   UNL     1      34.429 -21.845 -18.752  0.00  0.00    +0.074 C 
ATOM     27  C   UNL     1      33.723 -21.105 -19.701  0.00  0.00    +0.034 C 
ATOM     28  C   UNL     1      35.785 -21.598 -18.542  0.00  0.00    +0.004 C 
BRANCH  26  32
ATOM     29  F   UNL     1      34.325 -23.165 -16.759  0.00  0.00    -0.166 F 
ATOM     30  F   UNL     1      32.436 -22.590 -17.659  0.00  0.00    -0.166 F 
ATOM     31  F   UNL     1      33.679 -24.097 -18.615  0.00  0.00    -0.166 F 
ATOM     32  C   UNL     1      33.731 -22.900 -17.961  0.00  0.00    +0.419 C 
ENDBRANCH  26  32
ENDBRANCH  20  23
ENDBRANCH  17  19
ENDBRANCH   3  17
TORSDOF 10
ENDMDL
MODEL 8
REMARK VINA RESULT:     -10.0      3.009      5.080
REMARK  Name = 11711595
REMARK  10 active torsions:
REMARK  status: ('A' for Active; 'I' for Inactive)
REMARK    1  A    between atoms: C_1  and  C_9
REMARK    2  A    between atoms: C_3  and  C_17
REMARK    3  A    between atoms: C_5  and  O_7
REMARK    4  A    between atoms: C_9  and  C_10
REMARK    5  A    between atoms: C_10  and  C_12
REMARK    6  A    between atoms: C_10  and  C_15
REMARK    7  A    between atoms: C_12  and  O_13
REMARK    8  A    between atoms: C_17  and  N_19
REMARK    9  A    between atoms: C_20  and  C_23
REMARK   10  A    between atoms: C_26  and  C_32
REMARK                            x       y       z     vdW  Elec       q    Type
REMARK                         _______ _______ _______ _____ _____    ______ ____
ROOT
ATOM      1  C   UNL     1      35.235 -22.676 -16.651  0.00  0.00    -0.022 C 
ATOM      2  C   UNL     1      36.067 -21.994 -17.541  0.00  0.00    -0.004 C 
ATOM      3  C   UNL     1      35.552 -21.508 -18.743  0.00  0.00    +0.031 C 
ATOM      4  C   UNL     1      33.890 -22.871 -16.963  0.00  0.00    -0.001 C 
ATOM      5  C   UNL     1      34.205 -21.703 -19.055  0.00  0.00    +0.136 C 
ATOM      6  C   UNL     1      33.375 -22.384 -18.165  0.00  0.00    +0.036 C 
ENDROOT
BRANCH   5   7
ATOM      7  O   UNL     1      33.687 -21.236 -20.224  0.00  0.00    -0.472 OA
ATOM      8  C   UNL     1      32.640 -20.271 -20.129  0.00  0.00    +0.252 C 
ENDBRANCH   5   7
BRANCH   1   9
ATOM      9  C   UNL     1      35.793 -23.202 -15.350  0.00  0.00    +0.037 C 
BRANCH   9  10
ATOM     10  C   UNL     1      34.974 -24.368 -14.766  0.00  0.00    +0.103 C 
BRANCH  10  12
ATOM     11  O   UNL     1      36.459 -26.222 -15.299  0.00  0.00    -0.250 OA
ATOM     12  C   UNL     1      35.902 -25.534 -14.453  0.00  0.00    +0.314 C 
BRANCH  12  13
ATOM     13  O   UNL     1      36.073 -25.724 -13.120  0.00  0.00    -0.480 OA
ATOM     14  H   UNL     1      36.325 -25.007 -12.573  0.00  0.00    +0.295 HD
ENDBRANCH  12  13
ENDBRANCH  10  12
BRANCH  10  15
ATOM     15  C   UNL     1      34.241 -23.916 -13.488  0.00  0.00    +0.011 C 
ATOM     16  C   UNL     1      32.757 -24.261 -13.510  0.00  0.00    +0.001 C 
ENDBRANCH  10  15
ENDBRANCH   9  10
ENDBRANCH   1   9
BRANCH   3  17
ATOM     17  C   UNL     1      36.455 -20.782 -19.683  0.00  0.00    +0.120 C 
BRANCH  17  19
ATOM     18  O   UNL     1      37.756 -18.677 -21.139  0.00  0.00    -0.270 OA
ATOM     19  N   UNL     1      35.830 -19.613 -20.246  0.00  0.00    -0.297 N 
ATOM     20  C   UNL     1      36.545 -18.643 -20.938  0.00  0.00    +0.248 C 
ATOM     21  H   UNL     1      34.860 -19.495 -20.137  0.00  0.00    +0.150 HD
BRANCH  20  23
ATOM     22  F   UNL     1      35.778 -18.361 -23.641  0.00  0.00    -0.204 F 
ATOM     23  C   UNL     1      35.759 -17.484 -21.433  0.00  0.00    +0.081 C 
ATOM     24  C   UNL     1      35.409 -17.400 -22.781  0.00  0.00    +0.144 C 
ATOM     25  C   UNL     1      35.371 -16.479 -20.548  0.00  0.00    +0.007 C 
ATOM     26  C   UNL     1      34.282 -15.306 -22.358  0.00  0.00    +0.074 C 
ATOM     27  C   UNL     1      34.671 -16.312 -23.244  0.00  0.00    +0.034 C 
ATOM     28  C   UNL     1      34.633 -15.389 -21.011  0.00  0.00    +0.004 C 
BRANCH  26  32
ATOM     29  F   UNL     1      32.910 -14.353 -24.072  0.00  0.00    -0.166 F 
ATOM     30  F   UNL     1      32.465 -13.787 -22.026  0.00  0.00    -0.166 F 
ATOM     31  F   UNL     1      34.251 -13.017 -22.999  0.00  0.00    -0.166 F 
ATOM     32  C   UNL     1      33.492 -14.142 -22.853  0.00  0.00    +0.419 C 
ENDBRANCH  26  32
ENDBRANCH  20  23
ENDBRANCH  17  19
ENDBRANCH   3  17
TORSDOF 10
ENDMDL
MODEL 9
REMARK VINA RESULT:     -10.0      8.422     13.312
REMARK  Name = 11711595
REMARK  10 active torsions:
REMARK  status: ('A' for Active; 'I' for Inactive)
REMARK    1  A    between atoms: C_1  and  C_9
REMARK    2  A    between atoms: C_3  and  C_17
REMARK    3  A    between atoms: C_5  and  O_7
REMARK    4  A    between atoms: C_9  and  C_10
REMARK    5  A    between atoms: C_10  and  C_12
REMARK    6  A    between atoms: C_10  and  C_15
REMARK    7  A    between atoms: C_12  and  O_13
REMARK    8  A    between atoms: C_17  and  N_19
REMARK    9  A    between atoms: C_20  and  C_23
REMARK   10  A    between atoms: C_26  and  C_32
REMARK                            x       y       z     vdW  Elec       q    Type
REMARK                         _______ _______ _______ _____ _____    ______ ____
ROOT
ATOM      1  C   UNL     1      32.699 -10.138 -22.913  0.00  0.00    -0.022 C 
ATOM      2  C   UNL     1      33.200 -11.178 -23.698  0.00  0.00    -0.004 C 
ATOM      3  C   UNL     1      33.103 -12.497 -23.254  0.00  0.00    +0.031 C 
ATOM      4  C   UNL     1      32.102 -10.418 -21.684  0.00  0.00    -0.001 C 
ATOM      5  C   UNL     1      32.505 -12.776 -22.024  0.00  0.00    +0.136 C 
ATOM      6  C   UNL     1      32.005 -11.737 -21.239  0.00  0.00    +0.036 C 
ENDROOT
BRANCH   5   7
ATOM      7  O   UNL     1      32.403 -14.058 -21.574  0.00  0.00    -0.472 OA
ATOM      8  C   UNL     1      32.339 -14.246 -20.162  0.00  0.00    +0.252 C 
ENDBRANCH   5   7
BRANCH   1   9
ATOM      9  C   UNL     1      32.804  -8.711 -23.395  0.00  0.00    +0.037 C 
BRANCH   9  10
ATOM     10  C   UNL     1      33.791  -7.863 -22.571  0.00  0.00    +0.103 C 
BRANCH  10  12
ATOM     11  O   UNL     1      35.818  -8.796 -23.548  0.00  0.00    -0.250 OA
ATOM     12  C   UNL     1      35.135  -7.813 -23.285  0.00  0.00    +0.314 C 
BRANCH  12  13
ATOM     13  O   UNL     1      35.499  -6.552 -23.629  0.00  0.00    -0.480 OA
ATOM     14  H   UNL     1      35.631  -5.904 -22.964  0.00  0.00    +0.295 HD
ENDBRANCH  12  13
ENDBRANCH  10  12
BRANCH  10  15
ATOM     15  C   UNL     1      33.239  -6.439 -22.380  0.00  0.00    +0.011 C 
ATOM     16  C   UNL     1      32.321  -6.323 -21.170  0.00  0.00    +0.001 C 
ENDBRANCH  10  15
ENDBRANCH   9  10
ENDBRANCH   1   9
BRANCH   3  17
ATOM     17  C   UNL     1      33.644 -13.596 -24.106  0.00  0.00    +0.120 C 
BRANCH  17  19
ATOM     18  O   UNL     1      34.716 -16.059 -25.118  0.00  0.00    -0.270 OA
ATOM     19  N   UNL     1      34.006 -14.757 -23.335  0.00  0.00    -0.297 N 
ATOM     20  C   UNL     1      34.519 -15.910 -23.915  0.00  0.00    +0.248 C 
ATOM     21  H   UNL     1      33.883 -14.734 -22.359  0.00  0.00    +0.150 HD
BRANCH  20  23
ATOM     22  F   UNL     1      34.066 -18.615 -24.589  0.00  0.00    -0.204 F 
ATOM     23  C   UNL     1      34.817 -17.030 -22.986  0.00  0.00    +0.081 C 
ATOM     24  C   UNL     1      34.572 -18.347 -23.376  0.00  0.00    +0.144 C 
ATOM     25  C   UNL     1      35.343 -16.763 -21.722  0.00  0.00    +0.007 C 
ATOM     26  C   UNL     1      35.381 -19.130 -21.239  0.00  0.00    +0.074 C 
ATOM     27  C   UNL     1      34.854 -19.397 -22.503  0.00  0.00    +0.034 C 
ATOM     28  C   UNL     1      35.625 -17.813 -20.848  0.00  0.00    +0.004 C 
BRANCH  26  32
ATOM     29  F   UNL     1      35.899 -21.446 -20.935  0.00  0.00    -0.166 F 
ATOM     30  F   UNL     1      36.796 -20.046 -19.543  0.00  0.00    -0.166 F 
ATOM     31  F   UNL     1      34.670 -20.485 -19.419  0.00  0.00    -0.166 F 
ATOM     32  C   UNL     1      35.682 -20.253 -20.305  0.00  0.00    +0.419 C 
ENDBRANCH  26  32
ENDBRANCH  20  23
ENDBRANCH  17  19
ENDBRANCH   3  17
TORSDOF 10
ENDMDL
