MODEL 1
REMARK VINA RESULT:     -10.9      0.000      0.000
REMARK  Name = 17755582
REMARK  6 active torsions:
REMARK  status: ('A' for Active; 'I' for Inactive)
REMARK    1  A    between atoms: S_1  and  C_4
REMARK    2  A    between atoms: S_1  and  N_19
REMARK    3  A    between atoms: C_5  and  N_10
REMARK    4  A    between atoms: N_10  and  C_17
REMARK    5  A    between atoms: N_19  and  C_21
REMARK    6  A    between atoms: C_21  and  C_25
REMARK                            x       y       z     vdW  Elec       q    Type
REMARK                         _______ _______ _______ _____ _____    ______ ____
ROOT
ATOM      1  S   UNL     1      34.217 -23.020 -18.851  0.00  0.00    +0.061 S 
ATOM      2  O   UNL     1      35.546 -22.426 -18.925  0.00  0.00    -0.153 OA
ATOM      3  O   UNL     1      34.004 -24.359 -19.383  0.00  0.00    -0.153 OA
ENDROOT
BRANCH   1   4
ATOM      4  C   UNL     1      33.694 -23.020 -17.185  0.00  0.00    +0.123 C 
ATOM      5  C   UNL     1      34.219 -23.004 -14.827  0.00  0.00    +0.050 C 
ATOM      6  C   UNL     1      34.637 -23.004 -16.158  0.00  0.00    +0.034 C 
ATOM      7  C   UNL     1      32.333 -23.038 -16.881  0.00  0.00    +0.020 C 
ATOM      8  C   UNL     1      32.858 -23.021 -14.524  0.00  0.00    +0.015 C 
ATOM      9  C   UNL     1      31.914 -23.038 -15.551  0.00  0.00    +0.003 C 
BRANCH   5  10
ATOM     10  N   UNL     1      35.168 -22.986 -13.792  0.00  0.00    -0.312 N 
ATOM     11  H   UNL     1      35.544 -22.103 -13.572  0.00  0.00    +0.152 HD
BRANCH  10  17
ATOM     12  O   UNL     1      38.169 -26.504 -13.003  0.00  0.00    -0.445 OA
ATOM     13  O   UNL     1      36.679 -26.139 -11.287  0.00  0.00    -0.245 OA
ATOM     14  C   UNL     1      37.732 -24.616 -14.347  0.00  0.00    +0.082 C 
ATOM     15  C   UNL     1      36.744 -24.740 -13.253  0.00  0.00    +0.072 C 
ATOM     16  C   UNL     1      38.326 -26.003 -14.340  0.00  0.00    +0.214 C 
ATOM     17  C   UNL     1      35.635 -24.025 -13.054  0.00  0.00    +0.064 C 
ATOM     18  C   UNL     1      37.146 -25.854 -12.374  0.00  0.00    +0.339 C 
ENDBRANCH  10  17
ENDBRANCH   5  10
ENDBRANCH   1   4
BRANCH   1  19
ATOM     19  N   UNL     1      33.101 -21.955 -19.587  0.00  0.00    -0.173 NA
ATOM     20  H   UNL     1      32.183 -22.176 -19.200  0.00  0.00    +0.149 HD
BRANCH  19  21
ATOM     21  C   UNL     1      33.279 -20.503 -19.455  0.00  0.00    +0.147 C 
BRANCH  21  25
ATOM     22  N   UNL     1      35.454 -19.674 -20.148  0.00  0.00    -0.335 NA
ATOM     23  N   UNL     1      35.876 -18.921 -22.399  0.00  0.00    -0.337 NA
ATOM     24  N   UNL     1      37.571 -18.881 -20.776  0.00  0.00    -0.283 N 
ATOM     25  C   UNL     1      34.184 -19.941 -20.517  0.00  0.00    +0.124 C 
ATOM     26  C   UNL     1      33.694 -19.728 -21.788  0.00  0.00    +0.112 C 
ATOM     27  C   UNL     1      34.593 -19.212 -22.697  0.00  0.00    +0.107 C 
ATOM     28  C   UNL     1      36.235 -19.172 -21.125  0.00  0.00    +0.195 C 
ATOM     29  C   UNL     1      34.155 -18.946 -24.097  0.00  0.00    +0.063 C 
ATOM     30  H   UNL     1      37.889 -19.045 -19.858  0.00  0.00    +0.156 HD
ATOM     31  H   UNL     1      38.187 -18.513 -21.450  0.00  0.00    +0.156 HD
ENDBRANCH  21  25
ENDBRANCH  19  21
ENDBRANCH   1  19
TORSDOF 6
ENDMDL
MODEL 2
REMARK VINA RESULT:     -10.6      3.231      6.093
REMARK  Name = 17755582
REMARK  6 active torsions:
REMARK  status: ('A' for Active; 'I' for Inactive)
REMARK    1  A    between atoms: S_1  and  C_4
REMARK    2  A    between atoms: S_1  and  N_19
REMARK    3  A    between atoms: C_5  and  N_10
REMARK    4  A    between atoms: N_10  and  C_17
REMARK    5  A    between atoms: N_19  and  C_21
REMARK    6  A    between atoms: C_21  and  C_25
REMARK                            x       y       z     vdW  Elec       q    Type
REMARK                         _______ _______ _______ _____ _____    ______ ____
ROOT
ATOM      1  S   UNL     1      38.530 -24.865 -14.276  0.00  0.00    +0.061 S 
ATOM      2  O   UNL     1      39.831 -24.791 -13.622  0.00  0.00    -0.153 OA
ATOM      3  O   UNL     1      38.146 -26.091 -14.963  0.00  0.00    -0.153 OA
ENDROOT
BRANCH   1   4
ATOM      4  C   UNL     1      37.290 -24.503 -13.101  0.00  0.00    +0.123 C 
ATOM      5  C   UNL     1      34.960 -24.452 -12.466  0.00  0.00    +0.050 C 
ATOM      6  C   UNL     1      35.950 -24.741 -13.405  0.00  0.00    +0.034 C 
ATOM      7  C   UNL     1      37.640 -23.976 -11.858  0.00  0.00    +0.020 C 
ATOM      8  C   UNL     1      35.310 -23.925 -11.223  0.00  0.00    +0.015 C 
ATOM      9  C   UNL     1      36.650 -23.686 -10.919  0.00  0.00    +0.003 C 
BRANCH   5  10
ATOM     10  N   UNL     1      33.610 -24.692 -12.772  0.00  0.00    -0.312 N 
ATOM     11  H   UNL     1      33.147 -25.334 -12.186  0.00  0.00    +0.152 HD
BRANCH  10  17
ATOM     12  O   UNL     1      29.600 -24.227 -15.160  0.00  0.00    -0.445 OA
ATOM     13  O   UNL     1      31.267 -22.792 -15.838  0.00  0.00    -0.245 OA
ATOM     14  C   UNL     1      30.585 -25.126 -13.214  0.00  0.00    +0.082 C 
ATOM     15  C   UNL     1      31.551 -24.306 -13.979  0.00  0.00    +0.072 C 
ATOM     16  C   UNL     1      29.521 -25.345 -14.261  0.00  0.00    +0.214 C 
ATOM     17  C   UNL     1      32.859 -24.154 -13.766  0.00  0.00    +0.064 C 
ATOM     18  C   UNL     1      30.843 -23.666 -15.104  0.00  0.00    +0.339 C 
ENDBRANCH  10  17
ENDBRANCH   5  10
ENDBRANCH   1   4
BRANCH   1  19
ATOM     19  N   UNL     1      38.394 -23.559 -15.370  0.00  0.00    -0.173 NA
ATOM     20  H   UNL     1      38.242 -23.964 -16.294  0.00  0.00    +0.149 HD
BRANCH  19  21
ATOM     21  C   UNL     1      37.348 -22.546 -15.173  0.00  0.00    +0.147 C 
BRANCH  21  25
ATOM     22  N   UNL     1      35.318 -23.013 -16.421  0.00  0.00    -0.335 NA
ATOM     23  N   UNL     1      34.908 -22.061 -18.597  0.00  0.00    -0.337 NA
ATOM     24  N   UNL     1      33.342 -23.491 -17.593  0.00  0.00    -0.283 N 
ATOM     25  C   UNL     1      36.497 -22.359 -16.399  0.00  0.00    +0.124 C 
ATOM     26  C   UNL     1      36.945 -21.550 -17.423  0.00  0.00    +0.112 C 
ATOM     27  C   UNL     1      36.101 -21.437 -18.507  0.00  0.00    +0.107 C 
ATOM     28  C   UNL     1      34.584 -22.822 -17.535  0.00  0.00    +0.195 C 
ATOM     29  C   UNL     1      36.499 -20.584 -19.664  0.00  0.00    +0.063 C 
ATOM     30  H   UNL     1      33.053 -24.061 -16.844  0.00  0.00    +0.156 HD
ATOM     31  H   UNL     1      32.764 -23.387 -18.383  0.00  0.00    +0.156 HD
ENDBRANCH  21  25
ENDBRANCH  19  21
ENDBRANCH   1  19
TORSDOF 6
ENDMDL
MODEL 3
REMARK VINA RESULT:     -10.5      4.043      5.327
REMARK  Name = 17755582
REMARK  6 active torsions:
REMARK  status: ('A' for Active; 'I' for Inactive)
REMARK    1  A    between atoms: S_1  and  C_4
REMARK    2  A    between atoms: S_1  and  N_19
REMARK    3  A    between atoms: C_5  and  N_10
REMARK    4  A    between atoms: N_10  and  C_17
REMARK    5  A    between atoms: N_19  and  C_21
REMARK    6  A    between atoms: C_21  and  C_25
REMARK                            x       y       z     vdW  Elec       q    Type
REMARK                         _______ _______ _______ _____ _____    ______ ____
ROOT
ATOM      1  S   UNL     1      36.193 -18.687 -21.548  0.00  0.00    +0.061 S 
ATOM      2  O   UNL     1      37.492 -18.623 -20.889  0.00  0.00    -0.153 OA
ATOM      3  O   UNL     1      36.122 -19.104 -22.942  0.00  0.00    -0.153 OA
ENDROOT
BRANCH   1   4
ATOM      4  C   UNL     1      35.146 -19.734 -20.625  0.00  0.00    +0.123 C 
ATOM      5  C   UNL     1      34.853 -21.474 -18.974  0.00  0.00    +0.050 C 
ATOM      6  C   UNL     1      35.690 -20.637 -19.712  0.00  0.00    +0.034 C 
ATOM      7  C   UNL     1      33.764 -19.668 -20.800  0.00  0.00    +0.020 C 
ATOM      8  C   UNL     1      33.471 -21.408 -19.149  0.00  0.00    +0.015 C 
ATOM      9  C   UNL     1      32.926 -20.505 -20.063  0.00  0.00    +0.003 C 
BRANCH   5  10
ATOM     10  N   UNL     1      35.401 -22.383 -18.055  0.00  0.00    -0.312 N 
ATOM     11  H   UNL     1      36.237 -22.822 -18.334  0.00  0.00    +0.152 HD
BRANCH  10  17
ATOM     12  O   UNL     1      35.989 -23.354 -13.503  0.00  0.00    -0.445 OA
ATOM     13  O   UNL     1      33.789 -23.323 -14.179  0.00  0.00    -0.245 OA
ATOM     14  C   UNL     1      37.034 -22.496 -15.436  0.00  0.00    +0.082 C 
ATOM     15  C   UNL     1      35.602 -22.780 -15.678  0.00  0.00    +0.072 C 
ATOM     16  C   UNL     1      37.260 -23.283 -14.168  0.00  0.00    +0.214 C 
ATOM     17  C   UNL     1      34.932 -22.735 -16.830  0.00  0.00    +0.064 C 
ATOM     18  C   UNL     1      34.978 -23.184 -14.404  0.00  0.00    +0.339 C 
ENDBRANCH  10  17
ENDBRANCH   5  10
ENDBRANCH   1   4
BRANCH   1  19
ATOM     19  N   UNL     1      35.426 -17.167 -21.392  0.00  0.00    -0.173 NA
ATOM     20  H   UNL     1      35.909 -16.669 -20.644  0.00  0.00    +0.149 HD
BRANCH  19  21
ATOM     21  C   UNL     1      35.370 -16.255 -22.543  0.00  0.00    +0.147 C 
BRANCH  21  25
ATOM     22  N   UNL     1      34.519 -14.082 -23.217  0.00  0.00    -0.335 NA
ATOM     23  N   UNL     1      33.053 -12.790 -21.806  0.00  0.00    -0.337 NA
ATOM     24  N   UNL     1      33.719 -11.987 -23.908  0.00  0.00    -0.283 N 
ATOM     25  C   UNL     1      34.540 -15.033 -22.260  0.00  0.00    +0.124 C 
ATOM     26  C   UNL     1      33.855 -14.935 -21.067  0.00  0.00    +0.112 C 
ATOM     27  C   UNL     1      33.120 -13.782 -20.893  0.00  0.00    +0.107 C 
ATOM     28  C   UNL     1      33.766 -13.003 -22.929  0.00  0.00    +0.195 C 
ATOM     29  C   UNL     1      32.346 -13.585 -19.633  0.00  0.00    +0.063 C 
ATOM     30  H   UNL     1      34.221 -12.090 -24.749  0.00  0.00    +0.156 HD
ATOM     31  H   UNL     1      33.184 -11.176 -23.750  0.00  0.00    +0.156 HD
ENDBRANCH  21  25
ENDBRANCH  19  21
ENDBRANCH   1  19
TORSDOF 6
ENDMDL
MODEL 4
REMARK VINA RESULT:     -10.5      3.499      6.148
REMARK  Name = 17755582
REMARK  6 active torsions:
REMARK  status: ('A' for Active; 'I' for Inactive)
REMARK    1  A    between atoms: S_1  and  C_4
REMARK    2  A    between atoms: S_1  and  N_19
REMARK    3  A    between atoms: C_5  and  N_10
REMARK    4  A    between atoms: N_10  and  C_17
REMARK    5  A    between atoms: N_19  and  C_21
REMARK    6  A    between atoms: C_21  and  C_25
REMARK                            x       y       z     vdW  Elec       q    Type
REMARK                         _______ _______ _______ _____ _____    ______ ____
ROOT
ATOM      1  S   UNL     1      33.523 -23.106 -17.977  0.00  0.00    +0.061 S 
ATOM      2  O   UNL     1      32.694 -22.000 -18.441  0.00  0.00    -0.153 OA
ATOM      3  O   UNL     1      33.836 -24.195 -18.893  0.00  0.00    -0.153 OA
ENDROOT
BRANCH   1   4
ATOM      4  C   UNL     1      35.032 -22.464 -17.377  0.00  0.00    +0.123 C 
ATOM      5  C   UNL     1      36.661 -22.258 -15.606  0.00  0.00    +0.050 C 
ATOM      6  C   UNL     1      35.456 -22.771 -16.084  0.00  0.00    +0.034 C 
ATOM      7  C   UNL     1      35.813 -21.644 -18.191  0.00  0.00    +0.020 C 
ATOM      8  C   UNL     1      37.443 -21.438 -16.419  0.00  0.00    +0.015 C 
ATOM      9  C   UNL     1      37.018 -21.130 -17.712  0.00  0.00    +0.003 C 
BRANCH   5  10
ATOM     10  N   UNL     1      37.089 -22.567 -14.304  0.00  0.00    -0.312 N 
ATOM     11  H   UNL     1      37.187 -21.801 -13.693  0.00  0.00    +0.152 HD
BRANCH  10  17
ATOM     12  O   UNL     1      36.566 -25.930 -11.076  0.00  0.00    -0.445 OA
ATOM     13  O   UNL     1      37.957 -26.508 -12.817  0.00  0.00    -0.245 OA
ATOM     14  C   UNL     1      35.686 -23.902 -11.898  0.00  0.00    +0.082 C 
ATOM     15  C   UNL     1      36.790 -24.396 -12.751  0.00  0.00    +0.072 C 
ATOM     16  C   UNL     1      35.911 -24.724 -10.653  0.00  0.00    +0.214 C 
ATOM     17  C   UNL     1      37.383 -23.782 -13.775  0.00  0.00    +0.064 C 
ATOM     18  C   UNL     1      37.205 -25.726 -12.265  0.00  0.00    +0.339 C 
ENDBRANCH  10  17
ENDBRANCH   5  10
ENDBRANCH   1   4
BRANCH   1  19
ATOM     19  N   UNL     1      32.815 -23.764 -16.567  0.00  0.00    -0.173 NA
ATOM     20  H   UNL     1      33.572 -24.181 -16.025  0.00  0.00    +0.149 HD
BRANCH  19  21
ATOM     21  C   UNL     1      32.065 -22.894 -15.651  0.00  0.00    +0.147 C 
BRANCH  21  25
ATOM     22  N   UNL     1      30.408 -24.438 -14.774  0.00  0.00    -0.335 NA
ATOM     23  N   UNL     1      28.051 -24.157 -15.195  0.00  0.00    -0.337 NA
ATOM     24  N   UNL     1      28.840 -25.953 -13.907  0.00  0.00    -0.283 N 
ATOM     25  C   UNL     1      30.632 -23.325 -15.502  0.00  0.00    +0.124 C 
ATOM     26  C   UNL     1      29.633 -22.585 -16.099  0.00  0.00    +0.112 C 
ATOM     27  C   UNL     1      28.349 -23.052 -15.910  0.00  0.00    +0.107 C 
ATOM     28  C   UNL     1      29.113 -24.793 -14.663  0.00  0.00    +0.195 C 
ATOM     29  C   UNL     1      27.201 -22.320 -16.519  0.00  0.00    +0.063 C 
ATOM     30  H   UNL     1      29.578 -26.458 -13.494  0.00  0.00    +0.156 HD
ATOM     31  H   UNL     1      27.911 -26.258 -13.792  0.00  0.00    +0.156 HD
ENDBRANCH  21  25
ENDBRANCH  19  21
ENDBRANCH   1  19
TORSDOF 6
ENDMDL
MODEL 5
REMARK VINA RESULT:     -10.4      3.964      5.497
REMARK  Name = 17755582
REMARK  6 active torsions:
REMARK  status: ('A' for Active; 'I' for Inactive)
REMARK    1  A    between atoms: S_1  and  C_4
REMARK    2  A    between atoms: S_1  and  N_19
REMARK    3  A    between atoms: C_5  and  N_10
REMARK    4  A    between atoms: N_10  and  C_17
REMARK    5  A    between atoms: N_19  and  C_21
REMARK    6  A    between atoms: C_21  and  C_25
REMARK                            x       y       z     vdW  Elec       q    Type
REMARK                         _______ _______ _______ _____ _____    ______ ____
ROOT
ATOM      1  S   UNL     1      36.230 -18.721 -21.164  0.00  0.00    +0.061 S 
ATOM      2  O   UNL     1      37.419 -18.701 -20.320  0.00  0.00    -0.153 OA
ATOM      3  O   UNL     1      36.361 -19.085 -22.569  0.00  0.00    -0.153 OA
ENDROOT
BRANCH   1   4
ATOM      4  C   UNL     1      35.049 -19.787 -20.446  0.00  0.00    +0.123 C 
ATOM      5  C   UNL     1      34.518 -21.687 -19.053  0.00  0.00    +0.050 C 
ATOM      6  C   UNL     1      35.462 -20.837 -19.627  0.00  0.00    +0.034 C 
ATOM      7  C   UNL     1      33.690 -19.588 -20.692  0.00  0.00    +0.020 C 
ATOM      8  C   UNL     1      33.160 -21.489 -19.298  0.00  0.00    +0.015 C 
ATOM      9  C   UNL     1      32.745 -20.439 -20.119  0.00  0.00    +0.003 C 
BRANCH   5  10
ATOM     10  N   UNL     1      34.934 -22.744 -18.227  0.00  0.00    -0.312 N 
ATOM     11  H   UNL     1      35.232 -23.559 -18.693  0.00  0.00    +0.152 HD
BRANCH  10  17
ATOM     12  O   UNL     1      32.929 -23.217 -14.013  0.00  0.00    -0.445 OA
ATOM     13  O   UNL     1      35.224 -23.063 -13.948  0.00  0.00    -0.245 OA
ATOM     14  C   UNL     1      32.588 -23.426 -16.338  0.00  0.00    +0.082 C 
ATOM     15  C   UNL     1      33.997 -23.097 -16.026  0.00  0.00    +0.072 C 
ATOM     16  C   UNL     1      31.926 -23.066 -15.030  0.00  0.00    +0.214 C 
ATOM     17  C   UNL     1      34.982 -22.792 -16.871  0.00  0.00    +0.064 C 
ATOM     18  C   UNL     1      34.174 -23.113 -14.562  0.00  0.00    +0.339 C 
ENDBRANCH  10  17
ENDBRANCH   5  10
ENDBRANCH   1   4
BRANCH   1  19
ATOM     19  N   UNL     1      35.463 -17.198 -21.064  0.00  0.00    -0.173 NA
ATOM     20  H   UNL     1      35.949 -16.670 -20.338  0.00  0.00    +0.149 HD
BRANCH  19  21
ATOM     21  C   UNL     1      35.400 -16.330 -22.248  0.00  0.00    +0.147 C 
BRANCH  21  25
ATOM     22  N   UNL     1      33.847 -15.076 -20.865  0.00  0.00    -0.335 NA
ATOM     23  N   UNL     1      32.966 -12.939 -21.548  0.00  0.00    -0.337 NA
ATOM     24  N   UNL     1      32.349 -13.897 -19.497  0.00  0.00    -0.283 N 
ATOM     25  C   UNL     1      34.542 -15.117 -22.020  0.00  0.00    +0.124 C 
ATOM     26  C   UNL     1      34.501 -14.122 -22.975  0.00  0.00    +0.112 C 
ATOM     27  C   UNL     1      33.689 -13.047 -22.683  0.00  0.00    +0.107 C 
ATOM     28  C   UNL     1      33.090 -13.975 -20.696  0.00  0.00    +0.195 C 
ATOM     29  C   UNL     1      33.578 -11.921 -23.656  0.00  0.00    +0.063 C 
ATOM     30  H   UNL     1      32.402 -14.626 -18.836  0.00  0.00    +0.156 HD
ATOM     31  H   UNL     1      31.779 -13.114 -19.320  0.00  0.00    +0.156 HD
ENDBRANCH  21  25
ENDBRANCH  19  21
ENDBRANCH   1  19
TORSDOF 6
ENDMDL
MODEL 6
REMARK VINA RESULT:     -10.4      7.644     10.433
REMARK  Name = 17755582
REMARK  6 active torsions:
REMARK  status: ('A' for Active; 'I' for Inactive)
REMARK    1  A    between atoms: S_1  and  C_4
REMARK    2  A    between atoms: S_1  and  N_19
REMARK    3  A    between atoms: C_5  and  N_10
REMARK    4  A    between atoms: N_10  and  C_17
REMARK    5  A    between atoms: N_19  and  C_21
REMARK    6  A    between atoms: C_21  and  C_25
REMARK                            x       y       z     vdW  Elec       q    Type
REMARK                         _______ _______ _______ _____ _____    ______ ____
ROOT
ATOM      1  S   UNL     1      33.389 -12.933 -23.586  0.00  0.00    +0.061 S 
ATOM      2  O   UNL     1      34.445 -11.964 -23.857  0.00  0.00    -0.153 OA
ATOM      3  O   UNL     1      32.847 -13.720 -24.685  0.00  0.00    -0.153 OA
ENDROOT
BRANCH   1   4
ATOM      4  C   UNL     1      33.948 -14.043 -22.360  0.00  0.00    +0.123 C 
ATOM      5  C   UNL     1      35.036 -16.112 -21.749  0.00  0.00    +0.050 C 
ATOM      6  C   UNL     1      34.590 -15.225 -22.729  0.00  0.00    +0.034 C 
ATOM      7  C   UNL     1      33.752 -13.749 -21.011  0.00  0.00    +0.020 C 
ATOM      8  C   UNL     1      34.840 -15.817 -20.401  0.00  0.00    +0.015 C 
ATOM      9  C   UNL     1      34.197 -14.636 -20.031  0.00  0.00    +0.003 C 
BRANCH   5  10
ATOM     10  N   UNL     1      35.683 -17.302 -22.121  0.00  0.00    -0.312 N 
ATOM     11  H   UNL     1      35.895 -17.392 -23.079  0.00  0.00    +0.152 HD
BRANCH  10  17
ATOM     12  O   UNL     1      34.760 -21.177 -19.645  0.00  0.00    -0.445 OA
ATOM     13  O   UNL     1      37.001 -20.668 -19.791  0.00  0.00    -0.245 OA
ATOM     14  C   UNL     1      33.876 -19.624 -21.184  0.00  0.00    +0.082 C 
ATOM     15  C   UNL     1      35.311 -19.370 -20.925  0.00  0.00    +0.072 C 
ATOM     16  C   UNL     1      33.540 -20.518 -20.016  0.00  0.00    +0.214 C 
ATOM     17  C   UNL     1      36.057 -18.344 -21.335  0.00  0.00    +0.064 C 
ATOM     18  C   UNL     1      35.835 -20.448 -20.065  0.00  0.00    +0.339 C 
ENDBRANCH  10  17
ENDBRANCH   5  10
ENDBRANCH   1   4
BRANCH   1  19
ATOM     19  N   UNL     1      32.101 -12.132 -22.799  0.00  0.00    -0.173 NA
ATOM     20  H   UNL     1      32.198 -12.326 -21.802  0.00  0.00    +0.149 HD
BRANCH  19  21
ATOM     21  C   UNL     1      31.953 -10.676 -22.935  0.00  0.00    +0.147 C 
BRANCH  21  25
ATOM     22  N   UNL     1      32.504  -8.683 -21.661  0.00  0.00    -0.335 NA
ATOM     23  N   UNL     1      32.344  -8.619 -19.257  0.00  0.00    -0.337 NA
ATOM     24  N   UNL     1      33.045  -6.736 -20.469  0.00  0.00    -0.283 N 
ATOM     25  C   UNL     1      32.085  -9.964 -21.617  0.00  0.00    +0.124 C 
ATOM     26  C   UNL     1      31.781 -10.632 -20.449  0.00  0.00    +0.112 C 
ATOM     27  C   UNL     1      31.930  -9.903 -19.288  0.00  0.00    +0.107 C 
ATOM     28  C   UNL     1      32.610  -8.079 -20.462  0.00  0.00    +0.195 C 
ATOM     29  C   UNL     1      31.626 -10.539 -17.974  0.00  0.00    +0.063 C 
ATOM     30  H   UNL     1      33.254  -6.290 -21.322  0.00  0.00    +0.156 HD
ATOM     31  H   UNL     1      33.140  -6.245 -19.622  0.00  0.00    +0.156 HD
ENDBRANCH  21  25
ENDBRANCH  19  21
ENDBRANCH   1  19
TORSDOF 6
ENDMDL
MODEL 7
REMARK VINA RESULT:     -10.3      3.179      7.570
REMARK  Name = 17755582
REMARK  6 active torsions:
REMARK  status: ('A' for Active; 'I' for Inactive)
REMARK    1  A    between atoms: S_1  and  C_4
REMARK    2  A    between atoms: S_1  and  N_19
REMARK    3  A    between atoms: C_5  and  N_10
REMARK    4  A    between atoms: N_10  and  C_17
REMARK    5  A    between atoms: N_19  and  C_21
REMARK    6  A    between atoms: C_21  and  C_25
REMARK                            x       y       z     vdW  Elec       q    Type
REMARK                         _______ _______ _______ _____ _____    ______ ____
ROOT
ATOM      1  S   UNL     1      32.564 -24.282 -13.032  0.00  0.00    +0.061 S 
ATOM      2  O   UNL     1      32.676 -23.203 -12.058  0.00  0.00    -0.153 OA
ATOM      3  O   UNL     1      31.676 -25.404 -12.752  0.00  0.00    -0.153 OA
ENDROOT
BRANCH   1   4
ATOM      4  C   UNL     1      32.097 -23.604 -14.571  0.00  0.00    +0.123 C 
ATOM      5  C   UNL     1      32.590 -23.142 -16.890  0.00  0.00    +0.050 C 
ATOM      6  C   UNL     1      32.964 -23.683 -15.660  0.00  0.00    +0.034 C 
ATOM      7  C   UNL     1      30.856 -22.984 -14.712  0.00  0.00    +0.020 C 
ATOM      8  C   UNL     1      31.349 -22.521 -17.031  0.00  0.00    +0.015 C 
ATOM      9  C   UNL     1      30.482 -22.441 -15.941  0.00  0.00    +0.003 C 
BRANCH   5  10
ATOM     10  N   UNL     1      33.463 -23.221 -17.987  0.00  0.00    -0.312 N 
ATOM     11  H   UNL     1      33.290 -23.958 -18.618  0.00  0.00    +0.152 HD
BRANCH  10  17
ATOM     12  O   UNL     1      35.438 -19.698 -20.372  0.00  0.00    -0.445 OA
ATOM     13  O   UNL     1      36.795 -20.611 -18.752  0.00  0.00    -0.245 OA
ATOM     14  C   UNL     1      33.400 -20.771 -19.866  0.00  0.00    +0.082 C 
ATOM     15  C   UNL     1      34.519 -21.344 -19.086  0.00  0.00    +0.072 C 
ATOM     16  C   UNL     1      34.161 -20.032 -20.939  0.00  0.00    +0.214 C 
ATOM     17  C   UNL     1      34.513 -22.417 -18.295  0.00  0.00    +0.064 C 
ATOM     18  C   UNL     1      35.733 -20.547 -19.345  0.00  0.00    +0.339 C 
ENDBRANCH  10  17
ENDBRANCH   5  10
ENDBRANCH   1   4
BRANCH   1  19
ATOM     19  N   UNL     1      34.128 -24.890 -13.355  0.00  0.00    -0.173 NA
ATOM     20  H   UNL     1      34.329 -24.680 -14.333  0.00  0.00    +0.149 HD
BRANCH  19  21
ATOM     21  C   UNL     1      35.276 -24.411 -12.573  0.00  0.00    +0.147 C 
BRANCH  21  25
ATOM     22  N   UNL     1      36.441 -23.229 -14.345  0.00  0.00    -0.335 NA
ATOM     23  N   UNL     1      38.691 -23.796 -14.995  0.00  0.00    -0.337 NA
ATOM     24  N   UNL     1      37.530 -22.059 -16.063  0.00  0.00    -0.283 N 
ATOM     25  C   UNL     1      36.500 -24.211 -13.422  0.00  0.00    +0.124 C 
ATOM     26  C   UNL     1      37.603 -25.016 -13.229  0.00  0.00    +0.112 C 
ATOM     27  C   UNL     1      38.680 -24.761 -14.051  0.00  0.00    +0.107 C 
ATOM     28  C   UNL     1      37.556 -23.078 -15.087  0.00  0.00    +0.195 C 
ATOM     29  C   UNL     1      39.919 -25.581 -13.918  0.00  0.00    +0.063 C 
ATOM     30  H   UNL     1      36.726 -21.502 -16.174  0.00  0.00    +0.156 HD
ATOM     31  H   UNL     1      38.318 -21.904 -16.633  0.00  0.00    +0.156 HD
ENDBRANCH  21  25
ENDBRANCH  19  21
ENDBRANCH   1  19
TORSDOF 6
ENDMDL
MODEL 8
REMARK VINA RESULT:     -10.3      3.110      9.554
REMARK  Name = 17755582
REMARK  6 active torsions:
REMARK  status: ('A' for Active; 'I' for Inactive)
REMARK    1  A    between atoms: S_1  and  C_4
REMARK    2  A    between atoms: S_1  and  N_19
REMARK    3  A    between atoms: C_5  and  N_10
REMARK    4  A    between atoms: N_10  and  C_17
REMARK    5  A    between atoms: N_19  and  C_21
REMARK    6  A    between atoms: C_21  and  C_25
REMARK                            x       y       z     vdW  Elec       q    Type
REMARK                         _______ _______ _______ _____ _____    ______ ____
ROOT
ATOM      1  S   UNL     1      33.633 -22.823 -17.947  0.00  0.00    +0.061 S 
ATOM      2  O   UNL     1      32.333 -22.170 -18.046  0.00  0.00    -0.153 OA
ATOM      3  O   UNL     1      33.799 -24.164 -18.492  0.00  0.00    -0.153 OA
ENDROOT
BRANCH   1   4
ATOM      4  C   UNL     1      34.836 -21.796 -18.686  0.00  0.00    +0.123 C 
ATOM      5  C   UNL     1      35.445 -20.140 -20.336  0.00  0.00    +0.050 C 
ATOM      6  C   UNL     1      34.484 -20.960 -19.746  0.00  0.00    +0.034 C 
ATOM      7  C   UNL     1      36.149 -21.811 -18.217  0.00  0.00    +0.020 C 
ATOM      8  C   UNL     1      36.758 -20.155 -19.866  0.00  0.00    +0.015 C 
ATOM      9  C   UNL     1      37.111 -20.991 -18.806  0.00  0.00    +0.003 C 
BRANCH   5  10
ATOM     10  N   UNL     1      35.091 -19.298 -21.403  0.00  0.00    -0.312 N 
ATOM     11  H   UNL     1      34.799 -19.752 -22.226  0.00  0.00    +0.152 HD
BRANCH  10  17
ATOM     12  O   UNL     1      34.804 -15.219 -23.701  0.00  0.00    -0.445 OA
ATOM     13  O   UNL     1      34.940 -14.999 -21.413  0.00  0.00    -0.245 OA
ATOM     14  C   UNL     1      34.507 -17.551 -23.882  0.00  0.00    +0.082 C 
ATOM     15  C   UNL     1      34.835 -17.155 -22.494  0.00  0.00    +0.072 C 
ATOM     16  C   UNL     1      34.924 -16.308 -24.629  0.00  0.00    +0.214 C 
ATOM     17  C   UNL     1      35.098 -17.941 -21.449  0.00  0.00    +0.064 C 
ATOM     18  C   UNL     1      34.875 -15.683 -22.419  0.00  0.00    +0.339 C 
ENDBRANCH  10  17
ENDBRANCH   5  10
ENDBRANCH   1   4
BRANCH   1  19
ATOM     19  N   UNL     1      34.115 -22.835 -16.308  0.00  0.00    -0.173 NA
ATOM     20  H   UNL     1      33.792 -21.958 -15.899  0.00  0.00    +0.149 HD
BRANCH  19  21
ATOM     21  C   UNL     1      33.657 -23.912 -15.418  0.00  0.00    +0.147 C 
BRANCH  21  25
ATOM     22  N   UNL     1      35.806 -25.003 -15.119  0.00  0.00    -0.335 NA
ATOM     23  N   UNL     1      36.775 -25.339 -12.938  0.00  0.00    -0.337 NA
ATOM     24  N   UNL     1      37.886 -26.062 -14.875  0.00  0.00    -0.283 N 
ATOM     25  C   UNL     1      34.753 -24.412 -14.518  0.00  0.00    +0.124 C 
ATOM     26  C   UNL     1      34.641 -24.250 -13.153  0.00  0.00    +0.112 C 
ATOM     27  C   UNL     1      35.692 -24.737 -12.406  0.00  0.00    +0.107 C 
ATOM     28  C   UNL     1      36.767 -25.438 -14.281  0.00  0.00    +0.195 C 
ATOM     29  C   UNL     1      35.660 -24.608 -10.920  0.00  0.00    +0.063 C 
ATOM     30  H   UNL     1      37.933 -26.162 -15.854  0.00  0.00    +0.156 HD
ATOM     31  H   UNL     1      38.618 -26.399 -14.311  0.00  0.00    +0.156 HD
ENDBRANCH  21  25
ENDBRANCH  19  21
ENDBRANCH   1  19
TORSDOF 6
ENDMDL
MODEL 9
REMARK VINA RESULT:     -10.3      7.478     10.797
REMARK  Name = 17755582
REMARK  6 active torsions:
REMARK  status: ('A' for Active; 'I' for Inactive)
REMARK    1  A    between atoms: S_1  and  C_4
REMARK    2  A    between atoms: S_1  and  N_19
REMARK    3  A    between atoms: C_5  and  N_10
REMARK    4  A    between atoms: N_10  and  C_17
REMARK    5  A    between atoms: N_19  and  C_21
REMARK    6  A    between atoms: C_21  and  C_25
REMARK                            x       y       z     vdW  Elec       q    Type
REMARK                         _______ _______ _______ _____ _____    ______ ____
ROOT
ATOM      1  S   UNL     1      33.249 -13.371 -21.543  0.00  0.00    +0.061 S 
ATOM      2  O   UNL     1      31.981 -13.767 -20.942  0.00  0.00    -0.153 OA
ATOM      3  O   UNL     1      34.438 -13.283 -20.705  0.00  0.00    -0.153 OA
ENDROOT
BRANCH   1   4
ATOM      4  C   UNL     1      33.608 -14.455 -22.864  0.00  0.00    +0.123 C 
ATOM      5  C   UNL     1      34.686 -16.447 -23.702  0.00  0.00    +0.050 C 
ATOM      6  C   UNL     1      34.400 -15.581 -22.646  0.00  0.00    +0.034 C 
ATOM      7  C   UNL     1      33.101 -14.195 -24.136  0.00  0.00    +0.020 C 
ATOM      8  C   UNL     1      34.180 -16.187 -24.975  0.00  0.00    +0.015 C 
ATOM      9  C   UNL     1      33.387 -15.060 -25.193  0.00  0.00    +0.003 C 
BRANCH   5  10
ATOM     10  N   UNL     1      35.484 -17.582 -23.483  0.00  0.00    -0.312 N 
ATOM     11  H   UNL     1      35.646 -18.149 -24.272  0.00  0.00    +0.152 HD
BRANCH  10  17
ATOM     12  O   UNL     1      35.591 -20.223 -19.608  0.00  0.00    -0.445 OA
ATOM     13  O   UNL     1      37.494 -18.971 -19.943  0.00  0.00    -0.245 OA
ATOM     14  C   UNL     1      34.489 -19.870 -21.663  0.00  0.00    +0.082 C 
ATOM     15  C   UNL     1      35.673 -18.992 -21.528  0.00  0.00    +0.072 C 
ATOM     16  C   UNL     1      34.298 -20.297 -20.228  0.00  0.00    +0.214 C 
ATOM     17  C   UNL     1      36.064 -18.000 -22.329  0.00  0.00    +0.064 C 
ATOM     18  C   UNL     1      36.391 -19.353 -20.291  0.00  0.00    +0.339 C 
ENDBRANCH  10  17
ENDBRANCH   5  10
ENDBRANCH   1   4
BRANCH   1  19
ATOM     19  N   UNL     1      33.032 -11.876 -22.342  0.00  0.00    -0.173 NA
ATOM     20  H   UNL     1      33.120 -12.060 -23.341  0.00  0.00    +0.149 HD
BRANCH  19  21
ATOM     21  C   UNL     1      31.784 -11.122 -22.157  0.00  0.00    +0.147 C 
BRANCH  21  25
ATOM     22  N   UNL     1      31.872 -10.544 -19.800  0.00  0.00    -0.335 NA
ATOM     23  N   UNL     1      32.099  -8.264 -19.053  0.00  0.00    -0.337 NA
ATOM     24  N   UNL     1      31.955 -10.029 -17.513  0.00  0.00    -0.283 N 
ATOM     25  C   UNL     1      31.897 -10.090 -21.070  0.00  0.00    +0.124 C 
ATOM     26  C   UNL     1      32.017  -8.757 -21.406  0.00  0.00    +0.112 C 
ATOM     27  C   UNL     1      32.116  -7.881 -20.346  0.00  0.00    +0.107 C 
ATOM     28  C   UNL     1      31.976  -9.590 -18.854  0.00  0.00    +0.195 C 
ATOM     29  C   UNL     1      32.249  -6.419 -20.610  0.00  0.00    +0.063 C 
ATOM     30  H   UNL     1      31.867 -10.988 -17.309  0.00  0.00    +0.156 HD
ATOM     31  H   UNL     1      32.028  -9.375 -16.780  0.00  0.00    +0.156 HD
ENDBRANCH  21  25
ENDBRANCH  19  21
ENDBRANCH   1  19
TORSDOF 6
ENDMDL
