MODEL 1
REMARK VINA RESULT:     -11.6      0.000      0.000
REMARK  Name = 445849
REMARK  5 active torsions:
REMARK  status: ('A' for Active; 'I' for Inactive)
REMARK    1  A    between atoms: C_3  and  C_20
REMARK    2  A    between atoms: C_9  and  C_14
REMARK    3  A    between atoms: C_18  and  O_26
REMARK    4  A    between atoms: C_19  and  O_24
REMARK    5  A    between atoms: O_26  and  C_28
REMARK                            x       y       z     vdW  Elec       q    Type
REMARK                         _______ _______ _______ _____ _____    ______ ____
ROOT
ATOM      1  F   UNL     1      35.790 -18.728 -23.630  0.00  0.00    -0.204 F 
ATOM      2  N   UNL     1      33.591 -14.435 -22.991  0.00  0.00    -0.312 N 
ATOM      3  C   UNL     1      33.407 -13.670 -21.871  0.00  0.00    +0.051 C 
ATOM      4  C   UNL     1      34.540 -15.539 -21.301  0.00  0.00    +0.015 C 
ATOM      5  C   UNL     1      34.280 -15.584 -22.673  0.00  0.00    +0.051 C 
ATOM      6  C   UNL     1      33.984 -14.326 -20.810  0.00  0.00    +0.016 C 
ATOM      7  C   UNL     1      35.244 -16.608 -20.710  0.00  0.00    +0.006 C 
ATOM      8  C   UNL     1      34.689 -16.647 -23.486  0.00  0.00    +0.044 C 
ATOM      9  C   UNL     1      35.658 -17.678 -21.510  0.00  0.00    +0.058 C 
ATOM     10  C   UNL     1      35.385 -17.695 -22.877  0.00  0.00    +0.144 C 
ATOM     11  H   UNL     1      33.275 -14.199 -23.894  0.00  0.00    +0.152 HD
ENDROOT
BRANCH   9  14
ATOM     12  N   UNL     1      35.714 -19.825 -20.263  0.00  0.00    -0.343 N 
ATOM     13  N   UNL     1      37.705 -18.805 -20.944  0.00  0.00    -0.285 NA
ATOM     14  C   UNL     1      36.384 -18.783 -20.902  0.00  0.00    +0.119 C 
ATOM     15  H   UNL     1      36.225 -20.563 -19.858  0.00  0.00    +0.144 HD
ATOM     16  H   UNL     1      34.731 -19.824 -20.219  0.00  0.00    +0.144 HD
ATOM     17  H   UNL     1      38.198 -19.552 -20.533  0.00  0.00    +0.188 HD
ENDBRANCH   9  14
BRANCH   3  20
ATOM     18  C   UNL     1      32.283 -10.268 -22.944  0.00  0.00    +0.172 C 
ATOM     19  C   UNL     1      32.968 -11.479 -22.925  0.00  0.00    +0.169 C 
ATOM     20  C   UNL     1      32.711 -12.405 -21.914  0.00  0.00    +0.050 C 
ATOM     21  C   UNL     1      31.343  -9.974 -21.961  0.00  0.00    +0.040 C 
ATOM     22  C   UNL     1      31.770 -12.115 -20.927  0.00  0.00    +0.004 C 
ATOM     23  C   UNL     1      31.086 -10.900 -20.949  0.00  0.00    +0.003 C 
BRANCH  19  24
ATOM     24  O   UNL     1      33.886 -11.749 -23.900  0.00  0.00    -0.503 OA
ATOM     25  H   UNL     1      34.103 -12.636 -24.107  0.00  0.00    +0.292 HD
ENDBRANCH  19  24
BRANCH  18  26
ATOM     26  O   UNL     1      32.525  -9.349 -23.930  0.00  0.00    -0.476 OA
BRANCH  26  28
ATOM     27  C   UNL     1      32.906  -7.047 -24.568  0.00  0.00    +0.040 C 
ATOM     28  C   UNL     1      33.195  -8.154 -23.539  0.00  0.00    +0.166 C 
ATOM     29  C   UNL     1      33.720  -5.784 -24.256  0.00  0.00    +0.004 C 
ATOM     30  C   UNL     1      34.694  -8.440 -23.428  0.00  0.00    +0.044 C 
ATOM     31  C   UNL     1      35.212  -6.083 -24.146  0.00  0.00    +0.000 C 
ATOM     32  C   UNL     1      35.492  -7.178 -23.124  0.00  0.00    +0.004 C 
ATOM     33  C   UNL     1      31.412  -6.717 -24.627  0.00  0.00    +0.004 C 
ENDBRANCH  26  28
ENDBRANCH  18  26
ENDBRANCH   3  20
TORSDOF 5
ENDMDL
MODEL 2
REMARK VINA RESULT:     -11.4      4.058      7.119
REMARK  Name = 445849
REMARK  5 active torsions:
REMARK  status: ('A' for Active; 'I' for Inactive)
REMARK    1  A    between atoms: C_3  and  C_20
REMARK    2  A    between atoms: C_9  and  C_14
REMARK    3  A    between atoms: C_18  and  O_26
REMARK    4  A    between atoms: C_19  and  O_24
REMARK    5  A    between atoms: O_26  and  C_28
REMARK                            x       y       z     vdW  Elec       q    Type
REMARK                         _______ _______ _______ _____ _____    ______ ____
ROOT
ATOM      1  F   UNL     1      36.926 -22.811 -16.146  0.00  0.00    -0.204 F 
ATOM      2  N   UNL     1      36.045 -20.038 -20.047  0.00  0.00    -0.312 N 
ATOM      3  C   UNL     1      34.899 -19.823 -20.764  0.00  0.00    +0.051 C 
ATOM      4  C   UNL     1      34.450 -21.266 -19.085  0.00  0.00    +0.015 C 
ATOM      5  C   UNL     1      35.800 -20.916 -19.014  0.00  0.00    +0.051 C 
ATOM      6  C   UNL     1      33.895 -20.568 -20.193  0.00  0.00    +0.016 C 
ATOM      7  C   UNL     1      33.931 -22.163 -18.130  0.00  0.00    +0.006 C 
ATOM      8  C   UNL     1      36.661 -21.422 -18.034  0.00  0.00    +0.044 C 
ATOM      9  C   UNL     1      34.781 -22.677 -17.144  0.00  0.00    +0.058 C 
ATOM     10  C   UNL     1      36.125 -22.310 -17.099  0.00  0.00    +0.144 C 
ATOM     11  H   UNL     1      36.918 -19.626 -20.241  0.00  0.00    +0.152 HD
ENDROOT
BRANCH   9  14
ATOM     12  N   UNL     1      32.923 -23.529 -15.733  0.00  0.00    -0.343 N 
ATOM     13  N   UNL     1      35.030 -24.538 -15.644  0.00  0.00    -0.285 NA
ATOM     14  C   UNL     1      34.248 -23.605 -16.158  0.00  0.00    +0.119 C 
ATOM     15  H   UNL     1      32.584 -24.167 -15.065  0.00  0.00    +0.144 HD
ATOM     16  H   UNL     1      32.327 -22.839 -16.102  0.00  0.00    +0.144 HD
ATOM     17  H   UNL     1      34.672 -25.167 -14.976  0.00  0.00    +0.188 HD
ENDBRANCH   9  14
BRANCH   3  20
ATOM     18  C   UNL     1      34.975 -16.737 -22.875  0.00  0.00    +0.172 C 
ATOM     19  C   UNL     1      35.009 -17.564 -21.756  0.00  0.00    +0.169 C 
ATOM     20  C   UNL     1      34.868 -18.943 -21.909  0.00  0.00    +0.050 C 
ATOM     21  C   UNL     1      34.800 -17.277 -24.146  0.00  0.00    +0.040 C 
ATOM     22  C   UNL     1      34.691 -19.489 -23.179  0.00  0.00    +0.004 C 
ATOM     23  C   UNL     1      34.657 -18.657 -24.299  0.00  0.00    +0.003 C 
BRANCH  19  24
ATOM     24  O   UNL     1      35.184 -17.014 -20.518  0.00  0.00    -0.503 OA
ATOM     25  H   UNL     1      34.508 -17.087 -19.873  0.00  0.00    +0.292 HD
ENDBRANCH  19  24
BRANCH  18  26
ATOM     26  O   UNL     1      35.113 -15.382 -22.741  0.00  0.00    -0.476 OA
BRANCH  26  28
ATOM     27  C   UNL     1      33.668 -13.567 -23.427  0.00  0.00    +0.040 C 
ATOM     28  C   UNL     1      33.945 -14.654 -22.373  0.00  0.00    +0.166 C 
ATOM     29  C   UNL     1      32.497 -12.673 -22.996  0.00  0.00    +0.004 C 
ATOM     30  C   UNL     1      34.156 -14.048 -20.984  0.00  0.00    +0.044 C 
ATOM     31  C   UNL     1      32.719 -12.077 -21.608  0.00  0.00    +0.000 C 
ATOM     32  C   UNL     1      32.991 -13.159 -20.569  0.00  0.00    +0.004 C 
ATOM     33  C   UNL     1      33.391 -14.181 -24.802  0.00  0.00    +0.004 C 
ENDBRANCH  26  28
ENDBRANCH  18  26
ENDBRANCH   3  20
TORSDOF 5
ENDMDL
MODEL 3
REMARK VINA RESULT:     -11.0      6.765     10.675
REMARK  Name = 445849
REMARK  5 active torsions:
REMARK  status: ('A' for Active; 'I' for Inactive)
REMARK    1  A    between atoms: C_3  and  C_20
REMARK    2  A    between atoms: C_9  and  C_14
REMARK    3  A    between atoms: C_18  and  O_26
REMARK    4  A    between atoms: C_19  and  O_24
REMARK    5  A    between atoms: O_26  and  C_28
REMARK                            x       y       z     vdW  Elec       q    Type
REMARK                         _______ _______ _______ _____ _____    ______ ____
ROOT
ATOM      1  F   UNL     1      38.864 -24.282 -13.221  0.00  0.00    -0.204 F 
ATOM      2  N   UNL     1      36.348 -22.244 -16.853  0.00  0.00    -0.312 N 
ATOM      3  C   UNL     1      35.055 -22.416 -17.266  0.00  0.00    +0.051 C 
ATOM      4  C   UNL     1      35.438 -23.754 -15.488  0.00  0.00    +0.015 C 
ATOM      5  C   UNL     1      36.610 -23.050 -15.768  0.00  0.00    +0.051 C 
ATOM      6  C   UNL     1      34.465 -23.343 -16.441  0.00  0.00    +0.016 C 
ATOM      7  C   UNL     1      35.433 -24.660 -14.408  0.00  0.00    +0.006 C 
ATOM      8  C   UNL     1      37.784 -23.207 -15.021  0.00  0.00    +0.044 C 
ATOM      9  C   UNL     1      36.599 -24.828 -13.653  0.00  0.00    +0.058 C 
ATOM     10  C   UNL     1      37.755 -24.111 -13.956  0.00  0.00    +0.144 C 
ATOM     11  H   UNL     1      36.998 -21.633 -17.273  0.00  0.00    +0.152 HD
ENDROOT
BRANCH   9  14
ATOM     12  N   UNL     1      37.177 -27.026 -12.652  0.00  0.00    -0.343 N 
ATOM     13  N   UNL     1      36.032 -25.422 -11.394  0.00  0.00    -0.285 NA
ATOM     14  C   UNL     1      36.597 -25.764 -12.539  0.00  0.00    +0.119 C 
ATOM     15  H   UNL     1      37.164 -27.644 -11.885  0.00  0.00    +0.144 HD
ATOM     16  H   UNL     1      37.599 -27.300 -13.498  0.00  0.00    +0.144 HD
ATOM     17  H   UNL     1      36.029 -26.054 -10.639  0.00  0.00    +0.188 HD
ENDBRANCH   9  14
BRANCH   3  20
ATOM     18  C   UNL     1      34.777 -20.234 -20.292  0.00  0.00    +0.172 C 
ATOM     19  C   UNL     1      35.329 -20.921 -19.214  0.00  0.00    +0.169 C 
ATOM     20  C   UNL     1      34.508 -21.693 -18.391  0.00  0.00    +0.050 C 
ATOM     21  C   UNL     1      33.413 -20.311 -20.553  0.00  0.00    +0.040 C 
ATOM     22  C   UNL     1      33.140 -21.772 -18.648  0.00  0.00    +0.004 C 
ATOM     23  C   UNL     1      32.591 -21.082 -19.729  0.00  0.00    +0.003 C 
BRANCH  19  24
ATOM     24  O   UNL     1      36.671 -20.834 -18.976  0.00  0.00    -0.503 OA
ATOM     25  H   UNL     1      37.000 -20.187 -18.384  0.00  0.00    +0.292 HD
ENDBRANCH  19  24
BRANCH  18  26
ATOM     26  O   UNL     1      35.570 -19.473 -21.108  0.00  0.00    -0.476 OA
BRANCH  26  28
ATOM     27  C   UNL     1      35.271 -18.387 -23.249  0.00  0.00    +0.040 C 
ATOM     28  C   UNL     1      34.949 -18.359 -21.744  0.00  0.00    +0.166 C 
ATOM     29  C   UNL     1      34.735 -17.129 -23.946  0.00  0.00    +0.004 C 
ATOM     30  C   UNL     1      35.449 -17.072 -21.086  0.00  0.00    +0.044 C 
ATOM     31  C   UNL     1      35.239 -15.852 -23.279  0.00  0.00    +0.000 C 
ATOM     32  C   UNL     1      34.915 -15.830 -21.789  0.00  0.00    +0.004 C 
ATOM     33  C   UNL     1      34.710 -19.646 -23.917  0.00  0.00    +0.004 C 
ENDBRANCH  26  28
ENDBRANCH  18  26
ENDBRANCH   3  20
TORSDOF 5
ENDMDL
MODEL 4
REMARK VINA RESULT:     -10.3      0.908      1.673
REMARK  Name = 445849
REMARK  5 active torsions:
REMARK  status: ('A' for Active; 'I' for Inactive)
REMARK    1  A    between atoms: C_3  and  C_20
REMARK    2  A    between atoms: C_9  and  C_14
REMARK    3  A    between atoms: C_18  and  O_26
REMARK    4  A    between atoms: C_19  and  O_24
REMARK    5  A    between atoms: O_26  and  C_28
REMARK                            x       y       z     vdW  Elec       q    Type
REMARK                         _______ _______ _______ _____ _____    ______ ____
ROOT
ATOM      1  F   UNL     1      35.804 -18.677 -23.689  0.00  0.00    -0.204 F 
ATOM      2  N   UNL     1      33.548 -14.406 -23.095  0.00  0.00    -0.312 N 
ATOM      3  C   UNL     1      33.355 -13.632 -21.983  0.00  0.00    +0.051 C 
ATOM      4  C   UNL     1      34.513 -15.480 -21.394  0.00  0.00    +0.015 C 
ATOM      5  C   UNL     1      34.253 -15.542 -22.764  0.00  0.00    +0.051 C 
ATOM      6  C   UNL     1      33.940 -14.268 -20.915  0.00  0.00    +0.016 C 
ATOM      7  C   UNL     1      35.230 -16.532 -20.791  0.00  0.00    +0.006 C 
ATOM      8  C   UNL     1      34.675 -16.609 -23.566  0.00  0.00    +0.044 C 
ATOM      9  C   UNL     1      35.659 -17.605 -21.580  0.00  0.00    +0.058 C 
ATOM     10  C   UNL     1      35.385 -17.641 -22.946  0.00  0.00    +0.144 C 
ATOM     11  H   UNL     1      33.229 -14.184 -24.000  0.00  0.00    +0.152 HD
ENDROOT
BRANCH   9  14
ATOM     12  N   UNL     1      35.745 -19.718 -20.278  0.00  0.00    -0.343 N 
ATOM     13  N   UNL     1      37.718 -18.719 -21.035  0.00  0.00    -0.285 NA
ATOM     14  C   UNL     1      36.399 -18.694 -20.960  0.00  0.00    +0.119 C 
ATOM     15  H   UNL     1      36.265 -20.445 -19.866  0.00  0.00    +0.144 HD
ATOM     16  H   UNL     1      34.763 -19.715 -20.209  0.00  0.00    +0.144 HD
ATOM     17  H   UNL     1      38.221 -19.454 -20.615  0.00  0.00    +0.188 HD
ENDBRANCH   9  14
BRANCH   3  20
ATOM     18  C   UNL     1      32.158 -10.273 -23.113  0.00  0.00    +0.172 C 
ATOM     19  C   UNL     1      32.858 -11.476 -23.082  0.00  0.00    +0.169 C 
ATOM     20  C   UNL     1      32.642 -12.377 -22.039  0.00  0.00    +0.050 C 
ATOM     21  C   UNL     1      31.244  -9.963 -22.111  0.00  0.00    +0.040 C 
ATOM     22  C   UNL     1      31.727 -12.071 -21.032  0.00  0.00    +0.004 C 
ATOM     23  C   UNL     1      31.028 -10.864 -21.067  0.00  0.00    +0.003 C 
BRANCH  19  24
ATOM     24  O   UNL     1      33.750 -11.761 -24.076  0.00  0.00    -0.503 OA
ATOM     25  H   UNL     1      33.443 -11.956 -24.939  0.00  0.00    +0.292 HD
ENDBRANCH  19  24
BRANCH  18  26
ATOM     26  O   UNL     1      32.360  -9.379 -24.130  0.00  0.00    -0.476 OA
BRANCH  26  28
ATOM     27  C   UNL     1      33.450  -7.778 -22.682  0.00  0.00    +0.040 C 
ATOM     28  C   UNL     1      32.387  -8.000 -23.772  0.00  0.00    +0.166 C 
ATOM     29  C   UNL     1      33.416  -6.330 -22.172  0.00  0.00    +0.004 C 
ATOM     30  C   UNL     1      30.995  -7.585 -23.292  0.00  0.00    +0.044 C 
ATOM     31  C   UNL     1      32.022  -5.928 -21.699  0.00  0.00    +0.000 C 
ATOM     32  C   UNL     1      30.974  -6.149 -22.784  0.00  0.00    +0.004 C 
ATOM     33  C   UNL     1      34.851  -8.131 -23.188  0.00  0.00    +0.004 C 
ENDBRANCH  26  28
ENDBRANCH  18  26
ENDBRANCH   3  20
TORSDOF 5
ENDMDL
MODEL 5
REMARK VINA RESULT:     -10.3      7.955     13.662
REMARK  Name = 445849
REMARK  5 active torsions:
REMARK  status: ('A' for Active; 'I' for Inactive)
REMARK    1  A    between atoms: C_3  and  C_20
REMARK    2  A    between atoms: C_9  and  C_14
REMARK    3  A    between atoms: C_18  and  O_26
REMARK    4  A    between atoms: C_19  and  O_24
REMARK    5  A    between atoms: O_26  and  C_28
REMARK                            x       y       z     vdW  Elec       q    Type
REMARK                         _______ _______ _______ _____ _____    ______ ____
ROOT
ATOM      1  F   UNL     1      37.533 -18.322 -22.316  0.00  0.00    -0.204 F 
ATOM      2  N   UNL     1      35.967 -21.162 -18.689  0.00  0.00    -0.312 N 
ATOM      3  C   UNL     1      34.720 -21.635 -18.383  0.00  0.00    +0.051 C 
ATOM      4  C   UNL     1      34.585 -20.370 -20.250  0.00  0.00    +0.015 C 
ATOM      5  C   UNL     1      35.915 -20.386 -19.825  0.00  0.00    +0.051 C 
ATOM      6  C   UNL     1      33.843 -21.163 -19.330  0.00  0.00    +0.016 C 
ATOM      7  C   UNL     1      34.252 -19.639 -21.407  0.00  0.00    +0.006 C 
ATOM      8  C   UNL     1      36.933 -19.704 -20.501  0.00  0.00    +0.044 C 
ATOM      9  C   UNL     1      35.259 -18.951 -22.094  0.00  0.00    +0.058 C 
ATOM     10  C   UNL     1      36.578 -18.985 -21.646  0.00  0.00    +0.144 C 
ATOM     11  H   UNL     1      36.784 -21.350 -18.171  0.00  0.00    +0.152 HD
ENDROOT
BRANCH   9  14
ATOM     12  N   UNL     1      35.301 -16.863 -23.437  0.00  0.00    -0.343 N 
ATOM     13  N   UNL     1      34.224 -18.770 -24.256  0.00  0.00    -0.285 NA
ATOM     14  C   UNL     1      34.917 -18.194 -23.289  0.00  0.00    +0.119 C 
ATOM     15  H   UNL     1      35.059 -16.370 -24.254  0.00  0.00    +0.144 HD
ATOM     16  H   UNL     1      35.815 -16.417 -22.726  0.00  0.00    +0.144 HD
ATOM     17  H   UNL     1      33.992 -18.259 -25.065  0.00  0.00    +0.188 HD
ENDBRANCH   9  14
BRANCH   3  20
ATOM     18  C   UNL     1      35.111 -23.308 -15.061  0.00  0.00    +0.172 C 
ATOM     19  C   UNL     1      35.364 -22.486 -16.155  0.00  0.00    +0.169 C 
ATOM     20  C   UNL     1      34.481 -22.479 -17.236  0.00  0.00    +0.050 C 
ATOM     21  C   UNL     1      33.984 -24.124 -15.038  0.00  0.00    +0.040 C 
ATOM     22  C   UNL     1      33.351 -23.296 -17.217  0.00  0.00    +0.004 C 
ATOM     23  C   UNL     1      33.102 -24.118 -16.119  0.00  0.00    +0.003 C 
BRANCH  19  24
ATOM     24  O   UNL     1      36.474 -21.691 -16.158  0.00  0.00    -0.503 OA
ATOM     25  H   UNL     1      36.504 -20.925 -15.619  0.00  0.00    +0.292 HD
ENDBRANCH  19  24
BRANCH  18  26
ATOM     26  O   UNL     1      35.968 -23.325 -13.993  0.00  0.00    -0.476 OA
BRANCH  26  28
ATOM     27  C   UNL     1      36.908 -24.711 -12.248  0.00  0.00    +0.040 C 
ATOM     28  C   UNL     1      36.672 -24.541 -13.759  0.00  0.00    +0.166 C 
ATOM     29  C   UNL     1      37.783 -25.939 -11.965  0.00  0.00    +0.004 C 
ATOM     30  C   UNL     1      37.992 -24.506 -14.533  0.00  0.00    +0.044 C 
ATOM     31  C   UNL     1      39.095 -25.894 -12.744  0.00  0.00    +0.000 C 
ATOM     32  C   UNL     1      38.855 -25.727 -14.240  0.00  0.00    +0.004 C 
ATOM     33  C   UNL     1      35.584 -24.813 -11.485  0.00  0.00    +0.004 C 
ENDBRANCH  26  28
ENDBRANCH  18  26
ENDBRANCH   3  20
TORSDOF 5
ENDMDL
MODEL 6
REMARK VINA RESULT:     -10.3      5.014      9.944
REMARK  Name = 445849
REMARK  5 active torsions:
REMARK  status: ('A' for Active; 'I' for Inactive)
REMARK    1  A    between atoms: C_3  and  C_20
REMARK    2  A    between atoms: C_9  and  C_14
REMARK    3  A    between atoms: C_18  and  O_26
REMARK    4  A    between atoms: C_19  and  O_24
REMARK    5  A    between atoms: O_26  and  C_28
REMARK                            x       y       z     vdW  Elec       q    Type
REMARK                         _______ _______ _______ _____ _____    ______ ____
ROOT
ATOM      1  F   UNL     1      30.473  -3.852 -24.739  0.00  0.00    -0.204 F 
ATOM      2  N   UNL     1      31.337  -8.393 -23.218  0.00  0.00    -0.312 N 
ATOM      3  C   UNL     1      31.627  -8.892 -21.978  0.00  0.00    +0.051 C 
ATOM      4  C   UNL     1      31.367  -6.654 -21.822  0.00  0.00    +0.015 C 
ATOM      5  C   UNL     1      31.173  -7.028 -23.153  0.00  0.00    +0.051 C 
ATOM      6  C   UNL     1      31.653  -7.841 -21.092  0.00  0.00    +0.016 C 
ATOM      7  C   UNL     1      31.253  -5.292 -21.477  0.00  0.00    +0.006 C 
ATOM      8  C   UNL     1      30.870  -6.105 -24.161  0.00  0.00    +0.044 C 
ATOM      9  C   UNL     1      30.952  -4.358 -22.474  0.00  0.00    +0.058 C 
ATOM     10  C   UNL     1      30.763  -4.760 -23.795  0.00  0.00    +0.144 C 
ATOM     11  H   UNL     1      31.257  -8.933 -24.039  0.00  0.00    +0.152 HD
ENDROOT
BRANCH   9  14
ATOM     12  N   UNL     1      31.952  -2.118 -22.085  0.00  0.00    -0.343 N 
ATOM     13  N   UNL     1      29.652  -2.445 -21.819  0.00  0.00    -0.285 NA
ATOM     14  C   UNL     1      30.835  -2.952 -22.120  0.00  0.00    +0.119 C 
ATOM     15  H   UNL     1      31.850  -1.170 -21.843  0.00  0.00    +0.144 HD
ATOM     16  H   UNL     1      32.842  -2.478 -22.303  0.00  0.00    +0.144 HD
ATOM     17  H   UNL     1      29.571  -1.493 -21.579  0.00  0.00    +0.188 HD
ENDBRANCH   9  14
BRANCH   3  20
ATOM     18  C   UNL     1      33.046 -12.345 -22.207  0.00  0.00    +0.172 C 
ATOM     19  C   UNL     1      32.851 -10.987 -22.442  0.00  0.00    +0.169 C 
ATOM     20  C   UNL     1      31.851 -10.301 -21.753  0.00  0.00    +0.050 C 
ATOM     21  C   UNL     1      32.250 -13.023 -21.289  0.00  0.00    +0.040 C 
ATOM     22  C   UNL     1      31.050 -10.977 -20.833  0.00  0.00    +0.004 C 
ATOM     23  C   UNL     1      31.249 -12.338 -20.600  0.00  0.00    +0.003 C 
BRANCH  19  24
ATOM     24  O   UNL     1      33.644 -10.340 -23.345  0.00  0.00    -0.503 OA
ATOM     25  H   UNL     1      34.044 -10.818 -24.045  0.00  0.00    +0.292 HD
ENDBRANCH  19  24
BRANCH  18  26
ATOM     26  O   UNL     1      34.024 -13.031 -22.875  0.00  0.00    -0.476 OA
BRANCH  26  28
ATOM     27  C   UNL     1      34.883 -15.276 -22.606  0.00  0.00    +0.040 C 
ATOM     28  C   UNL     1      33.755 -14.398 -23.175  0.00  0.00    +0.166 C 
ATOM     29  C   UNL     1      34.700 -16.742 -23.026  0.00  0.00    +0.004 C 
ATOM     30  C   UNL     1      33.629 -14.558 -24.691  0.00  0.00    +0.044 C 
ATOM     31  C   UNL     1      34.574 -16.887 -24.540  0.00  0.00    +0.000 C 
ATOM     32  C   UNL     1      33.453 -16.016 -25.097  0.00  0.00    +0.004 C 
ATOM     33  C   UNL     1      34.962 -15.166 -21.081  0.00  0.00    +0.004 C 
ENDBRANCH  26  28
ENDBRANCH  18  26
ENDBRANCH   3  20
TORSDOF 5
ENDMDL
MODEL 7
REMARK VINA RESULT:     -10.2      3.672      9.888
REMARK  Name = 445849
REMARK  5 active torsions:
REMARK  status: ('A' for Active; 'I' for Inactive)
REMARK    1  A    between atoms: C_3  and  C_20
REMARK    2  A    between atoms: C_9  and  C_14
REMARK    3  A    between atoms: C_18  and  O_26
REMARK    4  A    between atoms: C_19  and  O_24
REMARK    5  A    between atoms: O_26  and  C_28
REMARK                            x       y       z     vdW  Elec       q    Type
REMARK                         _______ _______ _______ _____ _____    ______ ____
ROOT
ATOM      1  F   UNL     1      31.196  -9.632 -21.142  0.00  0.00    -0.204 F 
ATOM      2  N   UNL     1      33.167 -14.032 -21.801  0.00  0.00    -0.312 N 
ATOM      3  C   UNL     1      34.051 -14.497 -22.736  0.00  0.00    +0.051 C 
ATOM      4  C   UNL     1      33.642 -12.312 -23.140  0.00  0.00    +0.015 C 
ATOM      5  C   UNL     1      32.899 -12.700 -22.023  0.00  0.00    +0.051 C 
ATOM      6  C   UNL     1      34.364 -13.457 -23.578  0.00  0.00    +0.016 C 
ATOM      7  C   UNL     1      33.550 -10.979 -23.586  0.00  0.00    +0.006 C 
ATOM      8  C   UNL     1      32.064 -11.818 -21.327  0.00  0.00    +0.044 C 
ATOM      9  C   UNL     1      32.718 -10.086 -22.901  0.00  0.00    +0.058 C 
ATOM     10  C   UNL     1      31.988 -10.501 -21.789  0.00  0.00    +0.144 C 
ATOM     11  H   UNL     1      32.779 -14.572 -21.074  0.00  0.00    +0.152 HD
ENDROOT
BRANCH   9  14
ATOM     12  N   UNL     1      31.707  -8.337 -24.346  0.00  0.00    -0.343 N 
ATOM     13  N   UNL     1      33.412  -7.785 -22.844  0.00  0.00    -0.285 NA
ATOM     14  C   UNL     1      32.620  -8.709 -23.361  0.00  0.00    +0.119 C 
ATOM     15  H   UNL     1      31.658  -7.400 -24.642  0.00  0.00    +0.144 HD
ATOM     16  H   UNL     1      31.111  -9.012 -24.744  0.00  0.00    +0.144 HD
ATOM     17  H   UNL     1      33.347  -6.853 -23.154  0.00  0.00    +0.188 HD
ENDBRANCH   9  14
BRANCH   3  20
ATOM     18  C   UNL     1      35.304 -17.829 -21.590  0.00  0.00    +0.172 C 
ATOM     19  C   UNL     1      34.867 -16.508 -21.556  0.00  0.00    +0.169 C 
ATOM     20  C   UNL     1      34.508 -15.867 -22.742  0.00  0.00    +0.050 C 
ATOM     21  C   UNL     1      35.388 -18.514 -22.798  0.00  0.00    +0.040 C 
ATOM     22  C   UNL     1      34.591 -16.549 -23.956  0.00  0.00    +0.004 C 
ATOM     23  C   UNL     1      35.030 -17.873 -23.985  0.00  0.00    +0.003 C 
BRANCH  19  24
ATOM     24  O   UNL     1      34.791 -15.854 -20.360  0.00  0.00    -0.503 OA
ATOM     25  H   UNL     1      34.128 -16.087 -19.740  0.00  0.00    +0.292 HD
ENDBRANCH  19  24
BRANCH  18  26
ATOM     26  O   UNL     1      35.659 -18.471 -20.434  0.00  0.00    -0.476 OA
BRANCH  26  28
ATOM     27  C   UNL     1      34.072 -20.178 -19.786  0.00  0.00    +0.040 C 
ATOM     28  C   UNL     1      35.452 -19.881 -20.397  0.00  0.00    +0.166 C 
ATOM     29  C   UNL     1      33.868 -21.689 -19.604  0.00  0.00    +0.004 C 
ATOM     30  C   UNL     1      36.577 -20.525 -19.585  0.00  0.00    +0.044 C 
ATOM     31  C   UNL     1      34.997 -22.320 -18.794  0.00  0.00    +0.000 C 
ATOM     32  C   UNL     1      36.362 -22.023 -19.405  0.00  0.00    +0.004 C 
ATOM     33  C   UNL     1      32.945 -19.589 -20.639  0.00  0.00    +0.004 C 
ENDBRANCH  26  28
ENDBRANCH  18  26
ENDBRANCH   3  20
TORSDOF 5
ENDMDL
MODEL 8
REMARK VINA RESULT:     -10.0      5.142      9.931
REMARK  Name = 445849
REMARK  5 active torsions:
REMARK  status: ('A' for Active; 'I' for Inactive)
REMARK    1  A    between atoms: C_3  and  C_20
REMARK    2  A    between atoms: C_9  and  C_14
REMARK    3  A    between atoms: C_18  and  O_26
REMARK    4  A    between atoms: C_19  and  O_24
REMARK    5  A    between atoms: O_26  and  C_28
REMARK                            x       y       z     vdW  Elec       q    Type
REMARK                         _______ _______ _______ _____ _____    ______ ____
ROOT
ATOM      1  F   UNL     1      30.514  -3.904 -24.834  0.00  0.00    -0.204 F 
ATOM      2  N   UNL     1      31.201  -8.062 -22.403  0.00  0.00    -0.312 N 
ATOM      3  C   UNL     1      31.708  -8.308 -21.156  0.00  0.00    +0.051 C 
ATOM      4  C   UNL     1      31.734  -6.080 -21.528  0.00  0.00    +0.015 C 
ATOM      5  C   UNL     1      31.205  -6.709 -22.658  0.00  0.00    +0.051 C 
ATOM      6  C   UNL     1      32.046  -7.103 -20.589  0.00  0.00    +0.016 C 
ATOM      7  C   UNL     1      31.849  -4.676 -21.526  0.00  0.00    +0.006 C 
ATOM      8  C   UNL     1      30.784  -6.001 -23.789  0.00  0.00    +0.044 C 
ATOM      9  C   UNL     1      31.433  -3.955 -22.651  0.00  0.00    +0.058 C 
ATOM     10  C   UNL     1      30.909  -4.609 -23.764  0.00  0.00    +0.144 C 
ATOM     11  H   UNL     1      30.881  -8.753 -23.028  0.00  0.00    +0.152 HD
ENDROOT
BRANCH   9  14
ATOM     12  N   UNL     1      32.422  -1.850 -23.520  0.00  0.00    -0.343 N 
ATOM     13  N   UNL     1      30.830  -1.786 -21.810  0.00  0.00    -0.285 NA
ATOM     14  C   UNL     1      31.552  -2.505 -22.651  0.00  0.00    +0.119 C 
ATOM     15  H   UNL     1      32.487  -0.867 -23.504  0.00  0.00    +0.144 HD
ATOM     16  H   UNL     1      32.971  -2.369 -24.151  0.00  0.00    +0.144 HD
ATOM     17  H   UNL     1      30.909  -0.804 -21.808  0.00  0.00    +0.188 HD
ENDBRANCH   9  14
BRANCH   3  20
ATOM     18  C   UNL     1      32.042 -12.028 -20.943  0.00  0.00    +0.172 C 
ATOM     19  C   UNL     1      31.933 -10.747 -21.478  0.00  0.00    +0.169 C 
ATOM     20  C   UNL     1      31.823  -9.648 -20.627  0.00  0.00    +0.050 C 
ATOM     21  C   UNL     1      32.042 -12.218 -19.565  0.00  0.00    +0.040 C 
ATOM     22  C   UNL     1      31.821  -9.834 -19.245  0.00  0.00    +0.004 C 
ATOM     23  C   UNL     1      31.931 -11.118 -18.713  0.00  0.00    +0.003 C 
BRANCH  19  24
ATOM     24  O   UNL     1      31.937 -10.581 -22.834  0.00  0.00    -0.503 OA
ATOM     25  H   UNL     1      31.130 -10.455 -23.293  0.00  0.00    +0.292 HD
ENDBRANCH  19  24
BRANCH  18  26
ATOM     26  O   UNL     1      32.152 -13.116 -21.767  0.00  0.00    -0.476 OA
BRANCH  26  28
ATOM     27  C   UNL     1      33.555 -14.492 -23.177  0.00  0.00    +0.040 C 
ATOM     28  C   UNL     1      33.435 -13.731 -21.845  0.00  0.00    +0.166 C 
ATOM     29  C   UNL     1      34.870 -15.281 -23.240  0.00  0.00    +0.004 C 
ATOM     30  C   UNL     1      33.610 -14.666 -20.646  0.00  0.00    +0.044 C 
ATOM     31  C   UNL     1      35.033 -16.208 -22.038  0.00  0.00    +0.000 C 
ATOM     32  C   UNL     1      34.916 -15.447 -20.721  0.00  0.00    +0.004 C 
ATOM     33  C   UNL     1      33.446 -13.543 -24.374  0.00  0.00    +0.004 C 
ENDBRANCH  26  28
ENDBRANCH  18  26
ENDBRANCH   3  20
TORSDOF 5
ENDMDL
MODEL 9
REMARK VINA RESULT:      -9.9      7.049     10.822
REMARK  Name = 445849
REMARK  5 active torsions:
REMARK  status: ('A' for Active; 'I' for Inactive)
REMARK    1  A    between atoms: C_3  and  C_20
REMARK    2  A    between atoms: C_9  and  C_14
REMARK    3  A    between atoms: C_18  and  O_26
REMARK    4  A    between atoms: C_19  and  O_24
REMARK    5  A    between atoms: O_26  and  C_28
REMARK                            x       y       z     vdW  Elec       q    Type
REMARK                         _______ _______ _______ _____ _____    ______ ____
ROOT
ATOM      1  F   UNL     1      28.355 -23.563 -15.165  0.00  0.00    -0.204 F 
ATOM      2  N   UNL     1      32.209 -22.017 -17.702  0.00  0.00    -0.312 N 
ATOM      3  C   UNL     1      33.541 -22.312 -17.593  0.00  0.00    +0.051 C 
ATOM      4  C   UNL     1      32.407 -23.466 -16.017  0.00  0.00    +0.015 C 
ATOM      5  C   UNL     1      31.492 -22.708 -16.750  0.00  0.00    +0.051 C 
ATOM      6  C   UNL     1      33.696 -23.206 -16.561  0.00  0.00    +0.016 C 
ATOM      7  C   UNL     1      31.930 -24.277 -14.968  0.00  0.00    +0.006 C 
ATOM      8  C   UNL     1      30.118 -22.719 -16.486  0.00  0.00    +0.044 C 
ATOM      9  C   UNL     1      30.558 -24.298 -14.693  0.00  0.00    +0.058 C 
ATOM     10  C   UNL     1      29.668 -23.531 -15.441  0.00  0.00    +0.144 C 
ATOM     11  H   UNL     1      31.820 -21.399 -18.363  0.00  0.00    +0.152 HD
ENDROOT
BRANCH   9  14
ATOM     12  N   UNL     1      29.111 -26.126 -13.836  0.00  0.00    -0.343 N 
ATOM     13  N   UNL     1      30.513 -24.952 -12.380  0.00  0.00    -0.285 NA
ATOM     14  C   UNL     1      30.062 -25.134 -13.609  0.00  0.00    +0.119 C 
ATOM     15  H   UNL     1      28.790 -26.680 -13.089  0.00  0.00    +0.144 HD
ATOM     16  H   UNL     1      28.761 -26.274 -14.744  0.00  0.00    +0.144 HD
ATOM     17  H   UNL     1      30.179 -25.516 -11.645  0.00  0.00    +0.188 HD
ENDBRANCH   9  14
BRANCH   3  20
ATOM     18  C   UNL     1      35.145 -20.690 -20.558  0.00  0.00    +0.172 C 
ATOM     19  C   UNL     1      34.174 -21.252 -19.733  0.00  0.00    +0.169 C 
ATOM     20  C   UNL     1      34.528 -21.724 -18.469  0.00  0.00    +0.050 C 
ATOM     21  C   UNL     1      36.465 -20.597 -20.130  0.00  0.00    +0.040 C 
ATOM     22  C   UNL     1      35.851 -21.634 -18.037  0.00  0.00    +0.004 C 
ATOM     23  C   UNL     1      36.820 -21.070 -18.866  0.00  0.00    +0.003 C 
BRANCH  19  24
ATOM     24  O   UNL     1      32.883 -21.333 -20.171  0.00  0.00    -0.503 OA
ATOM     25  H   UNL     1      32.200 -20.903 -19.696  0.00  0.00    +0.292 HD
ENDBRANCH  19  24
BRANCH  18  26
ATOM     26  O   UNL     1      34.812 -20.222 -21.801  0.00  0.00    -0.476 OA
BRANCH  26  28
ATOM     27  C   UNL     1      34.802 -18.345 -23.326  0.00  0.00    +0.040 C 
ATOM     28  C   UNL     1      34.504 -18.834 -21.898  0.00  0.00    +0.166 C 
ATOM     29  C   UNL     1      34.612 -16.825 -23.435  0.00  0.00    +0.004 C 
ATOM     30  C   UNL     1      35.327 -18.069 -20.859  0.00  0.00    +0.044 C 
ATOM     31  C   UNL     1      35.436 -16.075 -22.392  0.00  0.00    +0.000 C 
ATOM     32  C   UNL     1      35.135 -16.562 -20.980  0.00  0.00    +0.004 C 
ATOM     33  C   UNL     1      33.928 -19.065 -24.357  0.00  0.00    +0.004 C 
ENDBRANCH  26  28
ENDBRANCH  18  26
ENDBRANCH   3  20
TORSDOF 5
ENDMDL
