MODEL 1
REMARK VINA RESULT:      -9.9      0.000      0.000
REMARK  Name = 9939865
REMARK  5 active torsions:
REMARK  status: ('A' for Active; 'I' for Inactive)
REMARK    1  A    between atoms: C_1  and  C_9
REMARK    2  A    between atoms: C_1  and  C_19
REMARK    3  A    between atoms: C_1  and  N_26
REMARK    4  A    between atoms: N_3  and  C_12
REMARK    5  A    between atoms: C_27  and  C_30
REMARK                            x       y       z     vdW  Elec       q    Type
REMARK                         _______ _______ _______ _____ _____    ______ ____
ROOT
ATOM      1  C   UNL     1      31.855  -9.291 -22.436  0.00  0.00    +0.172 C 
ENDROOT
BRANCH   1   9
ATOM      2  O   UNL     1      34.123  -9.116 -23.102  0.00  0.00    -0.273 OA
ATOM      3  N   UNL     1      33.484 -14.037 -23.440  0.00  0.00    +0.390 N 
ATOM      4  N   UNL     1      33.123 -11.196 -23.363  0.00  0.00    -0.282 N 
ATOM      5  C   UNL     1      34.647 -13.137 -23.440  0.00  0.00    -0.055 C 
ATOM      6  C   UNL     1      32.377 -13.449 -22.670  0.00  0.00    -0.055 C 
ATOM      7  C   UNL     1      34.280 -11.781 -24.040  0.00  0.00    +0.071 C 
ATOM      8  C   UNL     1      31.968 -12.093 -23.250  0.00  0.00    +0.071 C 
ATOM      9  C   UNL     1      33.138  -9.852 -22.997  0.00  0.00    +0.248 C 
ATOM     10  H   UNL     1      33.175 -14.165 -24.403  0.00  0.00    -0.079 HD
BRANCH   3  12
ATOM     11  N   UNL     1      35.912 -17.272 -22.132  0.00  0.00    +0.385 N 
ATOM     12  C   UNL     1      33.847 -15.345 -22.897  0.00  0.00    -0.062 C 
ATOM     13  C   UNL     1      34.693 -15.177 -21.631  0.00  0.00    -0.044 C 
ATOM     14  C   UNL     1      34.613 -16.174 -23.931  0.00  0.00    -0.044 C 
ATOM     15  C   UNL     1      35.165 -16.534 -21.104  0.00  0.00    -0.080 C 
ATOM     16  C   UNL     1      35.089 -17.499 -23.328  0.00  0.00    -0.080 C 
ATOM     17  C   UNL     1      36.399 -18.543 -21.599  0.00  0.00    -0.101 C 
ATOM     18  H   UNL     1      36.713 -16.703 -22.407  0.00  0.00    -0.080 HD
ENDBRANCH   3  12
ENDBRANCH   1   9
BRANCH   1  19
ATOM     19  C   UNL     1      31.803  -9.405 -20.939  0.00  0.00    +0.004 C 
ATOM     20  C   UNL     1      31.982  -8.270 -20.157  0.00  0.00    -0.002 C 
ATOM     21  C   UNL     1      31.578 -10.644 -20.352  0.00  0.00    -0.002 C 
ATOM     22  C   UNL     1      31.934  -8.376 -18.767  0.00  0.00    -0.000 C 
ATOM     23  C   UNL     1      31.528 -10.750 -18.962  0.00  0.00    -0.000 C 
ATOM     24  C   UNL     1      31.706  -9.616 -18.169  0.00  0.00    -0.000 C 
ENDBRANCH   1  19
BRANCH   1  26
ATOM     25  O   UNL     1      31.556  -8.439 -25.161  0.00  0.00    -0.270 OA
ATOM     26  N   UNL     1      31.787  -7.937 -22.908  0.00  0.00    -0.291 N 
ATOM     27  C   UNL     1      31.640  -7.616 -24.253  0.00  0.00    +0.246 C 
ATOM     28  H   UNL     1      31.845  -7.206 -22.252  0.00  0.00    +0.150 HD
BRANCH  27  30
ATOM     29  N   UNL     1      29.993  -2.953 -23.733  0.00  0.00    -0.312 N 
ATOM     30  C   UNL     1      31.613  -6.167 -24.583  0.00  0.00    +0.055 C 
ATOM     31  C   UNL     1      30.733  -5.356 -23.891  0.00  0.00    +0.019 C 
ATOM     32  C   UNL     1      32.464  -5.699 -25.560  0.00  0.00    +0.005 C 
ATOM     33  C   UNL     1      30.739  -3.997 -24.230  0.00  0.00    +0.048 C 
ATOM     34  C   UNL     1      31.581  -3.471 -25.212  0.00  0.00    +0.015 C 
ATOM     35  C   UNL     1      32.460  -4.338 -25.889  0.00  0.00    +0.001 C 
ATOM     36  C   UNL     1      31.315  -2.074 -25.284  0.00  0.00    +0.017 C 
ATOM     37  C   UNL     1      30.334  -1.787 -24.363  0.00  0.00    +0.062 C 
ATOM     38  H   UNL     1      29.314  -3.033 -23.026  0.00  0.00    +0.152 HD
ENDBRANCH  27  30
ENDBRANCH   1  26
TORSDOF 5
ENDMDL
MODEL 2
REMARK VINA RESULT:      -9.7     11.859     16.521
REMARK  Name = 9939865
REMARK  5 active torsions:
REMARK  status: ('A' for Active; 'I' for Inactive)
REMARK    1  A    between atoms: C_1  and  C_9
REMARK    2  A    between atoms: C_1  and  C_19
REMARK    3  A    between atoms: C_1  and  N_26
REMARK    4  A    between atoms: N_3  and  C_12
REMARK    5  A    between atoms: C_27  and  C_30
REMARK                            x       y       z     vdW  Elec       q    Type
REMARK                         _______ _______ _______ _____ _____    ______ ____
ROOT
ATOM      1  C   UNL     1      37.127 -23.291 -13.981  0.00  0.00    +0.172 C 
ENDROOT
BRANCH   1   9
ATOM      2  O   UNL     1      36.319 -23.070 -11.765  0.00  0.00    -0.273 OA
ATOM      3  N   UNL     1      32.104 -24.256 -14.123  0.00  0.00    +0.390 N 
ATOM      4  N   UNL     1      34.838 -23.943 -13.326  0.00  0.00    -0.282 N 
ATOM      5  C   UNL     1      32.437 -23.721 -12.794  0.00  0.00    -0.055 C 
ATOM      6  C   UNL     1      33.125 -23.864 -15.106  0.00  0.00    -0.055 C 
ATOM      7  C   UNL     1      33.803 -24.229 -12.334  0.00  0.00    +0.071 C 
ATOM      8  C   UNL     1      34.508 -24.370 -14.690  0.00  0.00    +0.071 C 
ATOM      9  C   UNL     1      36.065 -23.423 -12.919  0.00  0.00    +0.248 C 
ATOM     10  H   UNL     1      32.084 -25.274 -14.065  0.00  0.00    -0.079 HD
BRANCH   3  12
ATOM     11  N   UNL     1      28.744 -23.555 -16.630  0.00  0.00    +0.385 N 
ATOM     12  C   UNL     1      30.783 -23.795 -14.545  0.00  0.00    -0.062 C 
ATOM     13  C   UNL     1      29.924 -24.983 -14.988  0.00  0.00    -0.044 C 
ATOM     14  C   UNL     1      30.894 -22.777 -15.683  0.00  0.00    -0.044 C 
ATOM     15  C   UNL     1      28.571 -24.510 -15.527  0.00  0.00    -0.080 C 
ATOM     16  C   UNL     1      29.510 -22.377 -16.200  0.00  0.00    -0.080 C 
ATOM     17  C   UNL     1      27.445 -23.152 -17.166  0.00  0.00    -0.101 C 
ATOM     18  H   UNL     1      29.273 -24.020 -17.368  0.00  0.00    -0.080 HD
ENDBRANCH   3  12
ENDBRANCH   1   9
BRANCH   1  19
ATOM     19  C   UNL     1      37.908 -24.562 -14.152  0.00  0.00    +0.004 C 
ATOM     20  C   UNL     1      37.253 -25.786 -14.079  0.00  0.00    -0.002 C 
ATOM     21  C   UNL     1      39.277 -24.502 -14.380  0.00  0.00    -0.002 C 
ATOM     22  C   UNL     1      37.979 -26.967 -14.238  0.00  0.00    -0.000 C 
ATOM     23  C   UNL     1      40.003 -25.682 -14.539  0.00  0.00    -0.000 C 
ATOM     24  C   UNL     1      39.354 -26.915 -14.468  0.00  0.00    -0.000 C 
ENDBRANCH   1  19
BRANCH   1  26
ATOM     25  O   UNL     1      38.249 -21.895 -16.225  0.00  0.00    -0.270 OA
ATOM     26  N   UNL     1      36.434 -22.883 -15.171  0.00  0.00    -0.291 N 
ATOM     27  C   UNL     1      37.061 -22.207 -16.213  0.00  0.00    +0.246 C 
ATOM     28  H   UNL     1      35.476 -23.090 -15.253  0.00  0.00    +0.150 HD
BRANCH  27  30
ATOM     29  N   UNL     1      36.040 -19.716 -20.394  0.00  0.00    -0.312 N 
ATOM     30  C   UNL     1      36.200 -21.831 -17.363  0.00  0.00    +0.055 C 
ATOM     31  C   UNL     1      36.688 -20.910 -18.272  0.00  0.00    +0.019 C 
ATOM     32  C   UNL     1      34.957 -22.416 -17.473  0.00  0.00    +0.005 C 
ATOM     33  C   UNL     1      35.847 -20.584 -19.342  0.00  0.00    +0.048 C 
ATOM     34  C   UNL     1      34.579 -21.146 -19.501  0.00  0.00    +0.015 C 
ATOM     35  C   UNL     1      34.126 -22.080 -18.548  0.00  0.00    +0.001 C 
ATOM     36  C   UNL     1      34.020 -20.587 -20.685  0.00  0.00    +0.017 C 
ATOM     37  C   UNL     1      34.942 -19.712 -21.210  0.00  0.00    +0.062 C 
ATOM     38  H   UNL     1      36.852 -19.178 -20.537  0.00  0.00    +0.152 HD
ENDBRANCH  27  30
ENDBRANCH   1  26
TORSDOF 5
ENDMDL
MODEL 3
REMARK VINA RESULT:      -9.7     11.573     15.653
REMARK  Name = 9939865
REMARK  5 active torsions:
REMARK  status: ('A' for Active; 'I' for Inactive)
REMARK    1  A    between atoms: C_1  and  C_9
REMARK    2  A    between atoms: C_1  and  C_19
REMARK    3  A    between atoms: C_1  and  N_26
REMARK    4  A    between atoms: N_3  and  C_12
REMARK    5  A    between atoms: C_27  and  C_30
REMARK                            x       y       z     vdW  Elec       q    Type
REMARK                         _______ _______ _______ _____ _____    ______ ____
ROOT
ATOM      1  C   UNL     1      32.415 -23.694 -15.795  0.00  0.00    +0.172 C 
ENDROOT
BRANCH   1   9
ATOM      2  O   UNL     1      32.268 -23.169 -13.489  0.00  0.00    -0.273 OA
ATOM      3  N   UNL     1      37.207 -23.413 -14.022  0.00  0.00    +0.390 N 
ATOM      4  N   UNL     1      34.389 -23.104 -14.434  0.00  0.00    -0.282 N 
ATOM      5  C   UNL     1      36.285 -23.378 -12.877  0.00  0.00    -0.055 C 
ATOM      6  C   UNL     1      36.555 -24.024 -15.190  0.00  0.00    -0.055 C 
ATOM      7  C   UNL     1      35.024 -22.588 -13.222  0.00  0.00    +0.071 C 
ATOM      8  C   UNL     1      35.293 -23.250 -15.579  0.00  0.00    +0.071 C 
ATOM      9  C   UNL     1      33.009 -23.297 -14.467  0.00  0.00    +0.248 C 
ATOM     10  H   UNL     1      37.462 -22.454 -14.260  0.00  0.00    -0.079 HD
BRANCH   3  12
ATOM     11  N   UNL     1      40.081 -26.542 -13.912  0.00  0.00    +0.385 N 
ATOM     12  C   UNL     1      38.427 -24.140 -13.677  0.00  0.00    -0.062 C 
ATOM     13  C   UNL     1      39.229 -24.459 -14.942  0.00  0.00    -0.044 C 
ATOM     14  C   UNL     1      38.101 -25.433 -12.926  0.00  0.00    -0.044 C 
ATOM     15  C   UNL     1      40.460 -25.306 -14.610  0.00  0.00    -0.080 C 
ATOM     16  C   UNL     1      39.368 -26.249 -12.661  0.00  0.00    -0.080 C 
ATOM     17  C   UNL     1      41.262 -27.363 -13.647  0.00  0.00    -0.101 C 
ATOM     18  H   UNL     1      39.448 -27.064 -14.518  0.00  0.00    -0.080 HD
ENDBRANCH   3  12
ENDBRANCH   1   9
BRANCH   1  19
ATOM     19  C   UNL     1      30.917 -23.777 -15.735  0.00  0.00    +0.004 C 
ATOM     20  C   UNL     1      30.312 -24.907 -15.195  0.00  0.00    -0.002 C 
ATOM     21  C   UNL     1      30.151 -22.723 -16.218  0.00  0.00    -0.002 C 
ATOM     22  C   UNL     1      28.920 -24.983 -15.140  0.00  0.00    -0.000 C 
ATOM     23  C   UNL     1      28.759 -22.799 -16.161  0.00  0.00    -0.000 C 
ATOM     24  C   UNL     1      28.144 -23.929 -15.622  0.00  0.00    -0.000 C 
ENDBRANCH   1  19
BRANCH   1  26
ATOM     25  O   UNL     1      33.624 -24.234 -18.342  0.00  0.00    -0.270 OA
ATOM     26  N   UNL     1      32.896 -22.724 -16.738  0.00  0.00    -0.291 N 
ATOM     27  C   UNL     1      33.471 -23.078 -17.954  0.00  0.00    +0.246 C 
ATOM     28  H   UNL     1      32.815 -21.769 -16.515  0.00  0.00    +0.150 HD
BRANCH  27  30
ATOM     29  N   UNL     1      36.947 -20.061 -19.834  0.00  0.00    -0.312 N 
ATOM     30  C   UNL     1      33.943 -21.957 -18.808  0.00  0.00    +0.055 C 
ATOM     31  C   UNL     1      35.292 -21.656 -18.805  0.00  0.00    +0.019 C 
ATOM     32  C   UNL     1      33.016 -21.271 -19.563  0.00  0.00    +0.005 C 
ATOM     33  C   UNL     1      35.696 -20.595 -19.623  0.00  0.00    +0.048 C 
ATOM     34  C   UNL     1      34.799 -19.866 -20.408  0.00  0.00    +0.015 C 
ATOM     35  C   UNL     1      33.434 -20.211 -20.377  0.00  0.00    +0.001 C 
ATOM     36  C   UNL     1      35.557 -18.878 -21.098  0.00  0.00    +0.017 C 
ATOM     37  C   UNL     1      36.873 -19.023 -20.724  0.00  0.00    +0.062 C 
ATOM     38  H   UNL     1      37.775 -20.380 -19.408  0.00  0.00    +0.152 HD
ENDBRANCH  27  30
ENDBRANCH   1  26
TORSDOF 5
ENDMDL
MODEL 4
REMARK VINA RESULT:      -9.4     10.575     16.135
REMARK  Name = 9939865
REMARK  5 active torsions:
REMARK  status: ('A' for Active; 'I' for Inactive)
REMARK    1  A    between atoms: C_1  and  C_9
REMARK    2  A    between atoms: C_1  and  C_19
REMARK    3  A    between atoms: C_1  and  N_26
REMARK    4  A    between atoms: N_3  and  C_12
REMARK    5  A    between atoms: C_27  and  C_30
REMARK                            x       y       z     vdW  Elec       q    Type
REMARK                         _______ _______ _______ _____ _____    ______ ____
ROOT
ATOM      1  C   UNL     1      36.673 -23.886 -15.357  0.00  0.00    +0.172 C 
ENDROOT
BRANCH   1   9
ATOM      2  O   UNL     1      38.486 -22.359 -15.340  0.00  0.00    -0.273 OA
ATOM      3  N   UNL     1      35.759 -20.445 -19.032  0.00  0.00    +0.390 N 
ATOM      4  N   UNL     1      36.673 -21.802 -16.681  0.00  0.00    -0.282 N 
ATOM      5  C   UNL     1      37.133 -20.251 -18.546  0.00  0.00    -0.055 C 
ATOM      6  C   UNL     1      35.293 -21.807 -18.731  0.00  0.00    -0.055 C 
ATOM      7  C   UNL     1      37.212 -20.491 -17.039  0.00  0.00    +0.071 C 
ATOM      8  C   UNL     1      35.341 -22.081 -17.226  0.00  0.00    +0.071 C 
ATOM      9  C   UNL     1      37.364 -22.616 -15.785  0.00  0.00    +0.248 C 
ATOM     10  H   UNL     1      35.150 -19.782 -18.552  0.00  0.00    -0.079 HD
BRANCH   3  12
ATOM     11  N   UNL     1      34.934 -18.403 -22.668  0.00  0.00    +0.385 N 
ATOM     12  C   UNL     1      35.680 -20.182 -20.468  0.00  0.00    -0.062 C 
ATOM     13  C   UNL     1      36.497 -18.937 -20.824  0.00  0.00    -0.044 C 
ATOM     14  C   UNL     1      34.227 -19.999 -20.913  0.00  0.00    -0.044 C 
ATOM     15  C   UNL     1      36.346 -18.589 -22.307  0.00  0.00    -0.080 C 
ATOM     16  C   UNL     1      34.150 -19.615 -22.393  0.00  0.00    -0.080 C 
ATOM     17  C   UNL     1      34.810 -18.022 -24.074  0.00  0.00    -0.101 C 
ATOM     18  H   UNL     1      34.558 -17.650 -22.090  0.00  0.00    -0.080 HD
ENDBRANCH   3  12
ENDBRANCH   1   9
BRANCH   1  19
ATOM     19  C   UNL     1      37.304 -24.479 -14.130  0.00  0.00    +0.004 C 
ATOM     20  C   UNL     1      37.125 -23.860 -12.898  0.00  0.00    -0.002 C 
ATOM     21  C   UNL     1      38.061 -25.639 -14.239  0.00  0.00    -0.002 C 
ATOM     22  C   UNL     1      37.711 -24.411 -11.758  0.00  0.00    -0.000 C 
ATOM     23  C   UNL     1      38.646 -26.190 -13.099  0.00  0.00    -0.000 C 
ATOM     24  C   UNL     1      38.471 -25.577 -11.859  0.00  0.00    -0.000 C 
ENDBRANCH   1  19
BRANCH   1  26
ATOM     25  O   UNL     1      34.570 -25.610 -14.438  0.00  0.00    -0.270 OA
ATOM     26  N   UNL     1      35.294 -23.533 -15.176  0.00  0.00    -0.291 N 
ATOM     27  C   UNL     1      34.339 -24.438 -14.724  0.00  0.00    +0.246 C 
ATOM     28  H   UNL     1      35.012 -22.612 -15.379  0.00  0.00    +0.150 HD
BRANCH  27  30
ATOM     29  N   UNL     1      29.998 -22.881 -16.585  0.00  0.00    -0.312 N 
ATOM     30  C   UNL     1      32.949 -23.925 -14.614  0.00  0.00    +0.055 C 
ATOM     31  C   UNL     1      32.245 -23.689 -15.780  0.00  0.00    +0.019 C 
ATOM     32  C   UNL     1      32.425 -23.708 -13.358  0.00  0.00    +0.005 C 
ATOM     33  C   UNL     1      30.938 -23.208 -15.634  0.00  0.00    +0.048 C 
ATOM     34  C   UNL     1      30.359 -22.971 -14.385  0.00  0.00    +0.015 C 
ATOM     35  C   UNL     1      31.117 -23.226 -13.226  0.00  0.00    +0.001 C 
ATOM     36  C   UNL     1      29.039 -22.493 -14.622  0.00  0.00    +0.017 C 
ATOM     37  C   UNL     1      28.847 -22.448 -15.983  0.00  0.00    +0.062 C 
ATOM     38  H   UNL     1      30.134 -22.950 -17.557  0.00  0.00    +0.152 HD
ENDBRANCH  27  30
ENDBRANCH   1  26
TORSDOF 5
ENDMDL
MODEL 5
REMARK VINA RESULT:      -9.0      1.542      9.822
REMARK  Name = 9939865
REMARK  5 active torsions:
REMARK  status: ('A' for Active; 'I' for Inactive)
REMARK    1  A    between atoms: C_1  and  C_9
REMARK    2  A    between atoms: C_1  and  C_19
REMARK    3  A    between atoms: C_1  and  N_26
REMARK    4  A    between atoms: N_3  and  C_12
REMARK    5  A    between atoms: C_27  and  C_30
REMARK                            x       y       z     vdW  Elec       q    Type
REMARK                         _______ _______ _______ _____ _____    ______ ____
ROOT
ATOM      1  C   UNL     1      33.067 -11.127 -21.769  0.00  0.00    +0.172 C 
ENDROOT
BRANCH   1   9
ATOM      2  O   UNL     1      31.151 -11.305 -23.152  0.00  0.00    -0.273 OA
ATOM      3  N   UNL     1      32.466  -6.597 -24.071  0.00  0.00    +0.390 N 
ATOM      4  N   UNL     1      32.428  -9.380 -23.392  0.00  0.00    -0.282 N 
ATOM      5  C   UNL     1      31.269  -7.412 -24.329  0.00  0.00    -0.055 C 
ATOM      6  C   UNL     1      33.169  -7.080 -22.873  0.00  0.00    -0.055 C 
ATOM      7  C   UNL     1      31.646  -8.880 -24.522  0.00  0.00    +0.071 C 
ATOM      8  C   UNL     1      33.580  -8.545 -23.033  0.00  0.00    +0.071 C 
ATOM      9  C   UNL     1      32.127 -10.620 -22.833  0.00  0.00    +0.248 C 
ATOM     10  H   UNL     1      33.093  -6.683 -24.871  0.00  0.00    -0.079 HD
BRANCH   3  12
ATOM     11  N   UNL     1      30.212  -3.155 -23.003  0.00  0.00    +0.385 N 
ATOM     12  C   UNL     1      32.105  -5.189 -23.921  0.00  0.00    -0.062 C 
ATOM     13  C   UNL     1      31.936  -4.839 -22.440  0.00  0.00    -0.044 C 
ATOM     14  C   UNL     1      30.817  -4.868 -24.684  0.00  0.00    -0.044 C 
ATOM     15  C   UNL     1      31.462  -3.394 -22.269  0.00  0.00    -0.080 C 
ATOM     16  C   UNL     1      30.378  -3.422 -24.438  0.00  0.00    -0.080 C 
ATOM     17  C   UNL     1      29.746  -1.786 -22.789  0.00  0.00    -0.101 C 
ATOM     18  H   UNL     1      29.508  -3.800 -22.644  0.00  0.00    -0.080 HD
ENDBRANCH   3  12
ENDBRANCH   1   9
BRANCH   1  19
ATOM     19  C   UNL     1      32.505 -10.938 -20.389  0.00  0.00    +0.004 C 
ATOM     20  C   UNL     1      32.373 -12.034 -19.544  0.00  0.00    -0.002 C 
ATOM     21  C   UNL     1      32.122  -9.669 -19.971  0.00  0.00    -0.002 C 
ATOM     22  C   UNL     1      31.850 -11.858 -18.263  0.00  0.00    -0.000 C 
ATOM     23  C   UNL     1      31.601  -9.493 -18.690  0.00  0.00    -0.000 C 
ATOM     24  C   UNL     1      31.465 -10.587 -17.835  0.00  0.00    -0.000 C 
ENDBRANCH   1  19
BRANCH   1  26
ATOM     25  O   UNL     1      34.515 -12.105 -24.047  0.00  0.00    -0.270 OA
ATOM     26  N   UNL     1      33.319 -12.501 -22.099  0.00  0.00    -0.291 N 
ATOM     27  C   UNL     1      34.034 -12.885 -23.229  0.00  0.00    +0.246 C 
ATOM     28  H   UNL     1      32.972 -13.201 -21.501  0.00  0.00    +0.150 HD
BRANCH  27  30
ATOM     29  N   UNL     1      35.593 -17.440 -21.985  0.00  0.00    -0.312 N 
ATOM     30  C   UNL     1      34.185 -14.347 -23.445  0.00  0.00    +0.055 C 
ATOM     31  C   UNL     1      34.865 -15.082 -22.492  0.00  0.00    +0.019 C 
ATOM     32  C   UNL     1      33.641 -14.903 -24.582  0.00  0.00    +0.005 C 
ATOM     33  C   UNL     1      34.984 -16.456 -22.731  0.00  0.00    +0.048 C 
ATOM     34  C   UNL     1      34.452 -17.071 -23.867  0.00  0.00    +0.015 C 
ATOM     35  C   UNL     1      33.768 -16.279 -24.810  0.00  0.00    +0.001 C 
ATOM     36  C   UNL     1      34.762 -18.457 -23.775  0.00  0.00    +0.017 C 
ATOM     37  C   UNL     1      35.464 -18.652 -22.608  0.00  0.00    +0.062 C 
ATOM     38  H   UNL     1      36.054 -17.292 -21.128  0.00  0.00    +0.152 HD
ENDBRANCH  27  30
ENDBRANCH   1  26
TORSDOF 5
ENDMDL
MODEL 6
REMARK VINA RESULT:      -8.6      1.478      9.768
REMARK  Name = 9939865
REMARK  5 active torsions:
REMARK  status: ('A' for Active; 'I' for Inactive)
REMARK    1  A    between atoms: C_1  and  C_9
REMARK    2  A    between atoms: C_1  and  C_19
REMARK    3  A    between atoms: C_1  and  N_26
REMARK    4  A    between atoms: N_3  and  C_12
REMARK    5  A    between atoms: C_27  and  C_30
REMARK                            x       y       z     vdW  Elec       q    Type
REMARK                         _______ _______ _______ _____ _____    ______ ____
ROOT
ATOM      1  C   UNL     1      32.977 -11.026 -21.725  0.00  0.00    +0.172 C 
ENDROOT
BRANCH   1   9
ATOM      2  O   UNL     1      30.938 -11.231 -22.915  0.00  0.00    -0.273 OA
ATOM      3  N   UNL     1      32.600  -6.921 -24.756  0.00  0.00    +0.390 N 
ATOM      4  N   UNL     1      32.363  -9.525 -23.587  0.00  0.00    -0.282 N 
ATOM      5  C   UNL     1      31.315  -7.634 -24.778  0.00  0.00    -0.055 C 
ATOM      6  C   UNL     1      33.359  -7.263 -23.543  0.00  0.00    -0.055 C 
ATOM      7  C   UNL     1      31.535  -9.145 -24.730  0.00  0.00    +0.071 C 
ATOM      8  C   UNL     1      33.615  -8.770 -23.465  0.00  0.00    +0.071 C 
ATOM      9  C   UNL     1      31.998 -10.611 -22.793  0.00  0.00    +0.248 C 
ATOM     10  H   UNL     1      33.144  -7.210 -25.569  0.00  0.00    -0.079 HD
BRANCH   3  12
ATOM     11  N   UNL     1      30.906  -3.204 -25.933  0.00  0.00    +0.385 N 
ATOM     12  C   UNL     1      32.388  -5.477 -24.836  0.00  0.00    -0.062 C 
ATOM     13  C   UNL     1      30.973  -5.123 -24.370  0.00  0.00    -0.044 C 
ATOM     14  C   UNL     1      32.611  -4.969 -26.263  0.00  0.00    -0.044 C 
ATOM     15  C   UNL     1      30.698  -3.627 -24.542  0.00  0.00    -0.080 C 
ATOM     16  C   UNL     1      32.281  -3.477 -26.373  0.00  0.00    -0.080 C 
ATOM     17  C   UNL     1      30.592  -1.786 -26.091  0.00  0.00    -0.101 C 
ATOM     18  H   UNL     1      30.276  -3.747 -26.524  0.00  0.00    -0.080 HD
ENDBRANCH   3  12
ENDBRANCH   1   9
BRANCH   1  19
ATOM     19  C   UNL     1      32.426 -10.806 -20.345  0.00  0.00    +0.004 C 
ATOM     20  C   UNL     1      32.038  -9.528 -19.956  0.00  0.00    -0.002 C 
ATOM     21  C   UNL     1      32.310 -11.880 -19.472  0.00  0.00    -0.002 C 
ATOM     22  C   UNL     1      31.526  -9.324 -18.675  0.00  0.00    -0.000 C 
ATOM     23  C   UNL     1      31.797 -11.676 -18.191  0.00  0.00    -0.000 C 
ATOM     24  C   UNL     1      31.405 -10.398 -17.793  0.00  0.00    -0.000 C 
ENDBRANCH   1  19
BRANCH   1  26
ATOM     25  O   UNL     1      34.476 -12.025 -23.960  0.00  0.00    -0.270 OA
ATOM     26  N   UNL     1      33.291 -12.399 -22.001  0.00  0.00    -0.291 N 
ATOM     27  C   UNL     1      34.026 -12.795 -23.114  0.00  0.00    +0.246 C 
ATOM     28  H   UNL     1      32.973 -13.091 -21.377  0.00  0.00    +0.150 HD
BRANCH  27  30
ATOM     29  N   UNL     1      35.554 -17.270 -21.578  0.00  0.00    -0.312 N 
ATOM     30  C   UNL     1      34.243 -14.255 -23.273  0.00  0.00    +0.055 C 
ATOM     31  C   UNL     1      34.825 -14.948 -22.227  0.00  0.00    +0.019 C 
ATOM     32  C   UNL     1      33.855 -14.853 -24.452  0.00  0.00    +0.005 C 
ATOM     33  C   UNL     1      35.011 -16.323 -22.416  0.00  0.00    +0.048 C 
ATOM     34  C   UNL     1      34.636 -16.978 -23.591  0.00  0.00    +0.015 C 
ATOM     35  C   UNL     1      34.047 -16.229 -24.628  0.00  0.00    +0.001 C 
ATOM     36  C   UNL     1      34.971 -18.352 -23.427  0.00  0.00    +0.017 C 
ATOM     37  C   UNL     1      35.534 -18.500 -22.180  0.00  0.00    +0.062 C 
ATOM     38  H   UNL     1      35.905 -17.090 -20.677  0.00  0.00    +0.152 HD
ENDBRANCH  27  30
ENDBRANCH   1  26
TORSDOF 5
ENDMDL
MODEL 7
REMARK VINA RESULT:      -8.4      4.172      9.416
REMARK  Name = 9939865
REMARK  5 active torsions:
REMARK  status: ('A' for Active; 'I' for Inactive)
REMARK    1  A    between atoms: C_1  and  C_9
REMARK    2  A    between atoms: C_1  and  C_19
REMARK    3  A    between atoms: C_1  and  N_26
REMARK    4  A    between atoms: N_3  and  C_12
REMARK    5  A    between atoms: C_27  and  C_30
REMARK                            x       y       z     vdW  Elec       q    Type
REMARK                         _______ _______ _______ _____ _____    ______ ____
ROOT
ATOM      1  C   UNL     1      32.740  -5.368 -23.744  0.00  0.00    +0.172 C 
ENDROOT
BRANCH   1   9
ATOM      2  O   UNL     1      31.438  -4.877 -25.662  0.00  0.00    -0.273 OA
ATOM      3  N   UNL     1      35.974  -5.037 -27.695  0.00  0.00    +0.390 N 
ATOM      4  N   UNL     1      33.671  -5.398 -26.030  0.00  0.00    -0.282 N 
ATOM      5  C   UNL     1      34.654  -4.561 -28.134  0.00  0.00    -0.055 C 
ATOM      6  C   UNL     1      36.093  -4.949 -26.232  0.00  0.00    -0.055 C 
ATOM      7  C   UNL     1      33.540  -5.382 -27.486  0.00  0.00    +0.071 C 
ATOM      8  C   UNL     1      35.003  -5.773 -25.544  0.00  0.00    +0.071 C 
ATOM      9  C   UNL     1      32.550  -5.192 -25.229  0.00  0.00    +0.248 C 
ATOM     10  H   UNL     1      36.072  -6.015 -27.969  0.00  0.00    -0.079 HD
BRANCH   3  12
ATOM     11  N   UNL     1      39.878  -3.917 -28.949  0.00  0.00    +0.385 N 
ATOM     12  C   UNL     1      37.038  -4.272 -28.343  0.00  0.00    -0.062 C 
ATOM     13  C   UNL     1      37.769  -5.143 -29.368  0.00  0.00    -0.044 C 
ATOM     14  C   UNL     1      38.032  -3.732 -27.312  0.00  0.00    -0.044 C 
ATOM     15  C   UNL     1      38.950  -4.389 -29.985  0.00  0.00    -0.080 C 
ATOM     16  C   UNL     1      39.204  -3.025 -27.996  0.00  0.00    -0.080 C 
ATOM     17  C   UNL     1      41.025  -3.244 -29.557  0.00  0.00    -0.101 C 
ATOM     18  H   UNL     1      40.213  -4.731 -28.433  0.00  0.00    -0.080 HD
ENDBRANCH   3  12
ENDBRANCH   1   9
BRANCH   1  19
ATOM     19  C   UNL     1      31.848  -4.452 -22.954  0.00  0.00    +0.004 C 
ATOM     20  C   UNL     1      32.054  -3.078 -23.008  0.00  0.00    -0.002 C 
ATOM     21  C   UNL     1      30.828  -4.989 -22.178  0.00  0.00    -0.002 C 
ATOM     22  C   UNL     1      31.225  -2.228 -22.275  0.00  0.00    -0.000 C 
ATOM     23  C   UNL     1      29.999  -4.139 -21.446  0.00  0.00    -0.000 C 
ATOM     24  C   UNL     1      30.198  -2.759 -21.494  0.00  0.00    -0.000 C 
ENDBRANCH   1  19
BRANCH   1  26
ATOM     25  O   UNL     1      34.335  -7.105 -22.107  0.00  0.00    -0.270 OA
ATOM     26  N   UNL     1      32.502  -6.759 -23.486  0.00  0.00    -0.291 N 
ATOM     27  C   UNL     1      33.332  -7.528 -22.675  0.00  0.00    +0.246 C 
ATOM     28  H   UNL     1      31.718  -7.188 -23.899  0.00  0.00    +0.150 HD
BRANCH  27  30
ATOM     29  N   UNL     1      33.584 -12.344 -23.884  0.00  0.00    -0.312 N 
ATOM     30  C   UNL     1      32.964  -8.959 -22.529  0.00  0.00    +0.055 C 
ATOM     31  C   UNL     1      33.554  -9.877 -23.379  0.00  0.00    +0.019 C 
ATOM     32  C   UNL     1      32.054  -9.308 -21.555  0.00  0.00    +0.005 C 
ATOM     33  C   UNL     1      33.182 -11.215 -23.207  0.00  0.00    +0.048 C 
ATOM     34  C   UNL     1      32.264 -11.623 -22.236  0.00  0.00    +0.015 C 
ATOM     35  C   UNL     1      31.690 -10.651 -21.394  0.00  0.00    +0.001 C 
ATOM     36  C   UNL     1      32.133 -13.035 -22.353  0.00  0.00    +0.017 C 
ATOM     37  C   UNL     1      32.956 -13.449 -23.375  0.00  0.00    +0.062 C 
ATOM     38  H   UNL     1      34.231 -12.356 -24.625  0.00  0.00    +0.152 HD
ENDBRANCH  27  30
ENDBRANCH   1  26
TORSDOF 5
ENDMDL
MODEL 8
REMARK VINA RESULT:      -8.3      1.312      1.872
REMARK  Name = 9939865
REMARK  5 active torsions:
REMARK  status: ('A' for Active; 'I' for Inactive)
REMARK    1  A    between atoms: C_1  and  C_9
REMARK    2  A    between atoms: C_1  and  C_19
REMARK    3  A    between atoms: C_1  and  N_26
REMARK    4  A    between atoms: N_3  and  C_12
REMARK    5  A    between atoms: C_27  and  C_30
REMARK                            x       y       z     vdW  Elec       q    Type
REMARK                         _______ _______ _______ _____ _____    ______ ____
ROOT
ATOM      1  C   UNL     1      32.281  -8.575 -22.634  0.00  0.00    +0.172 C 
ENDROOT
BRANCH   1   9
ATOM      2  O   UNL     1      34.585  -8.605 -23.186  0.00  0.00    -0.273 OA
ATOM      3  N   UNL     1      33.542 -13.457 -23.505  0.00  0.00    +0.390 N 
ATOM      4  N   UNL     1      33.424 -10.595 -23.476  0.00  0.00    -0.282 N 
ATOM      5  C   UNL     1      34.777 -12.660 -23.456  0.00  0.00    -0.055 C 
ATOM      6  C   UNL     1      32.454 -12.765 -22.799  0.00  0.00    -0.055 C 
ATOM      7  C   UNL     1      34.558 -11.286 -24.087  0.00  0.00    +0.071 C 
ATOM      8  C   UNL     1      32.192 -11.388 -23.413  0.00  0.00    +0.071 C 
ATOM      9  C   UNL     1      33.536  -9.252 -23.124  0.00  0.00    +0.248 C 
ATOM     10  H   UNL     1      33.271 -13.573 -24.481  0.00  0.00    -0.079 HD
BRANCH   3  12
ATOM     11  N   UNL     1      35.613 -16.836 -21.967  0.00  0.00    +0.385 N 
ATOM     12  C   UNL     1      33.764 -14.783 -22.931  0.00  0.00    -0.062 C 
ATOM     13  C   UNL     1      34.488 -14.664 -21.586  0.00  0.00    -0.044 C 
ATOM     14  C   UNL     1      34.574 -15.665 -23.884  0.00  0.00    -0.044 C 
ATOM     15  C   UNL     1      34.817 -16.047 -21.017  0.00  0.00    -0.080 C 
ATOM     16  C   UNL     1      34.901 -17.015 -23.240  0.00  0.00    -0.080 C 
ATOM     17  C   UNL     1      35.962 -18.133 -21.389  0.00  0.00    -0.101 C 
ATOM     18  H   UNL     1      36.473 -16.321 -22.159  0.00  0.00    -0.080 HD
ENDBRANCH   3  12
ENDBRANCH   1   9
BRANCH   1  19
ATOM     19  C   UNL     1      32.214  -8.539 -21.134  0.00  0.00    +0.004 C 
ATOM     20  C   UNL     1      31.569  -9.564 -20.450  0.00  0.00    -0.002 C 
ATOM     21  C   UNL     1      32.798  -7.483 -20.446  0.00  0.00    -0.002 C 
ATOM     22  C   UNL     1      31.508  -9.530 -19.056  0.00  0.00    -0.000 C 
ATOM     23  C   UNL     1      32.737  -7.449 -19.053  0.00  0.00    -0.000 C 
ATOM     24  C   UNL     1      32.092  -8.473 -18.358  0.00  0.00    -0.000 C 
ENDBRANCH   1  19
BRANCH   1  26
ATOM     25  O   UNL     1      31.868  -7.970 -25.410  0.00  0.00    -0.270 OA
ATOM     26  N   UNL     1      32.284  -7.272 -23.237  0.00  0.00    -0.291 N 
ATOM     27  C   UNL     1      32.074  -7.072 -24.597  0.00  0.00    +0.246 C 
ATOM     28  H   UNL     1      32.441  -6.488 -22.664  0.00  0.00    +0.150 HD
BRANCH  27  30
ATOM     29  N   UNL     1      33.888  -3.379 -27.389  0.00  0.00    -0.312 N 
ATOM     30  C   UNL     1      32.135  -5.665 -25.070  0.00  0.00    +0.055 C 
ATOM     31  C   UNL     1      33.067  -5.340 -26.039  0.00  0.00    +0.019 C 
ATOM     32  C   UNL     1      31.261  -4.750 -24.525  0.00  0.00    +0.005 C 
ATOM     33  C   UNL     1      33.090  -4.005 -26.458  0.00  0.00    +0.048 C 
ATOM     34  C   UNL     1      32.228  -3.037 -25.938  0.00  0.00    +0.015 C 
ATOM     35  C   UNL     1      31.296  -3.417 -24.953  0.00  0.00    +0.001 C 
ATOM     36  C   UNL     1      32.535  -1.810 -26.592  0.00  0.00    +0.017 C 
ATOM     37  C   UNL     1      33.560  -2.053 -27.477  0.00  0.00    +0.062 C 
ATOM     38  H   UNL     1      34.592  -3.821 -27.916  0.00  0.00    +0.152 HD
ENDBRANCH  27  30
ENDBRANCH   1  26
TORSDOF 5
ENDMDL
MODEL 9
REMARK VINA RESULT:      -8.1      9.893     17.179
REMARK  Name = 9939865
REMARK  5 active torsions:
REMARK  status: ('A' for Active; 'I' for Inactive)
REMARK    1  A    between atoms: C_1  and  C_9
REMARK    2  A    between atoms: C_1  and  C_19
REMARK    3  A    between atoms: C_1  and  N_26
REMARK    4  A    between atoms: N_3  and  C_12
REMARK    5  A    between atoms: C_27  and  C_30
REMARK                            x       y       z     vdW  Elec       q    Type
REMARK                         _______ _______ _______ _____ _____    ______ ____
ROOT
ATOM      1  C   UNL     1      33.532 -23.194 -15.118  0.00  0.00    +0.172 C 
ENDROOT
BRANCH   1   9
ATOM      2  O   UNL     1      32.140 -24.131 -16.791  0.00  0.00    -0.273 OA
ATOM      3  N   UNL     1      35.463 -21.764 -19.635  0.00  0.00    +0.390 N 
ATOM      4  N   UNL     1      34.111 -23.139 -17.517  0.00  0.00    -0.282 N 
ATOM      5  C   UNL     1      34.149 -22.381 -19.866  0.00  0.00    -0.055 C 
ATOM      6  C   UNL     1      35.571 -21.284 -18.249  0.00  0.00    -0.055 C 
ATOM      7  C   UNL     1      33.924 -23.550 -18.908  0.00  0.00    +0.071 C 
ATOM      8  C   UNL     1      35.368 -22.431 -17.256  0.00  0.00    +0.071 C 
ATOM      9  C   UNL     1      33.192 -23.535 -16.546  0.00  0.00    +0.248 C 
ATOM     10  H   UNL     1      36.183 -22.471 -19.789  0.00  0.00    -0.079 HD
BRANCH   3  12
ATOM     11  N   UNL     1      35.536 -17.815 -21.206  0.00  0.00    +0.385 N 
ATOM     12  C   UNL     1      35.689 -20.669 -20.576  0.00  0.00    -0.062 C 
ATOM     13  C   UNL     1      36.659 -19.647 -19.977  0.00  0.00    -0.044 C 
ATOM     14  C   UNL     1      34.371 -19.983 -20.946  0.00  0.00    -0.044 C 
ATOM     15  C   UNL     1      36.830 -18.443 -20.907  0.00  0.00    -0.080 C 
ATOM     16  C   UNL     1      34.617 -18.768 -21.844  0.00  0.00    -0.080 C 
ATOM     17  C   UNL     1      35.722 -16.639 -22.054  0.00  0.00    -0.101 C 
ATOM     18  H   UNL     1      35.119 -17.520 -20.323  0.00  0.00    -0.080 HD
ENDBRANCH   3  12
ENDBRANCH   1   9
BRANCH   1  19
ATOM     19  C   UNL     1      32.435 -23.592 -14.172  0.00  0.00    +0.004 C 
ATOM     20  C   UNL     1      31.538 -22.632 -13.717  0.00  0.00    -0.002 C 
ATOM     21  C   UNL     1      32.328 -24.915 -13.762  0.00  0.00    -0.002 C 
ATOM     22  C   UNL     1      30.519 -23.002 -12.839  0.00  0.00    -0.000 C 
ATOM     23  C   UNL     1      31.309 -25.286 -12.885  0.00  0.00    -0.000 C 
ATOM     24  C   UNL     1      30.404 -24.329 -12.423  0.00  0.00    -0.000 C 
ENDBRANCH   1  19
BRANCH   1  26
ATOM     25  O   UNL     1      34.945 -23.237 -12.619  0.00  0.00    -0.270 OA
ATOM     26  N   UNL     1      34.781 -23.849 -14.851  0.00  0.00    -0.291 N 
ATOM     27  C   UNL     1      35.396 -23.817 -13.603  0.00  0.00    +0.246 C 
ATOM     28  H   UNL     1      35.221 -24.342 -15.580  0.00  0.00    +0.150 HD
BRANCH  27  30
ATOM     29  N   UNL     1      39.858 -25.226 -15.286  0.00  0.00    -0.312 N 
ATOM     30  C   UNL     1      36.699 -24.522 -13.496  0.00  0.00    +0.055 C 
ATOM     31  C   UNL     1      37.577 -24.441 -14.561  0.00  0.00    +0.019 C 
ATOM     32  C   UNL     1      36.974 -25.223 -12.342  0.00  0.00    +0.005 C 
ATOM     33  C   UNL     1      38.794 -25.118 -14.419  0.00  0.00    +0.048 C 
ATOM     34  C   UNL     1      39.123 -25.843 -13.272  0.00  0.00    +0.015 C 
ATOM     35  C   UNL     1      38.196 -25.896 -12.213  0.00  0.00    +0.001 C 
ATOM     36  C   UNL     1      40.421 -26.388 -13.481  0.00  0.00    +0.017 C 
ATOM     37  C   UNL     1      40.846 -25.992 -14.728  0.00  0.00    +0.062 C 
ATOM     38  H   UNL     1      39.902 -24.813 -16.178  0.00  0.00    +0.152 HD
ENDBRANCH  27  30
ENDBRANCH   1  26
TORSDOF 5
ENDMDL
