MODEL 1
REMARK VINA RESULT:     -11.1      0.000      0.000
REMARK  Name = 23400214
REMARK  3 active torsions:
REMARK  status: ('A' for Active; 'I' for Inactive)
REMARK    1  A    between atoms: N_1  and  C_10
REMARK    2  A    between atoms: N_16  and  C_18
REMARK    3  A    between atoms: C_21  and  C_27
REMARK                            x       y       z     vdW  Elec       q    Type
REMARK                         _______ _______ _______ _____ _____    ______ ____
ROOT
ATOM      1  N   UNL     1      33.923 -13.649 -23.207  0.00  0.00    -0.176 N 
ATOM      2  N   UNL     1      33.947 -14.397 -24.327  0.00  0.00    -0.175 NA
ATOM      3  N   UNL     1      34.297 -13.872 -20.826  0.00  0.00    -0.231 NA
ATOM      4  N   UNL     1      34.913 -16.153 -20.218  0.00  0.00    -0.233 NA
ATOM      5  C   UNL     1      34.488 -15.645 -22.491  0.00  0.00    +0.152 C 
ATOM      6  C   UNL     1      34.240 -14.347 -22.080  0.00  0.00    +0.141 C 
ATOM      7  C   UNL     1      34.835 -16.564 -21.507  0.00  0.00    +0.118 C 
ATOM      8  C   UNL     1      34.291 -15.610 -23.884  0.00  0.00    +0.106 C 
ATOM      9  C   UNL     1      34.643 -14.851 -19.961  0.00  0.00    +0.253 C 
ATOM     10  N   UNL     1      35.104 -17.905 -21.834  0.00  0.00    -0.301 N 
ATOM     11  H   UNL     1      35.021 -18.101 -22.795  0.00  0.00    +0.153 HD
ENDROOT
BRANCH  10  12
ATOM     12  C   UNL     1      35.470 -19.026 -21.058  0.00  0.00    +0.045 C 
ATOM     13  C   UNL     1      36.812 -19.358 -20.874  0.00  0.00    -0.008 C 
ATOM     14  C   UNL     1      34.473 -19.804 -20.472  0.00  0.00    +0.019 C 
ATOM     15  C   UNL     1      34.816 -20.916 -19.703  0.00  0.00    +0.055 C 
ATOM     16  C   UNL     1      37.156 -20.470 -20.104  0.00  0.00    -0.003 C 
ATOM     17  C   UNL     1      36.158 -21.248 -19.518  0.00  0.00    +0.004 C 
ATOM     18  C   UNL     1      37.903 -18.543 -21.489  0.00  0.00    +0.032 C 
BRANCH  15  21
ATOM     19  O   UNL     1      32.648 -21.803 -19.612  0.00  0.00    -0.270 OA
ATOM     20  N   UNL     1      34.112 -22.420 -17.923  0.00  0.00    -0.299 N 
ATOM     21  C   UNL     1      33.775 -21.727 -19.091  0.00  0.00    +0.246 C 
ATOM     22  C   UNL     1      33.196 -23.284 -17.215  0.00  0.00    +0.111 C 
ATOM     23  H   UNL     1      35.023 -22.315 -17.566  0.00  0.00    +0.150 HD
ENDBRANCH  15  21
ENDBRANCH  10  12
BRANCH   1  24
ATOM     24  C   UNL     1      33.598 -12.296 -23.277  0.00  0.00    +0.075 C 
ATOM     25  C   UNL     1      34.485 -11.394 -23.864  0.00  0.00    +0.017 C 
ATOM     26  C   UNL     1      32.385 -11.842 -22.757  0.00  0.00    +0.017 C 
ATOM     27  C   UNL     1      34.159 -10.039 -23.933  0.00  0.00    +0.001 C 
ATOM     28  C   UNL     1      32.059 -10.489 -22.825  0.00  0.00    +0.001 C 
ATOM     29  C   UNL     1      32.946  -9.586 -23.413  0.00  0.00    +0.000 C 
ENDBRANCH   1  24
TORSDOF 3
ENDMDL
MODEL 2
REMARK VINA RESULT:     -10.8      2.858      5.528
REMARK  Name = 23400214
REMARK  3 active torsions:
REMARK  status: ('A' for Active; 'I' for Inactive)
REMARK    1  A    between atoms: N_1  and  C_10
REMARK    2  A    between atoms: N_16  and  C_18
REMARK    3  A    between atoms: C_21  and  C_27
REMARK                            x       y       z     vdW  Elec       q    Type
REMARK                         _______ _______ _______ _____ _____    ______ ____
ROOT
ATOM      1  N   UNL     1      32.902  -8.827 -22.743  0.00  0.00    -0.176 N 
ATOM      2  N   UNL     1      34.043  -8.718 -23.449  0.00  0.00    -0.175 NA
ATOM      3  N   UNL     1      31.434 -10.534 -21.854  0.00  0.00    -0.231 NA
ATOM      4  N   UNL     1      32.234 -12.778 -22.381  0.00  0.00    -0.233 NA
ATOM      5  C   UNL     1      33.480 -10.909 -23.129  0.00  0.00    +0.152 C 
ATOM      6  C   UNL     1      32.521 -10.117 -22.522  0.00  0.00    +0.141 C 
ATOM      7  C   UNL     1      33.310 -12.286 -23.042  0.00  0.00    +0.118 C 
ATOM      8  C   UNL     1      34.390  -9.988 -23.681  0.00  0.00    +0.106 C 
ATOM      9  C   UNL     1      31.375 -11.884 -21.836  0.00  0.00    +0.253 C 
ATOM     10  N   UNL     1      34.237 -13.166 -23.629  0.00  0.00    -0.301 N 
ATOM     11  H   UNL     1      34.981 -12.710 -24.084  0.00  0.00    +0.153 HD
ENDROOT
BRANCH  10  12
ATOM     12  C   UNL     1      34.312 -14.574 -23.695  0.00  0.00    +0.045 C 
ATOM     13  C   UNL     1      33.769 -15.267 -24.776  0.00  0.00    -0.008 C 
ATOM     14  C   UNL     1      34.939 -15.272 -22.663  0.00  0.00    +0.019 C 
ATOM     15  C   UNL     1      35.021 -16.665 -22.712  0.00  0.00    +0.055 C 
ATOM     16  C   UNL     1      33.851 -16.660 -24.825  0.00  0.00    -0.003 C 
ATOM     17  C   UNL     1      34.478 -17.358 -23.793  0.00  0.00    +0.004 C 
ATOM     18  C   UNL     1      33.092 -14.546 -25.896  0.00  0.00    +0.032 C 
BRANCH  15  21
ATOM     19  O   UNL     1      35.313 -17.233 -20.456  0.00  0.00    -0.270 OA
ATOM     20  N   UNL     1      36.695 -18.280 -21.996  0.00  0.00    -0.299 N 
ATOM     21  C   UNL     1      35.675 -17.393 -21.635  0.00  0.00    +0.246 C 
ATOM     22  C   UNL     1      37.421 -19.090 -21.045  0.00  0.00    +0.111 C 
ATOM     23  H   UNL     1      36.930 -18.357 -22.948  0.00  0.00    +0.150 HD
ENDBRANCH  15  21
ENDBRANCH  10  12
BRANCH   1  24
ATOM     24  C   UNL     1      32.234  -7.683 -22.313  0.00  0.00    +0.075 C 
ATOM     25  C   UNL     1      31.126  -7.215 -23.020  0.00  0.00    +0.017 C 
ATOM     26  C   UNL     1      32.671  -7.004 -21.175  0.00  0.00    +0.017 C 
ATOM     27  C   UNL     1      30.457  -6.069 -22.590  0.00  0.00    +0.001 C 
ATOM     28  C   UNL     1      32.003  -5.859 -20.745  0.00  0.00    +0.001 C 
ATOM     29  C   UNL     1      30.895  -5.391 -21.453  0.00  0.00    +0.000 C 
ENDBRANCH   1  24
TORSDOF 3
ENDMDL
MODEL 3
REMARK VINA RESULT:     -10.6      2.989      5.814
REMARK  Name = 23400214
REMARK  3 active torsions:
REMARK  status: ('A' for Active; 'I' for Inactive)
REMARK    1  A    between atoms: N_1  and  C_10
REMARK    2  A    between atoms: N_16  and  C_18
REMARK    3  A    between atoms: C_21  and  C_27
REMARK                            x       y       z     vdW  Elec       q    Type
REMARK                         _______ _______ _______ _____ _____    ______ ____
ROOT
ATOM      1  N   UNL     1      31.748  -8.949 -22.011  0.00  0.00    -0.176 N 
ATOM      2  N   UNL     1      30.787  -9.691 -21.429  0.00  0.00    -0.175 NA
ATOM      3  N   UNL     1      33.800  -9.235 -23.264  0.00  0.00    -0.231 NA
ATOM      4  N   UNL     1      34.331 -11.592 -23.601  0.00  0.00    -0.233 NA
ATOM      5  C   UNL     1      32.372 -11.017 -22.404  0.00  0.00    +0.152 C 
ATOM      6  C   UNL     1      32.721  -9.693 -22.609  0.00  0.00    +0.141 C 
ATOM      7  C   UNL     1      33.223 -11.983 -22.927  0.00  0.00    +0.118 C 
ATOM      8  C   UNL     1      31.172 -10.948 -21.672  0.00  0.00    +0.106 C 
ATOM      9  C   UNL     1      34.548 -10.261 -23.726  0.00  0.00    +0.253 C 
ATOM     10  N   UNL     1      32.946 -13.353 -22.766  0.00  0.00    -0.301 N 
ATOM     11  H   UNL     1      32.119 -13.532 -22.263  0.00  0.00    +0.153 HD
ENDROOT
BRANCH  10  12
ATOM     12  C   UNL     1      33.619 -14.522 -23.181  0.00  0.00    +0.045 C 
ATOM     13  C   UNL     1      33.594 -14.922 -24.517  0.00  0.00    -0.008 C 
ATOM     14  C   UNL     1      34.314 -15.279 -22.239  0.00  0.00    +0.019 C 
ATOM     15  C   UNL     1      34.985 -16.438 -22.632  0.00  0.00    +0.055 C 
ATOM     16  C   UNL     1      34.264 -16.082 -24.911  0.00  0.00    -0.003 C 
ATOM     17  C   UNL     1      34.960 -16.839 -23.968  0.00  0.00    +0.004 C 
ATOM     18  C   UNL     1      32.857 -14.131 -25.549  0.00  0.00    +0.032 C 
BRANCH  15  21
ATOM     19  O   UNL     1      35.437 -17.133 -20.439  0.00  0.00    -0.270 OA
ATOM     20  N   UNL     1      36.695 -18.096 -22.133  0.00  0.00    -0.299 N 
ATOM     21  C   UNL     1      35.710 -17.228 -21.649  0.00  0.00    +0.246 C 
ATOM     22  C   UNL     1      37.483 -18.961 -21.285  0.00  0.00    +0.111 C 
ATOM     23  H   UNL     1      36.859 -18.120 -23.103  0.00  0.00    +0.150 HD
ENDBRANCH  15  21
ENDBRANCH  10  12
BRANCH   1  24
ATOM     24  C   UNL     1      31.683  -7.558 -21.964  0.00  0.00    +0.075 C 
ATOM     25  C   UNL     1      32.368  -6.861 -20.968  0.00  0.00    +0.017 C 
ATOM     26  C   UNL     1      30.933  -6.861 -22.912  0.00  0.00    +0.017 C 
ATOM     27  C   UNL     1      32.303  -5.469 -20.920  0.00  0.00    +0.001 C 
ATOM     28  C   UNL     1      30.868  -5.470 -22.864  0.00  0.00    +0.001 C 
ATOM     29  C   UNL     1      31.553  -4.772 -21.868  0.00  0.00    +0.000 C 
ENDBRANCH   1  24
TORSDOF 3
ENDMDL
MODEL 4
REMARK VINA RESULT:     -10.5      5.653     11.739
REMARK  Name = 23400214
REMARK  3 active torsions:
REMARK  status: ('A' for Active; 'I' for Inactive)
REMARK    1  A    between atoms: N_1  and  C_10
REMARK    2  A    between atoms: N_16  and  C_18
REMARK    3  A    between atoms: C_21  and  C_27
REMARK                            x       y       z     vdW  Elec       q    Type
REMARK                         _______ _______ _______ _____ _____    ______ ____
ROOT
ATOM      1  N   UNL     1      32.900 -12.828 -22.954  0.00  0.00    -0.176 N 
ATOM      2  N   UNL     1      31.719 -12.856 -22.308  0.00  0.00    -0.175 NA
ATOM      3  N   UNL     1      34.514 -11.228 -23.788  0.00  0.00    -0.231 NA
ATOM      4  N   UNL     1      33.824  -8.932 -23.339  0.00  0.00    -0.233 NA
ATOM      5  C   UNL     1      32.430 -10.708 -22.630  0.00  0.00    +0.152 C 
ATOM      6  C   UNL     1      33.370 -11.567 -23.172  0.00  0.00    +0.141 C 
ATOM      7  C   UNL     1      32.688  -9.346 -22.728  0.00  0.00    +0.118 C 
ATOM      8  C   UNL     1      31.439 -11.563 -22.113  0.00  0.00    +0.106 C 
ATOM      9  C   UNL     1      34.655  -9.885 -23.824  0.00  0.00    +0.253 C 
ATOM     10  N   UNL     1      31.787  -8.401 -22.205  0.00  0.00    -0.301 N 
ATOM     11  H   UNL     1      30.994  -8.803 -21.783  0.00  0.00    +0.153 HD
ENDROOT
BRANCH  10  12
ATOM     12  C   UNL     1      31.794  -6.990 -22.166  0.00  0.00    +0.045 C 
ATOM     13  C   UNL     1      32.230  -6.310 -21.029  0.00  0.00    -0.008 C 
ATOM     14  C   UNL     1      31.359  -6.275 -23.281  0.00  0.00    +0.019 C 
ATOM     15  C   UNL     1      31.358  -4.880 -23.260  0.00  0.00    +0.055 C 
ATOM     16  C   UNL     1      32.229  -4.915 -21.006  0.00  0.00    -0.003 C 
ATOM     17  C   UNL     1      31.794  -4.200 -22.123  0.00  0.00    +0.004 C 
ATOM     18  C   UNL     1      32.701  -7.050 -19.819  0.00  0.00    +0.032 C 
BRANCH  15  21
ATOM     19  O   UNL     1      31.250  -4.480 -25.567  0.00  0.00    -0.270 OA
ATOM     20  N   UNL     1      30.057  -3.045 -24.190  0.00  0.00    -0.299 N 
ATOM     21  C   UNL     1      30.904  -4.135 -24.423  0.00  0.00    +0.246 C 
ATOM     22  C   UNL     1      29.505  -2.224 -25.243  0.00  0.00    +0.111 C 
ATOM     23  H   UNL     1      29.823  -2.829 -23.259  0.00  0.00    +0.150 HD
ENDBRANCH  15  21
ENDBRANCH  10  12
BRANCH   1  24
ATOM     24  C   UNL     1      33.519 -14.017 -23.331  0.00  0.00    +0.075 C 
ATOM     25  C   UNL     1      34.423 -14.637 -22.468  0.00  0.00    +0.017 C 
ATOM     26  C   UNL     1      33.237 -14.589 -24.572  0.00  0.00    +0.017 C 
ATOM     27  C   UNL     1      35.044 -15.828 -22.845  0.00  0.00    +0.001 C 
ATOM     28  C   UNL     1      33.858 -15.779 -24.950  0.00  0.00    +0.001 C 
ATOM     29  C   UNL     1      34.762 -16.399 -24.086  0.00  0.00    +0.000 C 
ENDBRANCH   1  24
TORSDOF 3
ENDMDL
MODEL 5
REMARK VINA RESULT:     -10.4      4.086      6.548
REMARK  Name = 23400214
REMARK  3 active torsions:
REMARK  status: ('A' for Active; 'I' for Inactive)
REMARK    1  A    between atoms: N_1  and  C_10
REMARK    2  A    between atoms: N_16  and  C_18
REMARK    3  A    between atoms: C_21  and  C_27
REMARK                            x       y       z     vdW  Elec       q    Type
REMARK                         _______ _______ _______ _____ _____    ______ ____
ROOT
ATOM      1  N   UNL     1      35.651 -19.444 -21.009  0.00  0.00    -0.176 N 
ATOM      2  N   UNL     1      36.928 -19.341 -20.595  0.00  0.00    -0.175 NA
ATOM      3  N   UNL     1      33.581 -20.526 -20.372  0.00  0.00    -0.231 NA
ATOM      4  N   UNL     1      33.846 -21.860 -18.348  0.00  0.00    -0.233 NA
ATOM      5  C   UNL     1      35.716 -20.687 -19.202  0.00  0.00    +0.152 C 
ATOM      6  C   UNL     1      34.883 -20.238 -20.211  0.00  0.00    +0.141 C 
ATOM      7  C   UNL     1      35.156 -21.528 -18.246  0.00  0.00    +0.118 C 
ATOM      8  C   UNL     1      36.961 -20.100 -19.494  0.00  0.00    +0.106 C 
ATOM      9  C   UNL     1      33.150 -21.346 -19.389  0.00  0.00    +0.253 C 
ATOM     10  N   UNL     1      35.929 -22.032 -17.186  0.00  0.00    -0.301 N 
ATOM     11  H   UNL     1      36.866 -21.732 -17.203  0.00  0.00    +0.153 HD
ENDROOT
BRANCH  10  12
ATOM     12  C   UNL     1      35.629 -22.884 -16.101  0.00  0.00    +0.045 C 
ATOM     13  C   UNL     1      36.645 -23.412 -15.306  0.00  0.00    -0.008 C 
ATOM     14  C   UNL     1      34.297 -23.196 -15.829  0.00  0.00    +0.019 C 
ATOM     15  C   UNL     1      33.981 -24.037 -14.761  0.00  0.00    +0.055 C 
ATOM     16  C   UNL     1      36.330 -24.254 -14.238  0.00  0.00    -0.003 C 
ATOM     17  C   UNL     1      34.997 -24.565 -13.965  0.00  0.00    +0.004 C 
ATOM     18  C   UNL     1      38.081 -23.096 -15.574  0.00  0.00    +0.032 C 
BRANCH  15  21
ATOM     19  O   UNL     1      32.296 -25.046 -13.481  0.00  0.00    -0.270 OA
ATOM     20  N   UNL     1      31.628 -23.854 -15.354  0.00  0.00    -0.299 N 
ATOM     21  C   UNL     1      32.592 -24.362 -14.477  0.00  0.00    +0.246 C 
ATOM     22  C   UNL     1      30.209 -24.070 -15.193  0.00  0.00    +0.111 C 
ATOM     23  H   UNL     1      31.933 -23.319 -16.122  0.00  0.00    +0.150 HD
ENDBRANCH  15  21
ENDBRANCH  10  12
BRANCH   1  24
ATOM     24  C   UNL     1      35.232 -18.772 -22.155  0.00  0.00    +0.075 C 
ATOM     25  C   UNL     1      35.414 -17.393 -22.261  0.00  0.00    +0.017 C 
ATOM     26  C   UNL     1      34.628 -19.477 -23.197  0.00  0.00    +0.017 C 
ATOM     27  C   UNL     1      34.992 -16.719 -23.408  0.00  0.00    +0.001 C 
ATOM     28  C   UNL     1      34.206 -18.804 -24.343  0.00  0.00    +0.001 C 
ATOM     29  C   UNL     1      34.389 -17.424 -24.449  0.00  0.00    +0.000 C 
ENDBRANCH   1  24
TORSDOF 3
ENDMDL
MODEL 6
REMARK VINA RESULT:     -10.1      4.845      7.765
REMARK  Name = 23400214
REMARK  3 active torsions:
REMARK  status: ('A' for Active; 'I' for Inactive)
REMARK    1  A    between atoms: N_1  and  C_10
REMARK    2  A    between atoms: N_16  and  C_18
REMARK    3  A    between atoms: C_21  and  C_27
REMARK                            x       y       z     vdW  Elec       q    Type
REMARK                         _______ _______ _______ _____ _____    ______ ____
ROOT
ATOM      1  N   UNL     1      34.277 -20.375 -20.240  0.00  0.00    -0.176 N 
ATOM      2  N   UNL     1      33.025 -20.849 -20.101  0.00  0.00    -0.175 NA
ATOM      3  N   UNL     1      36.439 -20.515 -19.158  0.00  0.00    -0.231 NA
ATOM      4  N   UNL     1      36.373 -21.958 -17.193  0.00  0.00    -0.233 NA
ATOM      5  C   UNL     1      34.393 -21.639 -18.449  0.00  0.00    +0.152 C 
ATOM      6  C   UNL     1      35.136 -20.817 -19.278  0.00  0.00    +0.141 C 
ATOM      7  C   UNL     1      35.056 -22.220 -17.374  0.00  0.00    +0.118 C 
ATOM      8  C   UNL     1      33.102 -21.618 -19.009  0.00  0.00    +0.106 C 
ATOM      9  C   UNL     1      36.974 -21.134 -18.083  0.00  0.00    +0.253 C 
ATOM     10  N   UNL     1      34.379 -23.069 -16.481  0.00  0.00    -0.301 N 
ATOM     11  H   UNL     1      33.427 -23.194 -16.700  0.00  0.00    +0.153 HD
ENDROOT
BRANCH  10  12
ATOM     12  C   UNL     1      34.792 -23.777 -15.332  0.00  0.00    +0.045 C 
ATOM     13  C   UNL     1      33.978 -23.840 -14.201  0.00  0.00    -0.008 C 
ATOM     14  C   UNL     1      36.029 -24.420 -15.337  0.00  0.00    +0.019 C 
ATOM     15  C   UNL     1      36.455 -25.124 -14.209  0.00  0.00    +0.055 C 
ATOM     16  C   UNL     1      34.403 -24.544 -13.074  0.00  0.00    -0.003 C 
ATOM     17  C   UNL     1      35.641 -25.187 -13.079  0.00  0.00    +0.004 C 
ATOM     18  C   UNL     1      32.647 -23.161 -14.168  0.00  0.00    +0.032 C 
BRANCH  15  21
ATOM     19  O   UNL     1      37.831 -27.000 -13.922  0.00  0.00    -0.270 OA
ATOM     20  N   UNL     1      38.859 -25.028 -14.579  0.00  0.00    -0.299 N 
ATOM     21  C   UNL     1      37.746 -25.794 -14.214  0.00  0.00    +0.246 C 
ATOM     22  C   UNL     1      40.201 -25.556 -14.654  0.00  0.00    +0.111 C 
ATOM     23  H   UNL     1      38.719 -24.079 -14.799  0.00  0.00    +0.150 HD
ENDBRANCH  15  21
ENDBRANCH  10  12
BRANCH   1  24
ATOM     24  C   UNL     1      34.588 -19.519 -21.294  0.00  0.00    +0.075 C 
ATOM     25  C   UNL     1      35.276 -18.330 -21.048  0.00  0.00    +0.017 C 
ATOM     26  C   UNL     1      34.211 -19.848 -22.596  0.00  0.00    +0.017 C 
ATOM     27  C   UNL     1      35.586 -17.472 -22.103  0.00  0.00    +0.001 C 
ATOM     28  C   UNL     1      34.520 -18.991 -23.651  0.00  0.00    +0.001 C 
ATOM     29  C   UNL     1      35.209 -17.802 -23.404  0.00  0.00    +0.000 C 
ENDBRANCH   1  24
TORSDOF 3
ENDMDL
MODEL 7
REMARK VINA RESULT:     -10.0      3.299      9.651
REMARK  Name = 23400214
REMARK  3 active torsions:
REMARK  status: ('A' for Active; 'I' for Inactive)
REMARK    1  A    between atoms: N_1  and  C_10
REMARK    2  A    between atoms: N_16  and  C_18
REMARK    3  A    between atoms: C_21  and  C_27
REMARK                            x       y       z     vdW  Elec       q    Type
REMARK                         _______ _______ _______ _____ _____    ______ ____
ROOT
ATOM      1  N   UNL     1      35.172 -17.192 -21.990  0.00  0.00    -0.176 N 
ATOM      2  N   UNL     1      35.124 -17.167 -23.336  0.00  0.00    -0.175 NA
ATOM      3  N   UNL     1      34.767 -15.739 -20.097  0.00  0.00    -0.231 NA
ATOM      4  N   UNL     1      34.041 -13.520 -20.801  0.00  0.00    -0.233 NA
ATOM      5  C   UNL     1      34.509 -15.151 -22.451  0.00  0.00    +0.152 C 
ATOM      6  C   UNL     1      34.814 -16.012 -21.411  0.00  0.00    +0.141 C 
ATOM      7  C   UNL     1      34.110 -13.864 -22.110  0.00  0.00    +0.118 C 
ATOM      8  C   UNL     1      34.719 -15.922 -23.610  0.00  0.00    +0.106 C 
ATOM      9  C   UNL     1      34.369 -14.465 -19.889  0.00  0.00    +0.253 C 
ATOM     10  N   UNL     1      33.781 -12.923 -23.103  0.00  0.00    -0.301 N 
ATOM     11  H   UNL     1      33.863 -13.272 -24.019  0.00  0.00    +0.153 HD
ENDROOT
BRANCH  10  12
ATOM     12  C   UNL     1      33.356 -11.579 -23.045  0.00  0.00    +0.045 C 
ATOM     13  C   UNL     1      32.060 -11.257 -22.643  0.00  0.00    -0.008 C 
ATOM     14  C   UNL     1      34.249 -10.567 -23.396  0.00  0.00    +0.019 C 
ATOM     15  C   UNL     1      33.846  -9.232 -23.346  0.00  0.00    +0.055 C 
ATOM     16  C   UNL     1      31.656  -9.922 -22.592  0.00  0.00    -0.003 C 
ATOM     17  C   UNL     1      32.550  -8.909 -22.943  0.00  0.00    +0.004 C 
ATOM     18  C   UNL     1      31.082 -12.320 -22.261  0.00  0.00    +0.032 C 
BRANCH  15  21
ATOM     19  O   UNL     1      35.999  -8.321 -23.526  0.00  0.00    -0.270 OA
ATOM     20  N   UNL     1      34.236  -7.023 -24.291  0.00  0.00    -0.299 N 
ATOM     21  C   UNL     1      34.777  -8.176 -23.711  0.00  0.00    +0.246 C 
ATOM     22  C   UNL     1      35.033  -5.900 -24.729  0.00  0.00    +0.111 C 
ATOM     23  H   UNL     1      33.260  -6.975 -24.409  0.00  0.00    +0.150 HD
ENDBRANCH  15  21
ENDBRANCH  10  12
BRANCH   1  24
ATOM     24  C   UNL     1      35.562 -18.354 -21.327  0.00  0.00    +0.075 C 
ATOM     25  C   UNL     1      34.608 -19.307 -20.971  0.00  0.00    +0.017 C 
ATOM     26  C   UNL     1      36.906 -18.563 -21.016  0.00  0.00    +0.017 C 
ATOM     27  C   UNL     1      34.997 -20.470 -20.305  0.00  0.00    +0.001 C 
ATOM     28  C   UNL     1      37.295 -19.725 -20.351  0.00  0.00    +0.001 C 
ATOM     29  C   UNL     1      36.341 -20.679 -19.995  0.00  0.00    +0.000 C 
ENDBRANCH   1  24
TORSDOF 3
ENDMDL
MODEL 8
REMARK VINA RESULT:      -9.9      2.501      4.345
REMARK  Name = 23400214
REMARK  3 active torsions:
REMARK  status: ('A' for Active; 'I' for Inactive)
REMARK    1  A    between atoms: N_1  and  C_10
REMARK    2  A    between atoms: N_16  and  C_18
REMARK    3  A    between atoms: C_21  and  C_27
REMARK                            x       y       z     vdW  Elec       q    Type
REMARK                         _______ _______ _______ _____ _____    ______ ____
ROOT
ATOM      1  N   UNL     1      33.137 -10.187 -22.659  0.00  0.00    -0.176 N 
ATOM      2  N   UNL     1      34.112 -10.092 -23.583  0.00  0.00    -0.175 NA
ATOM      3  N   UNL     1      31.965 -11.870 -21.373  0.00  0.00    -0.231 NA
ATOM      4  N   UNL     1      32.772 -14.116 -21.878  0.00  0.00    -0.233 NA
ATOM      5  C   UNL     1      33.745 -12.270 -22.994  0.00  0.00    +0.152 C 
ATOM      6  C   UNL     1      32.878 -11.468 -22.272  0.00  0.00    +0.141 C 
ATOM      7  C   UNL     1      33.671 -13.640 -22.772  0.00  0.00    +0.118 C 
ATOM      8  C   UNL     1      34.478 -11.363 -23.782  0.00  0.00    +0.106 C 
ATOM      9  C   UNL     1      31.986 -13.215 -21.243  0.00  0.00    +0.253 C 
ATOM     10  N   UNL     1      34.515 -14.529 -23.463  0.00  0.00    -0.301 N 
ATOM     11  H   UNL     1      35.130 -14.084 -24.088  0.00  0.00    +0.153 HD
ENDROOT
BRANCH  10  12
ATOM     12  C   UNL     1      34.654 -15.933 -23.436  0.00  0.00    +0.045 C 
ATOM     13  C   UNL     1      34.011 -16.732 -24.382  0.00  0.00    -0.008 C 
ATOM     14  C   UNL     1      35.446 -16.521 -22.451  0.00  0.00    +0.019 C 
ATOM     15  C   UNL     1      35.593 -17.908 -22.409  0.00  0.00    +0.055 C 
ATOM     16  C   UNL     1      34.158 -18.119 -24.341  0.00  0.00    -0.003 C 
ATOM     17  C   UNL     1      34.951 -18.707 -23.355  0.00  0.00    +0.004 C 
ATOM     18  C   UNL     1      33.156 -16.129 -25.450  0.00  0.00    +0.032 C 
BRANCH  15  21
ATOM     19  O   UNL     1      37.613 -18.196 -21.254  0.00  0.00    -0.270 OA
ATOM     20  N   UNL     1      35.803 -19.461 -20.546  0.00  0.00    -0.299 N 
ATOM     21  C   UNL     1      36.419 -18.522 -21.381  0.00  0.00    +0.246 C 
ATOM     22  C   UNL     1      36.484 -20.137 -19.466  0.00  0.00    +0.111 C 
ATOM     23  H   UNL     1      34.855 -19.671 -20.703  0.00  0.00    +0.150 HD
ENDBRANCH  15  21
ENDBRANCH  10  12
BRANCH   1  24
ATOM     24  C   UNL     1      32.501  -9.039 -22.193  0.00  0.00    +0.075 C 
ATOM     25  C   UNL     1      32.738  -8.589 -20.893  0.00  0.00    +0.017 C 
ATOM     26  C   UNL     1      31.627  -8.338 -23.024  0.00  0.00    +0.017 C 
ATOM     27  C   UNL     1      32.100  -7.440 -20.426  0.00  0.00    +0.001 C 
ATOM     28  C   UNL     1      30.990  -7.189 -22.557  0.00  0.00    +0.001 C 
ATOM     29  C   UNL     1      31.226  -6.739 -21.257  0.00  0.00    +0.000 C 
ENDBRANCH   1  24
TORSDOF 3
ENDMDL
MODEL 9
REMARK VINA RESULT:      -9.8      3.092      6.034
REMARK  Name = 23400214
REMARK  3 active torsions:
REMARK  status: ('A' for Active; 'I' for Inactive)
REMARK    1  A    between atoms: N_1  and  C_10
REMARK    2  A    between atoms: N_16  and  C_18
REMARK    3  A    between atoms: C_21  and  C_27
REMARK                            x       y       z     vdW  Elec       q    Type
REMARK                         _______ _______ _______ _____ _____    ______ ____
ROOT
ATOM      1  N   UNL     1      31.773  -8.520 -22.753  0.00  0.00    -0.176 N 
ATOM      2  N   UNL     1      30.691  -9.179 -22.298  0.00  0.00    -0.175 NA
ATOM      3  N   UNL     1      33.965  -8.977 -23.673  0.00  0.00    -0.231 NA
ATOM      4  N   UNL     1      34.389 -11.373 -23.848  0.00  0.00    -0.233 NA
ATOM      5  C   UNL     1      32.315 -10.635 -22.979  0.00  0.00    +0.152 C 
ATOM      6  C   UNL     1      32.774  -9.344 -23.173  0.00  0.00    +0.141 C 
ATOM      7  C   UNL     1      33.170 -11.671 -23.337  0.00  0.00    +0.118 C 
ATOM      8  C   UNL     1      31.026 -10.465 -22.439  0.00  0.00    +0.106 C 
ATOM      9  C   UNL     1      34.706 -10.064 -23.983  0.00  0.00    +0.253 C 
ATOM     10  N   UNL     1      32.785 -13.014 -23.174  0.00  0.00    -0.301 N 
ATOM     11  H   UNL     1      31.883 -13.123 -22.796  0.00  0.00    +0.153 HD
ENDROOT
BRANCH  10  12
ATOM     12  C   UNL     1      33.435 -14.237 -23.445  0.00  0.00    +0.045 C 
ATOM     13  C   UNL     1      33.454 -14.764 -24.736  0.00  0.00    -0.008 C 
ATOM     14  C   UNL     1      34.065 -14.918 -22.404  0.00  0.00    +0.019 C 
ATOM     15  C   UNL     1      34.712 -16.129 -22.654  0.00  0.00    +0.055 C 
ATOM     16  C   UNL     1      34.101 -15.975 -24.986  0.00  0.00    -0.003 C 
ATOM     17  C   UNL     1      34.731 -16.657 -23.945  0.00  0.00    +0.004 C 
ATOM     18  C   UNL     1      32.788 -14.055 -25.871  0.00  0.00    +0.032 C 
BRANCH  15  21
ATOM     19  O   UNL     1      35.084 -16.586 -20.385  0.00  0.00    -0.270 OA
ATOM     20  N   UNL     1      36.302 -17.821 -21.923  0.00  0.00    -0.299 N 
ATOM     21  C   UNL     1      35.369 -16.841 -21.568  0.00  0.00    +0.246 C 
ATOM     22  C   UNL     1      37.018 -18.627 -20.961  0.00  0.00    +0.111 C 
ATOM     23  H   UNL     1      36.479 -17.971 -22.879  0.00  0.00    +0.150 HD
ENDBRANCH  15  21
ENDBRANCH  10  12
BRANCH   1  24
ATOM     24  C   UNL     1      31.792  -7.127 -22.762  0.00  0.00    +0.075 C 
ATOM     25  C   UNL     1      31.844  -6.438 -23.974  0.00  0.00    +0.017 C 
ATOM     26  C   UNL     1      31.759  -6.420 -21.559  0.00  0.00    +0.017 C 
ATOM     27  C   UNL     1      31.864  -5.042 -23.983  0.00  0.00    +0.001 C 
ATOM     28  C   UNL     1      31.779  -5.026 -21.568  0.00  0.00    +0.001 C 
ATOM     29  C   UNL     1      31.831  -4.336 -22.780  0.00  0.00    +0.000 C 
ENDBRANCH   1  24
TORSDOF 3
ENDMDL
