MODEL 1
REMARK VINA RESULT:     -11.4      0.000      0.000
REMARK  Name = 24995524
REMARK  4 active torsions:
REMARK  status: ('A' for Active; 'I' for Inactive)
REMARK    1  A    between atoms: N_5  and  C_13
REMARK    2  A    between atoms: C_6  and  C_19
REMARK    3  A    between atoms: C_19  and  C_20
REMARK    4  A    between atoms: C_20  and  N_22
REMARK                            x       y       z     vdW  Elec       q    Type
REMARK                         _______ _______ _______ _____ _____    ______ ____
ROOT
ATOM      1  S   UNL     1      36.485 -20.630 -19.453  0.00  0.00    -0.056 S 
ATOM      2  O   UNL     1      35.328 -23.437 -15.907  0.00  0.00    -0.252 OA
ATOM      3  N   UNL     1      34.542 -21.974 -18.405  0.00  0.00    -0.223 NA
ATOM      4  N   UNL     1      36.665 -22.071 -17.272  0.00  0.00    -0.248 N 
ATOM      5  N   UNL     1      37.578 -23.080 -15.374  0.00  0.00    -0.268 N 
ATOM      6  C   UNL     1      34.960 -20.581 -20.237  0.00  0.00    +0.031 C 
ATOM      7  C   UNL     1      34.055 -21.351 -19.538  0.00  0.00    +0.103 C 
ATOM      8  C   UNL     1      35.812 -21.665 -18.262  0.00  0.00    +0.166 C 
ATOM      9  C   UNL     1      36.416 -22.923 -16.147  0.00  0.00    +0.310 C 
ATOM     10  H   UNL     1      37.585 -21.727 -17.343  0.00  0.00    +0.158 HD
ATOM     11  H   UNL     1      38.377 -22.603 -15.694  0.00  0.00    +0.156 HD
ENDROOT
BRANCH   5  13
ATOM     12 CL   UNL     1      36.377 -23.781 -10.431  0.00  0.00    -0.082 Cl
ATOM     13  C   UNL     1      37.740 -23.840 -14.191  0.00  0.00    +0.052 C 
ATOM     14  C   UNL     1      37.057 -23.478 -13.030  0.00  0.00    +0.026 C 
ATOM     15  C   UNL     1      38.584 -24.951 -14.187  0.00  0.00    +0.015 C 
ATOM     16  C   UNL     1      37.219 -24.228 -11.865  0.00  0.00    +0.059 C 
ATOM     17  C   UNL     1      38.745 -25.700 -13.022  0.00  0.00    +0.002 C 
ATOM     18  C   UNL     1      38.063 -25.338 -11.861  0.00  0.00    +0.011 C 
ENDBRANCH   5  13
BRANCH   6  19
ATOM     19  C   UNL     1      34.771 -19.773 -21.498  0.00  0.00    +0.056 C 
BRANCH  19  20
ATOM     20  C   UNL     1      35.805 -18.659 -21.657  0.00  0.00    +0.093 C 
BRANCH  20  22
ATOM     21  S   UNL     1      34.156 -15.331 -24.440  0.00  0.00    -0.101 S 
ATOM     22  N   UNL     1      35.289 -17.592 -22.461  0.00  0.00    -0.320 N 
ATOM     23  N   UNL     1      35.001 -16.137 -20.600  0.00  0.00    -0.233 NA
ATOM     24  N   UNL     1      34.120 -13.895 -20.831  0.00  0.00    -0.247 NA
ATOM     25  C   UNL     1      34.895 -16.351 -21.926  0.00  0.00    +0.118 C 
ATOM     26  C   UNL     1      34.399 -15.340 -22.741  0.00  0.00    +0.145 C 
ATOM     27  C   UNL     1      34.020 -14.127 -22.168  0.00  0.00    +0.073 C 
ATOM     28  C   UNL     1      33.535 -13.205 -23.143  0.00  0.00    +0.022 C 
ATOM     29  C   UNL     1      33.556 -13.732 -24.414  0.00  0.00    +0.033 C 
ATOM     30  C   UNL     1      34.611 -14.935 -20.138  0.00  0.00    +0.251 C 
ATOM     31  H   UNL     1      35.205 -17.733 -23.432  0.00  0.00    +0.148 HD
ENDBRANCH  20  22
ENDBRANCH  19  20
ENDBRANCH   6  19
TORSDOF 4
ENDMDL
MODEL 2
REMARK VINA RESULT:     -11.2      1.188      1.643
REMARK  Name = 24995524
REMARK  4 active torsions:
REMARK  status: ('A' for Active; 'I' for Inactive)
REMARK    1  A    between atoms: N_5  and  C_13
REMARK    2  A    between atoms: C_6  and  C_19
REMARK    3  A    between atoms: C_19  and  C_20
REMARK    4  A    between atoms: C_20  and  N_22
REMARK                            x       y       z     vdW  Elec       q    Type
REMARK                         _______ _______ _______ _____ _____    ______ ____
ROOT
ATOM      1  S   UNL     1      36.655 -20.537 -19.368  0.00  0.00    -0.056 S 
ATOM      2  O   UNL     1      35.344 -23.428 -15.945  0.00  0.00    -0.252 OA
ATOM      3  N   UNL     1      34.661 -21.882 -18.424  0.00  0.00    -0.223 NA
ATOM      4  N   UNL     1      36.744 -22.043 -17.225  0.00  0.00    -0.248 N 
ATOM      5  N   UNL     1      37.579 -23.120 -15.329  0.00  0.00    -0.268 N 
ATOM      6  C   UNL     1      35.159 -20.443 -20.200  0.00  0.00    +0.031 C 
ATOM      7  C   UNL     1      34.220 -21.220 -19.554  0.00  0.00    +0.103 C 
ATOM      8  C   UNL     1      35.929 -21.597 -18.230  0.00  0.00    +0.166 C 
ATOM      9  C   UNL     1      36.445 -22.924 -16.135  0.00  0.00    +0.310 C 
ATOM     10  H   UNL     1      37.670 -21.711 -17.256  0.00  0.00    +0.158 HD
ATOM     11  H   UNL     1      38.395 -22.646 -15.609  0.00  0.00    +0.156 HD
ENDROOT
BRANCH   5  13
ATOM     12 CL   UNL     1      36.290 -23.886 -10.418  0.00  0.00    -0.082 Cl
ATOM     13  C   UNL     1      37.692 -23.916 -14.165  0.00  0.00    +0.052 C 
ATOM     14  C   UNL     1      37.013 -23.551 -13.002  0.00  0.00    +0.026 C 
ATOM     15  C   UNL     1      38.482 -25.066 -14.180  0.00  0.00    +0.015 C 
ATOM     16  C   UNL     1      37.126 -24.337 -11.854  0.00  0.00    +0.059 C 
ATOM     17  C   UNL     1      38.595 -25.850 -13.033  0.00  0.00    +0.002 C 
ATOM     18  C   UNL     1      37.916 -25.486 -11.870  0.00  0.00    +0.011 C 
ENDBRANCH   5  13
BRANCH   6  19
ATOM     19  C   UNL     1      35.022 -19.596 -21.442  0.00  0.00    +0.056 C 
BRANCH  19  20
ATOM     20  C   UNL     1      36.091 -18.509 -21.546  0.00  0.00    +0.093 C 
BRANCH  20  22
ATOM     21  S   UNL     1      34.263 -14.293 -20.892  0.00  0.00    -0.101 S 
ATOM     22  N   UNL     1      35.511 -17.206 -21.412  0.00  0.00    -0.320 N 
ATOM     23  N   UNL     1      34.945 -17.061 -23.718  0.00  0.00    -0.233 NA
ATOM     24  N   UNL     1      33.839 -15.127 -24.663  0.00  0.00    -0.247 NA
ATOM     25  C   UNL     1      34.949 -16.502 -22.492  0.00  0.00    +0.118 C 
ATOM     26  C   UNL     1      34.396 -15.238 -22.319  0.00  0.00    +0.145 C 
ATOM     27  C   UNL     1      33.850 -14.577 -23.419  0.00  0.00    +0.073 C 
ATOM     28  C   UNL     1      33.329 -13.296 -23.066  0.00  0.00    +0.022 C 
ATOM     29  C   UNL     1      33.488 -13.020 -21.727  0.00  0.00    +0.033 C 
ATOM     30  C   UNL     1      34.397 -16.348 -24.718  0.00  0.00    +0.251 C 
ATOM     31  H   UNL     1      35.507 -16.784 -20.522  0.00  0.00    +0.148 HD
ENDBRANCH  20  22
ENDBRANCH  19  20
ENDBRANCH   6  19
TORSDOF 4
ENDMDL
MODEL 3
REMARK VINA RESULT:     -10.8      4.931     11.084
REMARK  Name = 24995524
REMARK  4 active torsions:
REMARK  status: ('A' for Active; 'I' for Inactive)
REMARK    1  A    between atoms: N_5  and  C_13
REMARK    2  A    between atoms: C_6  and  C_19
REMARK    3  A    between atoms: C_19  and  C_20
REMARK    4  A    between atoms: C_20  and  N_22
REMARK                            x       y       z     vdW  Elec       q    Type
REMARK                         _______ _______ _______ _____ _____    ______ ____
ROOT
ATOM      1  S   UNL     1      33.556 -23.637 -16.082  0.00  0.00    -0.056 S 
ATOM      2  O   UNL     1      32.621 -20.605 -19.507  0.00  0.00    -0.252 OA
ATOM      3  N   UNL     1      31.656 -22.331 -17.250  0.00  0.00    -0.223 NA
ATOM      4  N   UNL     1      33.885 -21.999 -18.101  0.00  0.00    -0.248 N 
ATOM      5  N   UNL     1      34.938 -20.770 -19.785  0.00  0.00    -0.268 N 
ATOM      6  C   UNL     1      31.957 -23.852 -15.498  0.00  0.00    +0.031 C 
ATOM      7  C   UNL     1      31.087 -23.081 -16.240  0.00  0.00    +0.103 C 
ATOM      8  C   UNL     1      32.953 -22.544 -17.260  0.00  0.00    +0.166 C 
ATOM      9  C   UNL     1      33.707 -21.068 -19.176  0.00  0.00    +0.310 C 
ATOM     10  H   UNL     1      34.813 -22.289 -17.945  0.00  0.00    +0.158 HD
ATOM     11  H   UNL     1      35.727 -21.221 -19.407  0.00  0.00    +0.156 HD
ENDROOT
BRANCH   5  13
ATOM     12 CL   UNL     1      33.555 -19.099 -24.439  0.00  0.00    -0.082 Cl
ATOM     13  C   UNL     1      35.181 -19.900 -20.873  0.00  0.00    +0.052 C 
ATOM     14  C   UNL     1      34.345 -19.925 -21.988  0.00  0.00    +0.026 C 
ATOM     15  C   UNL     1      36.260 -19.015 -20.830  0.00  0.00    +0.015 C 
ATOM     16  C   UNL     1      34.587 -19.067 -23.061  0.00  0.00    +0.059 C 
ATOM     17  C   UNL     1      36.502 -18.158 -21.902  0.00  0.00    +0.002 C 
ATOM     18  C   UNL     1      35.665 -18.184 -23.018  0.00  0.00    +0.011 C 
ENDBRANCH   5  13
BRANCH   6  19
ATOM     19  C   UNL     1      31.681 -24.779 -14.339  0.00  0.00    +0.056 C 
BRANCH  19  20
ATOM     20  C   UNL     1      32.620 -24.553 -13.155  0.00  0.00    +0.093 C 
BRANCH  20  22
ATOM     21  S   UNL     1      36.887 -25.874 -14.413  0.00  0.00    -0.101 S 
ATOM     22  N   UNL     1      33.959 -24.941 -13.481  0.00  0.00    -0.320 N 
ATOM     23  N   UNL     1      34.815 -24.304 -11.355  0.00  0.00    -0.233 NA
ATOM     24  N   UNL     1      37.152 -24.543 -10.773  0.00  0.00    -0.247 NA
ATOM     25  C   UNL     1      35.035 -24.813 -12.583  0.00  0.00    +0.118 C 
ATOM     26  C   UNL     1      36.321 -25.203 -12.939  0.00  0.00    +0.145 C 
ATOM     27  C   UNL     1      37.356 -25.056 -12.016  0.00  0.00    +0.073 C 
ATOM     28  C   UNL     1      38.606 -25.502 -12.542  0.00  0.00    +0.022 C 
ATOM     29  C   UNL     1      38.491 -25.970 -13.832  0.00  0.00    +0.033 C 
ATOM     30  C   UNL     1      35.876 -24.201 -10.533  0.00  0.00    +0.251 C 
ATOM     31  H   UNL     1      34.135 -25.315 -14.375  0.00  0.00    +0.148 HD
ENDBRANCH  20  22
ENDBRANCH  19  20
ENDBRANCH   6  19
TORSDOF 4
ENDMDL
MODEL 4
REMARK VINA RESULT:     -10.8      1.790      2.341
REMARK  Name = 24995524
REMARK  4 active torsions:
REMARK  status: ('A' for Active; 'I' for Inactive)
REMARK    1  A    between atoms: N_5  and  C_13
REMARK    2  A    between atoms: C_6  and  C_19
REMARK    3  A    between atoms: C_19  and  C_20
REMARK    4  A    between atoms: C_20  and  N_22
REMARK                            x       y       z     vdW  Elec       q    Type
REMARK                         _______ _______ _______ _____ _____    ______ ____
ROOT
ATOM      1  S   UNL     1      36.572 -19.979 -20.193  0.00  0.00    -0.056 S 
ATOM      2  O   UNL     1      35.261 -22.783 -16.697  0.00  0.00    -0.252 OA
ATOM      3  N   UNL     1      34.565 -21.262 -19.188  0.00  0.00    -0.223 NA
ATOM      4  N   UNL     1      36.668 -21.452 -18.027  0.00  0.00    -0.248 N 
ATOM      5  N   UNL     1      37.515 -22.517 -16.129  0.00  0.00    -0.268 N 
ATOM      6  C   UNL     1      35.062 -19.864 -20.997  0.00  0.00    +0.031 C 
ATOM      7  C   UNL     1      34.118 -20.608 -20.320  0.00  0.00    +0.103 C 
ATOM      8  C   UNL     1      35.844 -21.003 -19.024  0.00  0.00    +0.166 C 
ATOM      9  C   UNL     1      36.370 -22.307 -16.916  0.00  0.00    +0.310 C 
ATOM     10  H   UNL     1      37.601 -21.142 -18.081  0.00  0.00    +0.158 HD
ATOM     11  H   UNL     1      38.336 -22.066 -16.433  0.00  0.00    +0.156 HD
ENDROOT
BRANCH   5  13
ATOM     12 CL   UNL     1      40.045 -26.150 -13.528  0.00  0.00    -0.082 Cl
ATOM     13  C   UNL     1      37.632 -23.296 -14.954  0.00  0.00    +0.052 C 
ATOM     14  C   UNL     1      38.661 -24.229 -14.835  0.00  0.00    +0.026 C 
ATOM     15  C   UNL     1      36.717 -23.129 -13.913  0.00  0.00    +0.015 C 
ATOM     16  C   UNL     1      38.775 -24.997 -13.675  0.00  0.00    +0.059 C 
ATOM     17  C   UNL     1      36.830 -23.897 -12.755  0.00  0.00    +0.002 C 
ATOM     18  C   UNL     1      37.860 -24.831 -12.636  0.00  0.00    +0.011 C 
ENDBRANCH   5  13
BRANCH   6  19
ATOM     19  C   UNL     1      34.921 -19.035 -22.251  0.00  0.00    +0.056 C 
BRANCH  19  20
ATOM     20  C   UNL     1      35.887 -17.853 -22.299  0.00  0.00    +0.093 C 
BRANCH  20  22
ATOM     21  S   UNL     1      33.811 -13.943 -20.904  0.00  0.00    -0.101 S 
ATOM     22  N   UNL     1      35.225 -16.636 -21.933  0.00  0.00    -0.320 N 
ATOM     23  N   UNL     1      34.476 -16.208 -24.150  0.00  0.00    -0.233 NA
ATOM     24  N   UNL     1      33.163 -14.256 -24.721  0.00  0.00    -0.247 NA
ATOM     25  C   UNL     1      34.532 -15.832 -22.857  0.00  0.00    +0.118 C 
ATOM     26  C   UNL     1      33.903 -14.658 -22.461  0.00  0.00    +0.145 C 
ATOM     27  C   UNL     1      33.229 -13.892 -23.412  0.00  0.00    +0.073 C 
ATOM     28  C   UNL     1      32.643 -12.724 -22.838  0.00  0.00    +0.022 C 
ATOM     29  C   UNL     1      32.884 -12.631 -21.486  0.00  0.00    +0.033 C 
ATOM     30  C   UNL     1      33.802 -15.405 -24.995  0.00  0.00    +0.251 C 
ATOM     31  H   UNL     1      35.258 -16.348 -20.992  0.00  0.00    +0.148 HD
ENDBRANCH  20  22
ENDBRANCH  19  20
ENDBRANCH   6  19
TORSDOF 4
ENDMDL
MODEL 5
REMARK VINA RESULT:     -10.8      3.443      3.963
REMARK  Name = 24995524
REMARK  4 active torsions:
REMARK  status: ('A' for Active; 'I' for Inactive)
REMARK    1  A    between atoms: N_5  and  C_13
REMARK    2  A    between atoms: C_6  and  C_19
REMARK    3  A    between atoms: C_19  and  C_20
REMARK    4  A    between atoms: C_20  and  N_22
REMARK                            x       y       z     vdW  Elec       q    Type
REMARK                         _______ _______ _______ _____ _____    ______ ____
ROOT
ATOM      1  S   UNL     1      33.256 -20.313 -20.571  0.00  0.00    -0.056 S 
ATOM      2  O   UNL     1      34.203 -23.070 -16.924  0.00  0.00    -0.252 OA
ATOM      3  N   UNL     1      35.156 -21.548 -19.328  0.00  0.00    -0.223 NA
ATOM      4  N   UNL     1      32.936 -21.774 -18.419  0.00  0.00    -0.248 N 
ATOM      5  N   UNL     1      31.894 -22.848 -16.626  0.00  0.00    -0.268 N 
ATOM      6  C   UNL     1      34.847 -20.171 -21.194  0.00  0.00    +0.031 C 
ATOM      7  C   UNL     1      35.719 -20.892 -20.405  0.00  0.00    +0.103 C 
ATOM      8  C   UNL     1      33.862 -21.313 -19.315  0.00  0.00    +0.166 C 
ATOM      9  C   UNL     1      33.118 -22.618 -17.275  0.00  0.00    +0.310 C 
ATOM     10  H   UNL     1      32.010 -21.483 -18.584  0.00  0.00    +0.158 HD
ATOM     11  H   UNL     1      31.105 -22.416 -17.027  0.00  0.00    +0.156 HD
ENDROOT
BRANCH   5  13
ATOM     12 CL   UNL     1      28.701 -25.866 -13.968  0.00  0.00    -0.082 Cl
ATOM     13  C   UNL     1      31.655 -23.623 -15.467  0.00  0.00    +0.052 C 
ATOM     14  C   UNL     1      30.438 -24.285 -15.309  0.00  0.00    +0.026 C 
ATOM     15  C   UNL     1      32.639 -23.726 -14.482  0.00  0.00    +0.015 C 
ATOM     16  C   UNL     1      30.204 -25.049 -14.165  0.00  0.00    +0.059 C 
ATOM     17  C   UNL     1      32.404 -24.489 -13.339  0.00  0.00    +0.002 C 
ATOM     18  C   UNL     1      31.187 -25.151 -13.181  0.00  0.00    +0.011 C 
ENDBRANCH   5  13
BRANCH   6  19
ATOM     19  C   UNL     1      35.117 -19.349 -22.431  0.00  0.00    +0.056 C 
BRANCH  19  20
ATOM     20  C   UNL     1      35.971 -18.113 -22.154  0.00  0.00    +0.093 C 
BRANCH  20  22
ATOM     21  S   UNL     1      34.148 -14.425 -24.302  0.00  0.00    -0.101 S 
ATOM     22  N   UNL     1      35.395 -16.947 -22.755  0.00  0.00    -0.320 N 
ATOM     23  N   UNL     1      34.897 -15.936 -20.660  0.00  0.00    -0.233 NA
ATOM     24  N   UNL     1      33.826 -13.772 -20.486  0.00  0.00    -0.247 NA
ATOM     25  C   UNL     1      34.868 -15.879 -22.006  0.00  0.00    +0.118 C 
ATOM     26  C   UNL     1      34.317 -14.765 -22.629  0.00  0.00    +0.145 C 
ATOM     27  C   UNL     1      33.806 -13.730 -21.846  0.00  0.00    +0.073 C 
ATOM     28  C   UNL     1      33.280 -12.669 -22.642  0.00  0.00    +0.022 C 
ATOM     29  C   UNL     1      33.404 -12.919 -23.990  0.00  0.00    +0.033 C 
ATOM     30  C   UNL     1      34.379 -14.890 -19.989  0.00  0.00    +0.251 C 
ATOM     31  H   UNL     1      35.366 -16.891 -23.738  0.00  0.00    +0.148 HD
ENDBRANCH  20  22
ENDBRANCH  19  20
ENDBRANCH   6  19
TORSDOF 4
ENDMDL
MODEL 6
REMARK VINA RESULT:     -10.7      3.628      4.317
REMARK  Name = 24995524
REMARK  4 active torsions:
REMARK  status: ('A' for Active; 'I' for Inactive)
REMARK    1  A    between atoms: N_5  and  C_13
REMARK    2  A    between atoms: C_6  and  C_19
REMARK    3  A    between atoms: C_19  and  C_20
REMARK    4  A    between atoms: C_20  and  N_22
REMARK                            x       y       z     vdW  Elec       q    Type
REMARK                         _______ _______ _______ _____ _____    ______ ____
ROOT
ATOM      1  S   UNL     1      33.161 -20.198 -20.571  0.00  0.00    -0.056 S 
ATOM      2  O   UNL     1      34.179 -22.904 -16.905  0.00  0.00    -0.252 OA
ATOM      3  N   UNL     1      35.101 -21.315 -19.278  0.00  0.00    -0.223 NA
ATOM      4  N   UNL     1      32.875 -21.685 -18.432  0.00  0.00    -0.248 N 
ATOM      5  N   UNL     1      31.853 -22.830 -16.671  0.00  0.00    -0.268 N 
ATOM      6  C   UNL     1      34.758 -19.953 -21.149  0.00  0.00    +0.031 C 
ATOM      7  C   UNL     1      35.651 -20.621 -20.338  0.00  0.00    +0.103 C 
ATOM      8  C   UNL     1      33.795 -21.163 -19.301  0.00  0.00    +0.166 C 
ATOM      9  C   UNL     1      33.078 -22.520 -17.285  0.00  0.00    +0.310 C 
ATOM     10  H   UNL     1      31.938 -21.453 -18.622  0.00  0.00    +0.158 HD
ATOM     11  H   UNL     1      31.050 -22.447 -17.094  0.00  0.00    +0.156 HD
ENDROOT
BRANCH   5  13
ATOM     12 CL   UNL     1      28.682 -25.847 -13.988  0.00  0.00    -0.082 Cl
ATOM     13  C   UNL     1      31.632 -23.623 -15.521  0.00  0.00    +0.052 C 
ATOM     14  C   UNL     1      30.409 -24.269 -15.344  0.00  0.00    +0.026 C 
ATOM     15  C   UNL     1      32.639 -23.759 -14.564  0.00  0.00    +0.015 C 
ATOM     16  C   UNL     1      30.192 -25.050 -14.208  0.00  0.00    +0.059 C 
ATOM     17  C   UNL     1      32.421 -24.540 -13.430  0.00  0.00    +0.002 C 
ATOM     18  C   UNL     1      31.198 -25.186 -13.253  0.00  0.00    +0.011 C 
ENDBRANCH   5  13
BRANCH   6  19
ATOM     19  C   UNL     1      35.009 -19.111 -22.376  0.00  0.00    +0.056 C 
BRANCH  19  20
ATOM     20  C   UNL     1      36.001 -17.975 -22.130  0.00  0.00    +0.093 C 
BRANCH  20  22
ATOM     21  S   UNL     1      33.847 -14.070 -20.845  0.00  0.00    -0.101 S 
ATOM     22  N   UNL     1      35.317 -16.760 -21.799  0.00  0.00    -0.320 N 
ATOM     23  N   UNL     1      34.635 -16.364 -24.043  0.00  0.00    -0.233 NA
ATOM     24  N   UNL     1      33.322 -14.432 -24.677  0.00  0.00    -0.247 NA
ATOM     25  C   UNL     1      34.646 -15.974 -22.754  0.00  0.00    +0.118 C 
ATOM     26  C   UNL     1      33.994 -14.801 -22.391  0.00  0.00    +0.145 C 
ATOM     27  C   UNL     1      33.343 -14.053 -23.371  0.00  0.00    +0.073 C 
ATOM     28  C   UNL     1      32.729 -12.884 -22.829  0.00  0.00    +0.022 C 
ATOM     29  C   UNL     1      32.926 -12.774 -21.471  0.00  0.00    +0.033 C 
ATOM     30  C   UNL     1      33.980 -15.578 -24.918  0.00  0.00    +0.251 C 
ATOM     31  H   UNL     1      35.318 -16.462 -20.860  0.00  0.00    +0.148 HD
ENDBRANCH  20  22
ENDBRANCH  19  20
ENDBRANCH   6  19
TORSDOF 4
ENDMDL
MODEL 7
REMARK VINA RESULT:     -10.0      6.379     13.046
REMARK  Name = 24995524
REMARK  4 active torsions:
REMARK  status: ('A' for Active; 'I' for Inactive)
REMARK    1  A    between atoms: N_5  and  C_13
REMARK    2  A    between atoms: C_6  and  C_19
REMARK    3  A    between atoms: C_19  and  C_20
REMARK    4  A    between atoms: C_20  and  N_22
REMARK                            x       y       z     vdW  Elec       q    Type
REMARK                         _______ _______ _______ _____ _____    ______ ____
ROOT
ATOM      1  S   UNL     1      34.569 -14.532 -22.838  0.00  0.00    -0.056 S 
ATOM      2  O   UNL     1      32.786 -10.632 -24.685  0.00  0.00    -0.252 OA
ATOM      3  N   UNL     1      33.278 -13.587 -24.868  0.00  0.00    -0.223 NA
ATOM      4  N   UNL     1      33.897 -12.018 -23.147  0.00  0.00    -0.248 N 
ATOM      5  N   UNL     1      33.675  -9.734 -22.717  0.00  0.00    -0.268 N 
ATOM      6  C   UNL     1      34.114 -15.625 -24.080  0.00  0.00    +0.031 C 
ATOM      7  C   UNL     1      33.440 -14.943 -25.071  0.00  0.00    +0.103 C 
ATOM      8  C   UNL     1      33.833 -13.259 -23.722  0.00  0.00    +0.166 C 
ATOM      9  C   UNL     1      33.388 -10.766 -23.624  0.00  0.00    +0.310 C 
ATOM     10  H   UNL     1      34.360 -11.980 -22.279  0.00  0.00    +0.158 HD
ATOM     11  H   UNL     1      34.168  -9.997 -21.906  0.00  0.00    +0.156 HD
ENDROOT
BRANCH   5  13
ATOM     12 CL   UNL     1      30.470  -5.906 -21.513  0.00  0.00    -0.082 Cl
ATOM     13  C   UNL     1      33.343  -8.363 -22.824  0.00  0.00    +0.052 C 
ATOM     14  C   UNL     1      32.204  -7.869 -22.189  0.00  0.00    +0.026 C 
ATOM     15  C   UNL     1      34.155  -7.505 -23.567  0.00  0.00    +0.015 C 
ATOM     16  C   UNL     1      31.877  -6.517 -22.297  0.00  0.00    +0.059 C 
ATOM     17  C   UNL     1      33.828  -6.154 -23.675  0.00  0.00    +0.002 C 
ATOM     18  C   UNL     1      32.689  -5.660 -23.040  0.00  0.00    +0.011 C 
ENDBRANCH   5  13
BRANCH   6  19
ATOM     19  C   UNL     1      34.463 -17.090 -23.980  0.00  0.00    +0.056 C 
BRANCH  19  20
ATOM     20  C   UNL     1      35.297 -17.424 -22.744  0.00  0.00    +0.093 C 
BRANCH  20  22
ATOM     21  S   UNL     1      33.005 -20.593 -20.246  0.00  0.00    -0.101 S 
ATOM     22  N   UNL     1      34.649 -18.417 -21.941  0.00  0.00    -0.320 N 
ATOM     23  N   UNL     1      36.652 -19.011 -20.802  0.00  0.00    -0.233 NA
ATOM     24  N   UNL     1      36.713 -20.725 -19.094  0.00  0.00    -0.247 NA
ATOM     25  C   UNL     1      35.330 -19.194 -20.986  0.00  0.00    +0.118 C 
ATOM     26  C   UNL     1      34.663 -20.149 -20.226  0.00  0.00    +0.145 C 
ATOM     27  C   UNL     1      35.378 -20.897 -19.292  0.00  0.00    +0.073 C 
ATOM     28  C   UNL     1      34.544 -21.827 -18.603  0.00  0.00    +0.022 C 
ATOM     29  C   UNL     1      33.234 -21.765 -19.024  0.00  0.00    +0.033 C 
ATOM     30  C   UNL     1      37.257 -19.779 -19.878  0.00  0.00    +0.251 C 
ATOM     31  H   UNL     1      33.683 -18.563 -22.064  0.00  0.00    +0.148 HD
ENDBRANCH  20  22
ENDBRANCH  19  20
ENDBRANCH   6  19
TORSDOF 4
ENDMDL
MODEL 8
REMARK VINA RESULT:      -9.8      4.476     10.751
REMARK  Name = 24995524
REMARK  4 active torsions:
REMARK  status: ('A' for Active; 'I' for Inactive)
REMARK    1  A    between atoms: N_5  and  C_13
REMARK    2  A    between atoms: C_6  and  C_19
REMARK    3  A    between atoms: C_19  and  C_20
REMARK    4  A    between atoms: C_20  and  N_22
REMARK                            x       y       z     vdW  Elec       q    Type
REMARK                         _______ _______ _______ _____ _____    ______ ____
ROOT
ATOM      1  S   UNL     1      34.060 -23.290 -16.772  0.00  0.00    -0.056 S 
ATOM      2  O   UNL     1      32.442 -20.279 -19.952  0.00  0.00    -0.252 OA
ATOM      3  N   UNL     1      31.933 -22.085 -17.611  0.00  0.00    -0.223 NA
ATOM      4  N   UNL     1      33.983 -21.613 -18.784  0.00  0.00    -0.248 N 
ATOM      5  N   UNL     1      34.695 -20.304 -20.583  0.00  0.00    -0.268 N 
ATOM      6  C   UNL     1      32.584 -23.605 -15.957  0.00  0.00    +0.031 C 
ATOM      7  C   UNL     1      31.568 -22.879 -16.541  0.00  0.00    +0.103 C 
ATOM      8  C   UNL     1      33.223 -22.221 -17.822  0.00  0.00    +0.166 C 
ATOM      9  C   UNL     1      33.591 -20.681 -19.800  0.00  0.00    +0.310 C 
ATOM     10  H   UNL     1      34.939 -21.849 -18.777  0.00  0.00    +0.158 HD
ATOM     11  H   UNL     1      35.557 -20.713 -20.339  0.00  0.00    +0.156 HD
ENDROOT
BRANCH   5  13
ATOM     12 CL   UNL     1      35.214 -15.484 -22.275  0.00  0.00    -0.082 Cl
ATOM     13  C   UNL     1      34.720 -19.409 -21.677  0.00  0.00    +0.052 C 
ATOM     14  C   UNL     1      34.931 -18.047 -21.461  0.00  0.00    +0.026 C 
ATOM     15  C   UNL     1      34.533 -19.888 -22.975  0.00  0.00    +0.015 C 
ATOM     16  C   UNL     1      34.954 -17.165 -22.542  0.00  0.00    +0.059 C 
ATOM     17  C   UNL     1      34.557 -19.007 -24.054  0.00  0.00    +0.002 C 
ATOM     18  C   UNL     1      34.768 -17.645 -23.838  0.00  0.00    +0.011 C 
ENDBRANCH   5  13
BRANCH   6  19
ATOM     19  C   UNL     1      32.541 -24.560 -14.788  0.00  0.00    +0.056 C 
BRANCH  19  20
ATOM     20  C   UNL     1      33.448 -24.136 -13.634  0.00  0.00    +0.093 C 
BRANCH  20  22
ATOM     21  S   UNL     1      37.273 -26.764 -13.561  0.00  0.00    -0.101 S 
ATOM     22  N   UNL     1      34.664 -24.892 -13.634  0.00  0.00    -0.320 N 
ATOM     23  N   UNL     1      35.974 -23.060 -14.400  0.00  0.00    -0.233 NA
ATOM     24  N   UNL     1      38.358 -23.238 -14.779  0.00  0.00    -0.247 NA
ATOM     25  C   UNL     1      35.906 -24.349 -14.014  0.00  0.00    +0.118 C 
ATOM     26  C   UNL     1      37.063 -25.118 -13.999  0.00  0.00    +0.145 C 
ATOM     27  C   UNL     1      38.271 -24.538 -14.386  0.00  0.00    +0.073 C 
ATOM     28  C   UNL     1      39.355 -25.463 -14.313  0.00  0.00    +0.022 C 
ATOM     29  C   UNL     1      38.950 -26.706 -13.879  0.00  0.00    +0.033 C 
ATOM     30  C   UNL     1      37.183 -22.588 -14.755  0.00  0.00    +0.251 C 
ATOM     31  H   UNL     1      34.630 -25.836 -13.355  0.00  0.00    +0.148 HD
ENDBRANCH  20  22
ENDBRANCH  19  20
ENDBRANCH   6  19
TORSDOF 4
ENDMDL
MODEL 9
REMARK VINA RESULT:      -9.7      5.401      9.010
REMARK  Name = 24995524
REMARK  4 active torsions:
REMARK  status: ('A' for Active; 'I' for Inactive)
REMARK    1  A    between atoms: N_5  and  C_13
REMARK    2  A    between atoms: C_6  and  C_19
REMARK    3  A    between atoms: C_19  and  C_20
REMARK    4  A    between atoms: C_20  and  N_22
REMARK                            x       y       z     vdW  Elec       q    Type
REMARK                         _______ _______ _______ _____ _____    ______ ____
ROOT
ATOM      1  S   UNL     1      33.981 -13.474 -23.959  0.00  0.00    -0.056 S 
ATOM      2  O   UNL     1      34.634 -16.098 -20.153  0.00  0.00    -0.252 OA
ATOM      3  N   UNL     1      33.814 -13.485 -21.379  0.00  0.00    -0.223 NA
ATOM      4  N   UNL     1      34.582 -15.514 -22.427  0.00  0.00    -0.248 N 
ATOM      5  N   UNL     1      35.276 -17.648 -21.782  0.00  0.00    -0.268 N 
ATOM      6  C   UNL     1      33.437 -12.044 -23.183  0.00  0.00    +0.031 C 
ATOM      7  C   UNL     1      33.414 -12.238 -21.818  0.00  0.00    +0.103 C 
ATOM      8  C   UNL     1      34.135 -14.220 -22.421  0.00  0.00    +0.166 C 
ATOM      9  C   UNL     1      34.816 -16.401 -21.327  0.00  0.00    +0.310 C 
ATOM     10  H   UNL     1      34.770 -15.889 -23.318  0.00  0.00    +0.158 HD
ATOM     11  H   UNL     1      35.373 -17.742 -22.757  0.00  0.00    +0.156 HD
ENDROOT
BRANCH   5  13
ATOM     12 CL   UNL     1      33.738 -21.900 -19.349  0.00  0.00    -0.082 Cl
ATOM     13  C   UNL     1      35.617 -18.784 -21.011  0.00  0.00    +0.052 C 
ATOM     14  C   UNL     1      34.625 -19.677 -20.608  0.00  0.00    +0.026 C 
ATOM     15  C   UNL     1      36.947 -19.010 -20.653  0.00  0.00    +0.015 C 
ATOM     16  C   UNL     1      34.963 -20.797 -19.847  0.00  0.00    +0.059 C 
ATOM     17  C   UNL     1      37.284 -20.129 -19.893  0.00  0.00    +0.002 C 
ATOM     18  C   UNL     1      36.292 -21.022 -19.490  0.00  0.00    +0.011 C 
ENDBRANCH   5  13
BRANCH   6  19
ATOM     19  C   UNL     1      33.071 -10.823 -23.992  0.00  0.00    +0.056 C 
BRANCH  19  20
ATOM     20  C   UNL     1      33.903  -9.593 -23.630  0.00  0.00    +0.093 C 
BRANCH  20  22
ATOM     21  S   UNL     1      31.396  -5.754 -24.348  0.00  0.00    -0.101 S 
ATOM     22  N   UNL     1      33.137  -8.393 -23.785  0.00  0.00    -0.320 N 
ATOM     23  N   UNL     1      33.351  -7.789 -21.493  0.00  0.00    -0.233 NA
ATOM     24  N   UNL     1      32.360  -5.776 -20.585  0.00  0.00    -0.247 NA
ATOM     25  C   UNL     1      32.871  -7.510 -22.722  0.00  0.00    +0.118 C 
ATOM     26  C   UNL     1      32.123  -6.355 -22.914  0.00  0.00    +0.145 C 
ATOM     27  C   UNL     1      31.884  -5.510 -21.831  0.00  0.00    +0.073 C 
ATOM     28  C   UNL     1      31.103  -4.375 -22.203  0.00  0.00    +0.022 C 
ATOM     29  C   UNL     1      30.771  -4.385 -23.539  0.00  0.00    +0.033 C 
ATOM     30  C   UNL     1      33.069  -6.915 -20.510  0.00  0.00    +0.251 C 
ATOM     31  H   UNL     1      32.779  -8.176 -24.676  0.00  0.00    +0.148 HD
ENDBRANCH  20  22
ENDBRANCH  19  20
ENDBRANCH   6  19
TORSDOF 4
ENDMDL
