MODEL 1
REMARK VINA RESULT:     -11.7      0.000      0.000
REMARK  Name = 44129624
REMARK  6 active torsions:
REMARK  status: ('A' for Active; 'I' for Inactive)
REMARK    1  A    between atoms: C_1  and  O_20
REMARK    2  A    between atoms: C_4  and  C_8
REMARK    3  A    between atoms: C_8  and  C_9
REMARK    4  A    between atoms: C_10  and  C_16
REMARK    5  A    between atoms: O_20  and  C_21
REMARK    6  A    between atoms: C_21  and  C_23
REMARK                            x       y       z     vdW  Elec       q    Type
REMARK                         _______ _______ _______ _____ _____    ______ ____
ROOT
ATOM      1  C   UNL     1      33.804 -21.501 -19.294  0.00  0.00    +0.138 C 
ATOM      2  C   UNL     1      33.126 -20.540 -20.043  0.00  0.00    +0.037 C 
ATOM      3  C   UNL     1      35.197 -21.470 -19.216  0.00  0.00    +0.037 C 
ATOM      4  C   UNL     1      35.232 -19.517 -20.637  0.00  0.00    +0.039 C 
ATOM      5  C   UNL     1      33.839 -19.548 -20.715  0.00  0.00    +0.006 C 
ATOM      6  C   UNL     1      35.910 -20.478 -19.888  0.00  0.00    +0.006 C 
ENDROOT
BRANCH   4   8
ATOM      7  O   UNL     1      37.149 -18.680 -21.682  0.00  0.00    -0.287 OA
ATOM      8  C   UNL     1      35.975 -18.481 -21.336  0.00  0.00    +0.196 C 
BRANCH   8   9
ATOM      9  C   UNL     1      35.379 -17.151 -21.666  0.00  0.00    +0.039 C 
ATOM     10  C   UNL     1      34.265 -14.669 -22.283  0.00  0.00    +0.001 C 
ATOM     11  C   UNL     1      35.135 -16.808 -22.996  0.00  0.00    +0.003 C 
ATOM     12  C   UNL     1      35.067 -16.253 -20.645  0.00  0.00    +0.003 C 
ATOM     13  C   UNL     1      34.578 -15.566 -23.304  0.00  0.00    +0.000 C 
ATOM     14  C   UNL     1      34.510 -15.012 -20.954  0.00  0.00    +0.000 C 
BRANCH  10  16
ATOM     15  S   UNL     1      32.157 -11.339 -22.418  0.00  0.00    -0.086 S 
ATOM     16  C   UNL     1      33.691 -13.392 -22.602  0.00  0.00    +0.007 C 
ATOM     17  C   UNL     1      34.054 -12.530 -23.677  0.00  0.00    +0.007 C 
ATOM     18  C   UNL     1      32.671 -12.867 -21.839  0.00  0.00    +0.035 C 
ATOM     19  C   UNL     1      33.299 -11.378 -23.694  0.00  0.00    +0.035 C 
ENDBRANCH  10  16
ENDBRANCH   8   9
ENDBRANCH   4   8
BRANCH   1  20
ATOM     20  O   UNL     1      33.103 -22.478 -18.632  0.00  0.00    -0.478 OA
BRANCH  20  21
ATOM     21  C   UNL     1      33.599 -22.878 -17.366  0.00  0.00    +0.184 C 
BRANCH  21  23
ATOM     22  N   UNL     1      31.204 -22.585 -16.792  0.00  0.00    +0.388 N 
ATOM     23  C   UNL     1      32.433 -23.339 -16.505  0.00  0.00    -0.017 C 
ATOM     24  C   UNL     1      32.654 -23.089 -15.022  0.00  0.00    -0.020 C 
ATOM     25  C   UNL     1      31.247 -23.030 -14.445  0.00  0.00    -0.025 C 
ATOM     26  C   UNL     1      30.329 -22.852 -15.646  0.00  0.00    -0.082 C 
ATOM     27  H   UNL     1      30.774 -22.914 -17.657  0.00  0.00    -0.084 HD
ATOM     28  H   UNL     1      31.383 -21.589 -16.918  0.00  0.00    -0.084 HD
ENDBRANCH  21  23
ENDBRANCH  20  21
ENDBRANCH   1  20
TORSDOF 6
ENDMDL
MODEL 2
REMARK VINA RESULT:     -11.7      0.039      1.341
REMARK  Name = 44129624
REMARK  6 active torsions:
REMARK  status: ('A' for Active; 'I' for Inactive)
REMARK    1  A    between atoms: C_1  and  O_20
REMARK    2  A    between atoms: C_4  and  C_8
REMARK    3  A    between atoms: C_8  and  C_9
REMARK    4  A    between atoms: C_10  and  C_16
REMARK    5  A    between atoms: O_20  and  C_21
REMARK    6  A    between atoms: C_21  and  C_23
REMARK                            x       y       z     vdW  Elec       q    Type
REMARK                         _______ _______ _______ _____ _____    ______ ____
ROOT
ATOM      1  C   UNL     1      33.794 -21.515 -19.292  0.00  0.00    +0.138 C 
ATOM      2  C   UNL     1      35.187 -21.496 -19.238  0.00  0.00    +0.037 C 
ATOM      3  C   UNL     1      33.110 -20.544 -20.025  0.00  0.00    +0.037 C 
ATOM      4  C   UNL     1      35.215 -19.535 -20.649  0.00  0.00    +0.039 C 
ATOM      5  C   UNL     1      35.898 -20.507 -19.916  0.00  0.00    +0.006 C 
ATOM      6  C   UNL     1      33.822 -19.554 -20.703  0.00  0.00    +0.006 C 
ENDROOT
BRANCH   4   8
ATOM      7  O   UNL     1      37.124 -18.715 -21.721  0.00  0.00    -0.287 OA
ATOM      8  C   UNL     1      35.957 -18.505 -21.357  0.00  0.00    +0.196 C 
BRANCH   8   9
ATOM      9  C   UNL     1      35.368 -17.170 -21.679  0.00  0.00    +0.039 C 
ATOM     10  C   UNL     1      34.268 -14.678 -22.280  0.00  0.00    +0.001 C 
ATOM     11  C   UNL     1      35.058 -16.280 -20.652  0.00  0.00    +0.003 C 
ATOM     12  C   UNL     1      35.127 -16.816 -23.007  0.00  0.00    +0.003 C 
ATOM     13  C   UNL     1      34.508 -15.033 -20.952  0.00  0.00    +0.000 C 
ATOM     14  C   UNL     1      34.577 -15.570 -23.307  0.00  0.00    +0.000 C 
BRANCH  10  16
ATOM     15  S   UNL     1      32.191 -11.328 -22.377  0.00  0.00    -0.086 S 
ATOM     16  C   UNL     1      33.703 -13.395 -22.587  0.00  0.00    +0.007 C 
ATOM     17  C   UNL     1      34.062 -12.531 -23.662  0.00  0.00    +0.007 C 
ATOM     18  C   UNL     1      32.697 -12.863 -21.810  0.00  0.00    +0.035 C 
ATOM     19  C   UNL     1      33.318 -11.372 -23.665  0.00  0.00    +0.035 C 
ENDBRANCH  10  16
ENDBRANCH   8   9
ENDBRANCH   4   8
BRANCH   1  20
ATOM     20  O   UNL     1      33.092 -22.488 -18.625  0.00  0.00    -0.478 OA
BRANCH  20  21
ATOM     21  C   UNL     1      33.566 -22.852 -17.339  0.00  0.00    +0.184 C 
BRANCH  21  23
ATOM     22  N   UNL     1      31.163 -22.578 -16.788  0.00  0.00    +0.388 N 
ATOM     23  C   UNL     1      32.391 -23.334 -16.502  0.00  0.00    -0.017 C 
ATOM     24  C   UNL     1      32.593 -23.114 -15.011  0.00  0.00    -0.020 C 
ATOM     25  C   UNL     1      31.180 -23.071 -14.449  0.00  0.00    -0.025 C 
ATOM     26  C   UNL     1      30.275 -22.872 -15.657  0.00  0.00    -0.082 C 
ATOM     27  H   UNL     1      30.745 -22.890 -17.664  0.00  0.00    -0.084 HD
ATOM     28  H   UNL     1      31.340 -21.579 -16.891  0.00  0.00    -0.084 HD
ENDBRANCH  21  23
ENDBRANCH  20  21
ENDBRANCH   1  20
TORSDOF 6
ENDMDL
MODEL 3
REMARK VINA RESULT:     -11.0      1.138      1.918
REMARK  Name = 44129624
REMARK  6 active torsions:
REMARK  status: ('A' for Active; 'I' for Inactive)
REMARK    1  A    between atoms: C_1  and  O_20
REMARK    2  A    between atoms: C_4  and  C_8
REMARK    3  A    between atoms: C_8  and  C_9
REMARK    4  A    between atoms: C_10  and  C_16
REMARK    5  A    between atoms: O_20  and  C_21
REMARK    6  A    between atoms: C_21  and  C_23
REMARK                            x       y       z     vdW  Elec       q    Type
REMARK                         _______ _______ _______ _____ _____    ______ ____
ROOT
ATOM      1  C   UNL     1      33.641 -21.955 -18.785  0.00  0.00    +0.138 C 
ATOM      2  C   UNL     1      35.024 -22.021 -18.619  0.00  0.00    +0.037 C 
ATOM      3  C   UNL     1      33.083 -20.977 -19.608  0.00  0.00    +0.037 C 
ATOM      4  C   UNL     1      35.292 -20.133 -20.101  0.00  0.00    +0.039 C 
ATOM      5  C   UNL     1      35.850 -21.111 -19.277  0.00  0.00    +0.006 C 
ATOM      6  C   UNL     1      33.909 -20.066 -20.267  0.00  0.00    +0.006 C 
ENDROOT
BRANCH   4   8
ATOM      7  O   UNL     1      37.378 -19.377 -20.841  0.00  0.00    -0.287 OA
ATOM      8  C   UNL     1      36.154 -19.185 -20.789  0.00  0.00    +0.196 C 
BRANCH   8   9
ATOM      9  C   UNL     1      35.624 -17.957 -21.456  0.00  0.00    +0.039 C 
ATOM     10  C   UNL     1      34.635 -15.665 -22.701  0.00  0.00    +0.001 C 
ATOM     11  C   UNL     1      35.311 -16.831 -20.695  0.00  0.00    +0.003 C 
ATOM     12  C   UNL     1      35.441 -17.938 -22.839  0.00  0.00    +0.003 C 
ATOM     13  C   UNL     1      34.817 -15.685 -21.319  0.00  0.00    +0.000 C 
ATOM     14  C   UNL     1      34.946 -16.792 -23.461  0.00  0.00    +0.000 C 
BRANCH  10  16
ATOM     15  S   UNL     1      33.552 -12.004 -23.689  0.00  0.00    -0.086 S 
ATOM     16  C   UNL     1      34.126 -14.484 -23.341  0.00  0.00    +0.007 C 
ATOM     17  C   UNL     1      33.483 -14.402 -24.609  0.00  0.00    +0.007 C 
ATOM     18  C   UNL     1      34.229 -13.253 -22.732  0.00  0.00    +0.035 C 
ATOM     19  C   UNL     1      33.119 -13.110 -24.922  0.00  0.00    +0.035 C 
ENDBRANCH  10  16
ENDBRANCH   8   9
ENDBRANCH   4   8
BRANCH   1  20
ATOM     20  O   UNL     1      32.827 -22.851 -18.137  0.00  0.00    -0.478 OA
BRANCH  20  21
ATOM     21  C   UNL     1      33.333 -23.432 -16.947  0.00  0.00    +0.184 C 
BRANCH  21  23
ATOM     22  N   UNL     1      32.452 -23.984 -14.694  0.00  0.00    +0.388 N 
ATOM     23  C   UNL     1      32.464 -22.991 -15.779  0.00  0.00    -0.017 C 
ATOM     24  C   UNL     1      30.994 -22.862 -16.146  0.00  0.00    -0.020 C 
ATOM     25  C   UNL     1      30.267 -23.025 -14.820  0.00  0.00    -0.025 C 
ATOM     26  C   UNL     1      31.297 -23.616 -13.868  0.00  0.00    -0.082 C 
ATOM     27  H   UNL     1      33.314 -23.933 -14.151  0.00  0.00    -0.084 HD
ATOM     28  H   UNL     1      32.388 -24.939 -15.046  0.00  0.00    -0.084 HD
ENDBRANCH  21  23
ENDBRANCH  20  21
ENDBRANCH   1  20
TORSDOF 6
ENDMDL
MODEL 4
REMARK VINA RESULT:     -10.7      4.129      9.240
REMARK  Name = 44129624
REMARK  6 active torsions:
REMARK  status: ('A' for Active; 'I' for Inactive)
REMARK    1  A    between atoms: C_1  and  O_20
REMARK    2  A    between atoms: C_4  and  C_8
REMARK    3  A    between atoms: C_8  and  C_9
REMARK    4  A    between atoms: C_10  and  C_16
REMARK    5  A    between atoms: O_20  and  C_21
REMARK    6  A    between atoms: C_21  and  C_23
REMARK                            x       y       z     vdW  Elec       q    Type
REMARK                         _______ _______ _______ _____ _____    ______ ____
ROOT
ATOM      1  C   UNL     1      34.730 -14.946 -22.173  0.00  0.00    +0.138 C 
ATOM      2  C   UNL     1      34.746 -15.647 -23.378  0.00  0.00    +0.037 C 
ATOM      3  C   UNL     1      34.861 -15.632 -20.965  0.00  0.00    +0.037 C 
ATOM      4  C   UNL     1      35.024 -17.720 -22.169  0.00  0.00    +0.039 C 
ATOM      5  C   UNL     1      34.893 -17.033 -23.377  0.00  0.00    +0.006 C 
ATOM      6  C   UNL     1      35.009 -17.019 -20.964  0.00  0.00    +0.006 C 
ENDROOT
BRANCH   4   8
ATOM      7  O   UNL     1      35.569 -19.752 -23.189  0.00  0.00    -0.287 OA
ATOM      8  C   UNL     1      35.180 -19.166 -22.169  0.00  0.00    +0.196 C 
BRANCH   8   9
ATOM      9  C   UNL     1      34.887 -20.003 -20.966  0.00  0.00    +0.039 C 
ATOM     10  C   UNL     1      34.339 -21.565 -18.721  0.00  0.00    +0.001 C 
ATOM     11  C   UNL     1      35.935 -20.538 -20.217  0.00  0.00    +0.003 C 
ATOM     12  C   UNL     1      33.565 -20.250 -20.593  0.00  0.00    +0.003 C 
ATOM     13  C   UNL     1      35.660 -21.319 -19.094  0.00  0.00    +0.000 C 
ATOM     14  C   UNL     1      33.292 -21.031 -19.471  0.00  0.00    +0.000 C 
BRANCH  10  16
ATOM     15  S   UNL     1      34.486 -23.698 -15.407  0.00  0.00    -0.086 S 
ATOM     16  C   UNL     1      34.059 -22.369 -17.565  0.00  0.00    +0.007 C 
ATOM     17  C   UNL     1      32.791 -22.868 -17.150  0.00  0.00    +0.007 C 
ATOM     18  C   UNL     1      35.069 -22.746 -16.706  0.00  0.00    +0.035 C 
ATOM     19  C   UNL     1      32.879 -23.607 -15.991  0.00  0.00    +0.035 C 
ENDBRANCH  10  16
ENDBRANCH   8   9
ENDBRANCH   4   8
BRANCH   1  20
ATOM     20  O   UNL     1      34.585 -13.581 -22.173  0.00  0.00    -0.478 OA
BRANCH  20  21
ATOM     21  C   UNL     1      33.830 -13.017 -23.232  0.00  0.00    +0.184 C 
BRANCH  21  23
ATOM     22  N   UNL     1      32.405 -11.051 -22.725  0.00  0.00    +0.388 N 
ATOM     23  C   UNL     1      32.505 -12.517 -22.677  0.00  0.00    -0.017 C 
ATOM     24  C   UNL     1      32.324 -12.828 -21.200  0.00  0.00    -0.020 C 
ATOM     25  C   UNL     1      31.326 -11.784 -20.723  0.00  0.00    -0.025 C 
ATOM     26  C   UNL     1      31.301 -10.725 -21.816  0.00  0.00    -0.082 C 
ATOM     27  H   UNL     1      32.197 -10.735 -23.672  0.00  0.00    -0.084 HD
ATOM     28  H   UNL     1      33.276 -10.595 -22.454  0.00  0.00    -0.084 HD
ENDBRANCH  21  23
ENDBRANCH  20  21
ENDBRANCH   1  20
TORSDOF 6
ENDMDL
MODEL 5
REMARK VINA RESULT:     -10.6      2.694      5.369
REMARK  Name = 44129624
REMARK  6 active torsions:
REMARK  status: ('A' for Active; 'I' for Inactive)
REMARK    1  A    between atoms: C_1  and  O_20
REMARK    2  A    between atoms: C_4  and  C_8
REMARK    3  A    between atoms: C_8  and  C_9
REMARK    4  A    between atoms: C_10  and  C_16
REMARK    5  A    between atoms: O_20  and  C_21
REMARK    6  A    between atoms: C_21  and  C_23
REMARK                            x       y       z     vdW  Elec       q    Type
REMARK                         _______ _______ _______ _____ _____    ______ ____
ROOT
ATOM      1  C   UNL     1      35.388 -17.125 -21.566  0.00  0.00    +0.138 C 
ATOM      2  C   UNL     1      35.241 -17.360 -22.933  0.00  0.00    +0.037 C 
ATOM      3  C   UNL     1      34.960 -15.917 -21.015  0.00  0.00    +0.037 C 
ATOM      4  C   UNL     1      34.238 -15.178 -23.199  0.00  0.00    +0.039 C 
ATOM      5  C   UNL     1      34.666 -16.387 -23.749  0.00  0.00    +0.006 C 
ATOM      6  C   UNL     1      34.385 -14.944 -21.833  0.00  0.00    +0.006 C 
ENDROOT
BRANCH   4   8
ATOM      7  O   UNL     1      33.422 -14.403 -25.249  0.00  0.00    -0.287 OA
ATOM      8  C   UNL     1      33.636 -14.165 -24.051  0.00  0.00    +0.196 C 
BRANCH   8   9
ATOM      9  C   UNL     1      33.251 -12.814 -23.541  0.00  0.00    +0.039 C 
ATOM     10  C   UNL     1      32.533 -10.293 -22.588  0.00  0.00    +0.001 C 
ATOM     11  C   UNL     1      32.175 -12.682 -22.663  0.00  0.00    +0.003 C 
ATOM     12  C   UNL     1      33.967 -11.687 -23.943  0.00  0.00    +0.003 C 
ATOM     13  C   UNL     1      31.816 -11.421 -22.186  0.00  0.00    +0.000 C 
ATOM     14  C   UNL     1      33.608 -10.426 -23.466  0.00  0.00    +0.000 C 
BRANCH  10  16
ATOM     15  S   UNL     1      31.237  -6.599 -22.112  0.00  0.00    -0.086 S 
ATOM     16  C   UNL     1      32.163  -8.996 -22.095  0.00  0.00    +0.007 C 
ATOM     17  C   UNL     1      32.320  -8.503 -20.768  0.00  0.00    +0.007 C 
ATOM     18  C   UNL     1      31.586  -8.063 -22.929  0.00  0.00    +0.035 C 
ATOM     19  C   UNL     1      31.858  -7.211 -20.638  0.00  0.00    +0.035 C 
ENDBRANCH  10  16
ENDBRANCH   8   9
ENDBRANCH   4   8
BRANCH   1  20
ATOM     20  O   UNL     1      35.954 -18.082 -20.761  0.00  0.00    -0.478 OA
BRANCH  20  21
ATOM     21  C   UNL     1      35.753 -19.435 -21.135  0.00  0.00    +0.184 C 
BRANCH  21  23
ATOM     22  N   UNL     1      35.710 -21.538 -19.820  0.00  0.00    +0.388 N 
ATOM     23  C   UNL     1      35.152 -20.185 -19.956  0.00  0.00    -0.017 C 
ATOM     24  C   UNL     1      33.661 -20.440 -20.112  0.00  0.00    -0.020 C 
ATOM     25  C   UNL     1      33.398 -21.647 -19.225  0.00  0.00    -0.025 C 
ATOM     26  C   UNL     1      34.771 -22.240 -18.939  0.00  0.00    -0.082 C 
ATOM     27  H   UNL     1      36.640 -21.503 -19.401  0.00  0.00    -0.084 HD
ATOM     28  H   UNL     1      35.816 -22.004 -20.721  0.00  0.00    -0.084 HD
ENDBRANCH  21  23
ENDBRANCH  20  21
ENDBRANCH   1  20
TORSDOF 6
ENDMDL
MODEL 6
REMARK VINA RESULT:     -10.5      4.484     10.088
REMARK  Name = 44129624
REMARK  6 active torsions:
REMARK  status: ('A' for Active; 'I' for Inactive)
REMARK    1  A    between atoms: C_1  and  O_20
REMARK    2  A    between atoms: C_4  and  C_8
REMARK    3  A    between atoms: C_8  and  C_9
REMARK    4  A    between atoms: C_10  and  C_16
REMARK    5  A    between atoms: O_20  and  C_21
REMARK    6  A    between atoms: C_21  and  C_23
REMARK                            x       y       z     vdW  Elec       q    Type
REMARK                         _______ _______ _______ _____ _____    ______ ____
ROOT
ATOM      1  C   UNL     1      35.591 -19.047 -20.874  0.00  0.00    +0.138 C 
ATOM      2  C   UNL     1      34.241 -19.393 -20.837  0.00  0.00    +0.037 C 
ATOM      3  C   UNL     1      36.530 -19.826 -20.197  0.00  0.00    +0.037 C 
ATOM      4  C   UNL     1      34.767 -21.299 -19.448  0.00  0.00    +0.039 C 
ATOM      5  C   UNL     1      33.828 -20.518 -20.125  0.00  0.00    +0.006 C 
ATOM      6  C   UNL     1      36.117 -20.952 -19.485  0.00  0.00    +0.006 C 
ENDROOT
BRANCH   4   8
ATOM      7  O   UNL     1      33.615 -23.324 -19.250  0.00  0.00    -0.287 OA
ATOM      8  C   UNL     1      34.337 -22.474 -18.708  0.00  0.00    +0.196 C 
BRANCH   8   9
ATOM      9  C   UNL     1      34.732 -22.715 -17.287  0.00  0.00    +0.039 C 
ATOM     10  C   UNL     1      35.470 -23.165 -14.634  0.00  0.00    +0.001 C 
ATOM     11  C   UNL     1      35.995 -22.328 -16.840  0.00  0.00    +0.003 C 
ATOM     12  C   UNL     1      33.838 -23.328 -16.408  0.00  0.00    +0.003 C 
ATOM     13  C   UNL     1      36.364 -22.553 -15.513  0.00  0.00    +0.000 C 
ATOM     14  C   UNL     1      34.207 -23.553 -15.083  0.00  0.00    +0.000 C 
BRANCH  10  16
ATOM     15  S   UNL     1      37.334 -23.462 -11.173  0.00  0.00    -0.086 S 
ATOM     16  C   UNL     1      35.851 -23.395 -13.269  0.00  0.00    +0.007 C 
ATOM     17  C   UNL     1      35.036 -23.923 -12.227  0.00  0.00    +0.007 C 
ATOM     18  C   UNL     1      37.124 -23.102 -12.834  0.00  0.00    +0.035 C 
ATOM     19  C   UNL     1      35.719 -24.013 -11.033  0.00  0.00    +0.035 C 
ENDBRANCH  10  16
ENDBRANCH   8   9
ENDBRANCH   4   8
BRANCH   1  20
ATOM     20  O   UNL     1      35.998 -17.939 -21.574  0.00  0.00    -0.478 OA
BRANCH  20  21
ATOM     21  C   UNL     1      35.332 -16.720 -21.289  0.00  0.00    +0.184 C 
BRANCH  21  23
ATOM     22  N   UNL     1      34.113 -14.920 -22.483  0.00  0.00    +0.388 N 
ATOM     23  C   UNL     1      35.173 -15.934 -22.582  0.00  0.00    -0.017 C 
ATOM     24  C   UNL     1      34.719 -16.797 -23.749  0.00  0.00    -0.020 C 
ATOM     25  C   UNL     1      34.057 -15.811 -24.700  0.00  0.00    -0.025 C 
ATOM     26  C   UNL     1      33.819 -14.555 -23.874  0.00  0.00    -0.082 C 
ATOM     27  H   UNL     1      34.440 -14.108 -21.960  0.00  0.00    -0.084 HD
ATOM     28  H   UNL     1      33.289 -15.269 -21.993  0.00  0.00    -0.084 HD
ENDBRANCH  21  23
ENDBRANCH  20  21
ENDBRANCH   1  20
TORSDOF 6
ENDMDL
MODEL 7
REMARK VINA RESULT:     -10.5      3.844      6.308
REMARK  Name = 44129624
REMARK  6 active torsions:
REMARK  status: ('A' for Active; 'I' for Inactive)
REMARK    1  A    between atoms: C_1  and  O_20
REMARK    2  A    between atoms: C_4  and  C_8
REMARK    3  A    between atoms: C_8  and  C_9
REMARK    4  A    between atoms: C_10  and  C_16
REMARK    5  A    between atoms: O_20  and  C_21
REMARK    6  A    between atoms: C_21  and  C_23
REMARK                            x       y       z     vdW  Elec       q    Type
REMARK                         _______ _______ _______ _____ _____    ______ ____
ROOT
ATOM      1  C   UNL     1      35.494 -23.158 -13.977  0.00  0.00    +0.138 C 
ATOM      2  C   UNL     1      36.341 -22.728 -14.998  0.00  0.00    +0.037 C 
ATOM      3  C   UNL     1      34.197 -23.575 -14.276  0.00  0.00    +0.037 C 
ATOM      4  C   UNL     1      34.596 -23.133 -16.617  0.00  0.00    +0.039 C 
ATOM      5  C   UNL     1      35.893 -22.716 -16.317  0.00  0.00    +0.006 C 
ATOM      6  C   UNL     1      33.749 -23.563 -15.597  0.00  0.00    +0.006 C 
ENDROOT
BRANCH   4   8
ATOM      7  O   UNL     1      33.543 -24.110 -18.463  0.00  0.00    -0.287 OA
ATOM      8  C   UNL     1      34.129 -23.123 -17.994  0.00  0.00    +0.196 C 
BRANCH   8   9
ATOM      9  C   UNL     1      34.325 -21.949 -18.899  0.00  0.00    +0.039 C 
ATOM     10  C   UNL     1      34.691 -19.759 -20.587  0.00  0.00    +0.001 C 
ATOM     11  C   UNL     1      35.613 -21.566 -19.273  0.00  0.00    +0.003 C 
ATOM     12  C   UNL     1      33.221 -21.237 -19.367  0.00  0.00    +0.003 C 
ATOM     13  C   UNL     1      35.795 -20.470 -20.117  0.00  0.00    +0.000 C 
ATOM     14  C   UNL     1      33.404 -20.143 -20.211  0.00  0.00    +0.000 C 
BRANCH  10  16
ATOM     15  S   UNL     1      34.988 -17.277 -23.637  0.00  0.00    -0.086 S 
ATOM     16  C   UNL     1      34.881 -18.633 -21.456  0.00  0.00    +0.007 C 
ATOM     17  C   UNL     1      35.256 -17.310 -21.082  0.00  0.00    +0.007 C 
ATOM     18  C   UNL     1      34.704 -18.754 -22.817  0.00  0.00    +0.035 C 
ATOM     19  C   UNL     1      35.350 -16.471 -22.170  0.00  0.00    +0.035 C 
ENDBRANCH  10  16
ENDBRANCH   8   9
ENDBRANCH   4   8
BRANCH   1  20
ATOM     20  O   UNL     1      35.935 -23.169 -12.677  0.00  0.00    -0.478 OA
BRANCH  20  21
ATOM     21  C   UNL     1      35.782 -24.383 -11.959  0.00  0.00    +0.184 C 
BRANCH  21  23
ATOM     22  N   UNL     1      38.213 -24.470 -12.449  0.00  0.00    +0.388 N 
ATOM     23  C   UNL     1      36.995 -25.263 -12.220  0.00  0.00    -0.017 C 
ATOM     24  C   UNL     1      36.871 -26.082 -13.495  0.00  0.00    -0.020 C 
ATOM     25  C   UNL     1      38.312 -26.379 -13.884  0.00  0.00    -0.025 C 
ATOM     26  C   UNL     1      39.155 -25.409 -13.067  0.00  0.00    -0.082 C 
ATOM     27  H   UNL     1      38.583 -24.118 -11.566  0.00  0.00    -0.084 HD
ATOM     28  H   UNL     1      38.038 -23.655 -13.036  0.00  0.00    -0.084 HD
ENDBRANCH  21  23
ENDBRANCH  20  21
ENDBRANCH   1  20
TORSDOF 6
ENDMDL
MODEL 8
REMARK VINA RESULT:     -10.4      4.773      9.352
REMARK  Name = 44129624
REMARK  6 active torsions:
REMARK  status: ('A' for Active; 'I' for Inactive)
REMARK    1  A    between atoms: C_1  and  O_20
REMARK    2  A    between atoms: C_4  and  C_8
REMARK    3  A    between atoms: C_8  and  C_9
REMARK    4  A    between atoms: C_10  and  C_16
REMARK    5  A    between atoms: O_20  and  C_21
REMARK    6  A    between atoms: C_21  and  C_23
REMARK                            x       y       z     vdW  Elec       q    Type
REMARK                         _______ _______ _______ _____ _____    ______ ____
ROOT
ATOM      1  C   UNL     1      33.168 -12.381 -22.900  0.00  0.00    +0.138 C 
ATOM      2  C   UNL     1      34.084 -13.017 -22.064  0.00  0.00    +0.037 C 
ATOM      3  C   UNL     1      32.755 -12.999 -24.081  0.00  0.00    +0.037 C 
ATOM      4  C   UNL     1      34.175 -14.890 -23.586  0.00  0.00    +0.039 C 
ATOM      5  C   UNL     1      34.587 -14.271 -22.406  0.00  0.00    +0.006 C 
ATOM      6  C   UNL     1      33.259 -14.254 -24.423  0.00  0.00    +0.006 C 
ENDROOT
BRANCH   4   8
ATOM      7  O   UNL     1      35.016 -16.447 -25.114  0.00  0.00    -0.287 OA
ATOM      8  C   UNL     1      34.698 -16.199 -23.942  0.00  0.00    +0.196 C 
BRANCH   8   9
ATOM      9  C   UNL     1      34.876 -17.291 -22.937  0.00  0.00    +0.039 C 
ATOM     10  C   UNL     1      35.207 -19.330 -21.062  0.00  0.00    +0.001 C 
ATOM     11  C   UNL     1      35.391 -16.999 -21.674  0.00  0.00    +0.003 C 
ATOM     12  C   UNL     1      34.527 -18.602 -23.263  0.00  0.00    +0.003 C 
ATOM     13  C   UNL     1      35.556 -18.019 -20.737  0.00  0.00    +0.000 C 
ATOM     14  C   UNL     1      34.693 -19.621 -22.325  0.00  0.00    +0.000 C 
BRANCH  10  16
ATOM     15  S   UNL     1      34.761 -22.320 -18.530  0.00  0.00    -0.086 S 
ATOM     16  C   UNL     1      35.377 -20.377 -20.095  0.00  0.00    +0.007 C 
ATOM     17  C   UNL     1      36.588 -20.767 -19.453  0.00  0.00    +0.007 C 
ATOM     18  C   UNL     1      34.305 -21.140 -19.685  0.00  0.00    +0.035 C 
ATOM     19  C   UNL     1      36.396 -21.813 -18.577  0.00  0.00    +0.035 C 
ENDBRANCH  10  16
ENDBRANCH   8   9
ENDBRANCH   4   8
BRANCH   1  20
ATOM     20  O   UNL     1      32.673 -11.145 -22.564  0.00  0.00    -0.478 OA
BRANCH  20  21
ATOM     21  C   UNL     1      31.305 -11.082 -22.194  0.00  0.00    +0.184 C 
BRANCH  21  23
ATOM     22  N   UNL     1      31.993  -9.140 -20.812  0.00  0.00    +0.388 N 
ATOM     23  C   UNL     1      31.193 -10.373 -20.853  0.00  0.00    -0.017 C 
ATOM     24  C   UNL     1      31.756 -11.190 -19.701  0.00  0.00    -0.020 C 
ATOM     25  C   UNL     1      32.107 -10.149 -18.649  0.00  0.00    -0.025 C 
ATOM     26  C   UNL     1      32.101  -8.817 -19.385  0.00  0.00    -0.082 C 
ATOM     27  H   UNL     1      31.521  -8.389 -21.316  0.00  0.00    -0.084 HD
ATOM     28  H   UNL     1      32.905  -9.257 -21.252  0.00  0.00    -0.084 HD
ENDBRANCH  21  23
ENDBRANCH  20  21
ENDBRANCH   1  20
TORSDOF 6
ENDMDL
MODEL 9
REMARK VINA RESULT:     -10.4      3.785      5.683
REMARK  Name = 44129624
REMARK  6 active torsions:
REMARK  status: ('A' for Active; 'I' for Inactive)
REMARK    1  A    between atoms: C_1  and  O_20
REMARK    2  A    between atoms: C_4  and  C_8
REMARK    3  A    between atoms: C_8  and  C_9
REMARK    4  A    between atoms: C_10  and  C_16
REMARK    5  A    between atoms: O_20  and  C_21
REMARK    6  A    between atoms: C_21  and  C_23
REMARK                            x       y       z     vdW  Elec       q    Type
REMARK                         _______ _______ _______ _____ _____    ______ ____
ROOT
ATOM      1  C   UNL     1      36.843 -22.805 -14.878  0.00  0.00    +0.138 C 
ATOM      2  C   UNL     1      37.362 -22.153 -15.996  0.00  0.00    +0.037 C 
ATOM      3  C   UNL     1      35.562 -23.356 -14.924  0.00  0.00    +0.037 C 
ATOM      4  C   UNL     1      35.320 -22.602 -17.207  0.00  0.00    +0.039 C 
ATOM      5  C   UNL     1      36.602 -22.052 -17.160  0.00  0.00    +0.006 C 
ATOM      6  C   UNL     1      34.801 -23.254 -16.089  0.00  0.00    +0.006 C 
ENDROOT
BRANCH   4   8
ATOM      7  O   UNL     1      33.734 -23.399 -18.728  0.00  0.00    -0.287 OA
ATOM      8  C   UNL     1      34.529 -22.499 -18.422  0.00  0.00    +0.196 C 
BRANCH   8   9
ATOM      9  C   UNL     1      34.628 -21.328 -19.345  0.00  0.00    +0.039 C 
ATOM     10  C   UNL     1      34.813 -19.143 -21.069  0.00  0.00    +0.001 C 
ATOM     11  C   UNL     1      33.468 -20.713 -19.818  0.00  0.00    +0.003 C 
ATOM     12  C   UNL     1      35.879 -20.851 -19.735  0.00  0.00    +0.003 C 
ATOM     13  C   UNL     1      33.561 -19.620 -20.680  0.00  0.00    +0.000 C 
ATOM     14  C   UNL     1      35.972 -19.759 -20.597  0.00  0.00    +0.000 C 
BRANCH  10  16
ATOM     15  S   UNL     1      34.851 -16.682 -24.151  0.00  0.00    -0.086 S 
ATOM     16  C   UNL     1      34.906 -18.017 -21.956  0.00  0.00    +0.007 C 
ATOM     17  C   UNL     1      35.223 -16.672 -21.608  0.00  0.00    +0.007 C 
ATOM     18  C   UNL     1      34.681 -18.163 -23.307  0.00  0.00    +0.035 C 
ATOM     19  C   UNL     1      35.227 -15.841 -22.707  0.00  0.00    +0.035 C 
ENDBRANCH  10  16
ENDBRANCH   8   9
ENDBRANCH   4   8
BRANCH   1  20
ATOM     20  O   UNL     1      37.590 -22.905 -13.731  0.00  0.00    -0.478 OA
BRANCH  20  21
ATOM     21  C   UNL     1      37.984 -24.208 -13.334  0.00  0.00    +0.184 C 
BRANCH  21  23
ATOM     22  N   UNL     1      36.215 -25.233 -11.930  0.00  0.00    +0.388 N 
ATOM     23  C   UNL     1      37.471 -24.468 -11.926  0.00  0.00    -0.017 C 
ATOM     24  C   UNL     1      37.097 -23.193 -11.185  0.00  0.00    -0.020 C 
ATOM     25  C   UNL     1      36.095 -23.656 -10.138  0.00  0.00    -0.025 C 
ATOM     26  C   UNL     1      35.664 -25.046 -10.583  0.00  0.00    -0.082 C 
ATOM     27  H   UNL     1      36.396 -26.220 -12.111  0.00  0.00    -0.084 HD
ATOM     28  H   UNL     1      35.573 -24.919 -12.657  0.00  0.00    -0.084 HD
ENDBRANCH  21  23
ENDBRANCH  20  21
ENDBRANCH   1  20
TORSDOF 6
ENDMDL
