MODEL 1
REMARK VINA RESULT:     -10.7      0.000      0.000
REMARK  Name = 50902259
REMARK  13 active torsions:
REMARK  status: ('A' for Active; 'I' for Inactive)
REMARK    1  A    between atoms: C_4  and  C_13
REMARK    2  A    between atoms: C_5  and  O_11
REMARK    3  A    between atoms: C_9  and  C_28
REMARK    4  A    between atoms: C_14  and  C_15
REMARK    5  A    between atoms: C_15  and  O_16
REMARK    6  A    between atoms: C_15  and  C_18
REMARK    7  A    between atoms: C_18  and  O_19
REMARK    8  A    between atoms: O_19  and  C_22
REMARK    9  A    between atoms: C_28  and  C_29
REMARK   10  A    between atoms: C_29  and  C_30
REMARK   11  A    between atoms: C_30  and  C_32
REMARK   12  A    between atoms: C_32  and  O_33
REMARK   13  A    between atoms: O_33  and  C_34
REMARK                            x       y       z     vdW  Elec       q    Type
REMARK                         _______ _______ _______ _____ _____    ______ ____
ROOT
ATOM      1  O   UNL     1      34.607 -18.444 -23.380  0.00  0.00    -0.356 OA
ATOM      2  C   UNL     1      34.907 -16.001 -22.909  0.00  0.00    +0.034 C 
ATOM      3  C   UNL     1      34.899 -17.168 -23.923  0.00  0.00    +0.118 C 
ATOM      4  C   UNL     1      33.887 -14.972 -23.462  0.00  0.00    +0.051 C 
ATOM      5  C   UNL     1      33.802 -15.295 -24.953  0.00  0.00    +0.117 C 
ATOM      6  C   UNL     1      33.822 -16.813 -24.947  0.00  0.00    +0.059 C 
ATOM      7  C   UNL     1      34.597 -16.358 -21.452  0.00  0.00    +0.003 C 
ATOM      8  C   UNL     1      35.655 -17.245 -20.798  0.00  0.00    +0.003 C 
ATOM      9  C   UNL     1      35.527 -18.734 -21.146  0.00  0.00    +0.030 C 
ATOM     10  C   UNL     1      35.684 -19.011 -22.641  0.00  0.00    +0.142 C 
ENDROOT
BRANCH   5  11
ATOM     11  O   UNL     1      32.595 -14.832 -25.531  0.00  0.00    -0.384 OA
ATOM     12  H   UNL     1      32.779 -14.455 -26.406  0.00  0.00    +0.210 HD
ENDBRANCH   5  11
BRANCH   4  13
ATOM     13  C   UNL     1      34.273 -13.551 -23.203  0.00  0.00    -0.026 C 
ATOM     14  C   UNL     1      33.539 -12.496 -23.589  0.00  0.00    +0.002 C 
BRANCH  14  15
ATOM     15  C   UNL     1      33.929 -11.068 -23.328  0.00  0.00    +0.176 C 
BRANCH  15  16
ATOM     16  O   UNL     1      35.041 -10.765 -24.166  0.00  0.00    -0.376 OA
ATOM     17  H   UNL     1      35.854 -10.771 -23.638  0.00  0.00    +0.211 HD
ENDBRANCH  15  16
BRANCH  15  18
ATOM     18  C   UNL     1      32.788 -10.106 -23.649  0.00  0.00    +0.239 C 
BRANCH  18  19
ATOM     19  O   UNL     1      31.670 -10.387 -22.818  0.00  0.00    -0.470 OA
BRANCH  19  22
ATOM     20  F   UNL     1      31.211 -12.340 -20.928  0.00  0.00    -0.201 F 
ATOM     21  F   UNL     1      32.682  -7.327 -19.311  0.00  0.00    -0.204 F 
ATOM     22  C   UNL     1      31.807 -10.113 -21.482  0.00  0.00    +0.168 C 
ATOM     23  C   UNL     1      31.572 -11.111 -20.536  0.00  0.00    +0.174 C 
ATOM     24  C   UNL     1      32.182  -8.834 -21.067  0.00  0.00    +0.069 C 
ATOM     25  C   UNL     1      32.321  -8.554 -19.708  0.00  0.00    +0.143 C 
ATOM     26  C   UNL     1      31.711 -10.830 -19.176  0.00  0.00    +0.035 C 
ATOM     27  C   UNL     1      32.085  -9.552 -18.763  0.00  0.00    +0.032 C 
ENDBRANCH  19  22
ENDBRANCH  18  19
ENDBRANCH  15  18
ENDBRANCH  14  15
ENDBRANCH   4  13
BRANCH   9  28
ATOM     28  C   UNL     1      36.560 -19.542 -20.356  0.00  0.00    +0.003 C 
BRANCH  28  29
ATOM     29  C   UNL     1      36.020 -20.921 -19.995  0.00  0.00    +0.012 C 
BRANCH  29  30
ATOM     30  C   UNL     1      34.565 -20.835 -19.536  0.00  0.00    +0.110 C 
BRANCH  30  32
ATOM     31  O   UNL     1      32.958 -22.591 -19.037  0.00  0.00    -0.250 OA
ATOM     32  C   UNL     1      34.086 -22.132 -18.924  0.00  0.00    +0.317 C 
BRANCH  32  33
ATOM     33  O   UNL     1      35.115 -22.698 -18.228  0.00  0.00    -0.452 OA
BRANCH  33  34
ATOM     34  C   UNL     1      35.236 -22.286 -16.863  0.00  0.00    +0.169 C 
ATOM     35  C   UNL     1      36.710 -22.163 -16.505  0.00  0.00    +0.047 C 
ATOM     36  C   UNL     1      34.520 -23.290 -15.972  0.00  0.00    +0.047 C 
ENDBRANCH  33  34
ENDBRANCH  32  33
ENDBRANCH  30  32
ENDBRANCH  29  30
ENDBRANCH  28  29
ENDBRANCH   9  28
TORSDOF 13
ENDMDL
MODEL 2
REMARK VINA RESULT:     -10.4      1.471      1.856
REMARK  Name = 50902259
REMARK  13 active torsions:
REMARK  status: ('A' for Active; 'I' for Inactive)
REMARK    1  A    between atoms: C_4  and  C_13
REMARK    2  A    between atoms: C_5  and  O_11
REMARK    3  A    between atoms: C_9  and  C_28
REMARK    4  A    between atoms: C_14  and  C_15
REMARK    5  A    between atoms: C_15  and  O_16
REMARK    6  A    between atoms: C_15  and  C_18
REMARK    7  A    between atoms: C_18  and  O_19
REMARK    8  A    between atoms: O_19  and  C_22
REMARK    9  A    between atoms: C_28  and  C_29
REMARK   10  A    between atoms: C_29  and  C_30
REMARK   11  A    between atoms: C_30  and  C_32
REMARK   12  A    between atoms: C_32  and  O_33
REMARK   13  A    between atoms: O_33  and  C_34
REMARK                            x       y       z     vdW  Elec       q    Type
REMARK                         _______ _______ _______ _____ _____    ______ ____
ROOT
ATOM      1  O   UNL     1      34.539 -18.195 -23.504  0.00  0.00    -0.356 OA
ATOM      2  C   UNL     1      34.811 -15.753 -23.012  0.00  0.00    +0.034 C 
ATOM      3  C   UNL     1      34.814 -16.910 -24.036  0.00  0.00    +0.118 C 
ATOM      4  C   UNL     1      33.777 -14.731 -23.552  0.00  0.00    +0.051 C 
ATOM      5  C   UNL     1      33.691 -15.042 -25.046  0.00  0.00    +0.117 C 
ATOM      6  C   UNL     1      33.730 -16.559 -25.054  0.00  0.00    +0.059 C 
ATOM      7  C   UNL     1      34.510 -16.127 -21.557  0.00  0.00    +0.003 C 
ATOM      8  C   UNL     1      35.581 -17.008 -20.915  0.00  0.00    +0.003 C 
ATOM      9  C   UNL     1      35.470 -18.495 -21.276  0.00  0.00    +0.030 C 
ATOM     10  C   UNL     1      35.625 -18.756 -22.775  0.00  0.00    +0.142 C 
ENDROOT
BRANCH   5  11
ATOM     11  O   UNL     1      32.477 -14.587 -25.615  0.00  0.00    -0.384 OA
ATOM     12  H   UNL     1      32.671 -13.993 -26.357  0.00  0.00    +0.210 HD
ENDBRANCH   5  11
BRANCH   4  13
ATOM     13  C   UNL     1      34.146 -13.308 -23.280  0.00  0.00    -0.026 C 
ATOM     14  C   UNL     1      33.320 -12.270 -23.485  0.00  0.00    +0.002 C 
BRANCH  14  15
ATOM     15  C   UNL     1      33.694 -10.841 -23.212  0.00  0.00    +0.176 C 
BRANCH  15  16
ATOM     16  O   UNL     1      34.981 -10.616 -23.780  0.00  0.00    -0.376 OA
ATOM     17  H   UNL     1      34.906 -10.580 -24.746  0.00  0.00    +0.211 HD
ENDBRANCH  15  16
BRANCH  15  18
ATOM     18  C   UNL     1      32.697  -9.870 -23.840  0.00  0.00    +0.239 C 
BRANCH  18  19
ATOM     19  O   UNL     1      31.667  -9.566 -22.910  0.00  0.00    -0.470 OA
BRANCH  19  22
ATOM     20  F   UNL     1      30.257  -7.415 -23.902  0.00  0.00    -0.201 F 
ATOM     21  F   UNL     1      33.329  -6.782 -19.422  0.00  0.00    -0.204 F 
ATOM     22  C   UNL     1      31.729  -8.344 -22.293  0.00  0.00    +0.168 C 
ATOM     23  C   UNL     1      31.011  -7.264 -22.805  0.00  0.00    +0.174 C 
ATOM     24  C   UNL     1      32.513  -8.181 -21.150  0.00  0.00    +0.069 C 
ATOM     25  C   UNL     1      32.578  -6.938 -20.520  0.00  0.00    +0.143 C 
ATOM     26  C   UNL     1      31.076  -6.021 -22.175  0.00  0.00    +0.035 C 
ATOM     27  C   UNL     1      31.860  -5.858 -21.033  0.00  0.00    +0.032 C 
ENDBRANCH  19  22
ENDBRANCH  18  19
ENDBRANCH  15  18
ENDBRANCH  14  15
ENDBRANCH   4  13
BRANCH   9  28
ATOM     28  C   UNL     1      36.515 -19.297 -20.496  0.00  0.00    +0.003 C 
BRANCH  28  29
ATOM     29  C   UNL     1      35.975 -20.668 -20.106  0.00  0.00    +0.012 C 
BRANCH  29  30
ATOM     30  C   UNL     1      34.485 -20.595 -19.776  0.00  0.00    +0.110 C 
BRANCH  30  32
ATOM     31  O   UNL     1      32.834 -22.244 -19.090  0.00  0.00    -0.250 OA
ATOM     32  C   UNL     1      33.993 -21.852 -19.094  0.00  0.00    +0.317 C 
BRANCH  32  33
ATOM     33  O   UNL     1      35.049 -22.467 -18.487  0.00  0.00    -0.452 OA
BRANCH  33  34
ATOM     34  C   UNL     1      35.189 -22.212 -17.085  0.00  0.00    +0.169 C 
ATOM     35  C   UNL     1      36.667 -22.165 -16.729  0.00  0.00    +0.047 C 
ATOM     36  C   UNL     1      34.452 -23.289 -16.304  0.00  0.00    +0.047 C 
ENDBRANCH  33  34
ENDBRANCH  32  33
ENDBRANCH  30  32
ENDBRANCH  29  30
ENDBRANCH  28  29
ENDBRANCH   9  28
TORSDOF 13
ENDMDL
MODEL 3
REMARK VINA RESULT:     -10.4      6.328     13.647
REMARK  Name = 50902259
REMARK  13 active torsions:
REMARK  status: ('A' for Active; 'I' for Inactive)
REMARK    1  A    between atoms: C_4  and  C_13
REMARK    2  A    between atoms: C_5  and  O_11
REMARK    3  A    between atoms: C_9  and  C_28
REMARK    4  A    between atoms: C_14  and  C_15
REMARK    5  A    between atoms: C_15  and  O_16
REMARK    6  A    between atoms: C_15  and  C_18
REMARK    7  A    between atoms: C_18  and  O_19
REMARK    8  A    between atoms: O_19  and  C_22
REMARK    9  A    between atoms: C_28  and  C_29
REMARK   10  A    between atoms: C_29  and  C_30
REMARK   11  A    between atoms: C_30  and  C_32
REMARK   12  A    between atoms: C_32  and  O_33
REMARK   13  A    between atoms: O_33  and  C_34
REMARK                            x       y       z     vdW  Elec       q    Type
REMARK                         _______ _______ _______ _____ _____    ______ ____
ROOT
ATOM      1  O   UNL     1      31.601 -23.238 -16.700  0.00  0.00    -0.356 OA
ATOM      2  C   UNL     1      33.123 -23.091 -14.715  0.00  0.00    +0.034 C 
ATOM      3  C   UNL     1      31.722 -22.884 -15.334  0.00  0.00    +0.118 C 
ATOM      4  C   UNL     1      32.897 -24.019 -13.492  0.00  0.00    +0.051 C 
ATOM      5  C   UNL     1      31.423 -23.820 -13.142  0.00  0.00    +0.117 C 
ATOM      6  C   UNL     1      30.778 -23.762 -14.514  0.00  0.00    +0.059 C 
ATOM      7  C   UNL     1      34.203 -23.655 -15.643  0.00  0.00    +0.003 C 
ATOM      8  C   UNL     1      34.587 -22.713 -16.783  0.00  0.00    +0.003 C 
ATOM      9  C   UNL     1      33.615 -22.737 -17.970  0.00  0.00    +0.030 C 
ATOM     10  C   UNL     1      32.200 -22.302 -17.589  0.00  0.00    +0.142 C 
ENDROOT
BRANCH   5  11
ATOM     11  O   UNL     1      30.898 -24.911 -12.408  0.00  0.00    -0.384 OA
ATOM     12  H   UNL     1      30.613 -25.607 -13.021  0.00  0.00    +0.210 HD
ENDBRANCH   5  11
BRANCH   4  13
ATOM     13  C   UNL     1      33.806 -23.723 -12.343  0.00  0.00    -0.026 C 
ATOM     14  C   UNL     1      34.747 -24.571 -11.899  0.00  0.00    +0.002 C 
BRANCH  14  15
ATOM     15  C   UNL     1      35.661 -24.273 -10.744  0.00  0.00    +0.176 C 
BRANCH  15  16
ATOM     16  O   UNL     1      35.284 -25.125  -9.666  0.00  0.00    -0.376 OA
ATOM     17  H   UNL     1      35.494 -24.692  -8.823  0.00  0.00    +0.211 HD
ENDBRANCH  15  16
BRANCH  15  18
ATOM     18  C   UNL     1      37.122 -24.537 -11.099  0.00  0.00    +0.239 C 
BRANCH  18  19
ATOM     19  O   UNL     1      37.202 -25.534 -12.108  0.00  0.00    -0.470 OA
BRANCH  19  22
ATOM     20  F   UNL     1      36.982 -23.595 -14.054  0.00  0.00    -0.201 F 
ATOM     21  F   UNL     1      41.372 -26.855 -13.990  0.00  0.00    -0.204 F 
ATOM     22  C   UNL     1      38.179 -25.381 -13.056  0.00  0.00    +0.168 C 
ATOM     23  C   UNL     1      38.056 -24.396 -14.035  0.00  0.00    +0.174 C 
ATOM     24  C   UNL     1      39.300 -26.212 -13.041  0.00  0.00    +0.069 C 
ATOM     25  C   UNL     1      40.296 -26.058 -14.005  0.00  0.00    +0.143 C 
ATOM     26  C   UNL     1      39.052 -24.242 -15.000  0.00  0.00    +0.035 C 
ATOM     27  C   UNL     1      40.172 -25.072 -14.984  0.00  0.00    +0.032 C 
ENDBRANCH  19  22
ENDBRANCH  18  19
ENDBRANCH  15  18
ENDBRANCH  14  15
ENDBRANCH   4  13
BRANCH   9  28
ATOM     28  C   UNL     1      34.149 -21.847 -19.095  0.00  0.00    +0.003 C 
BRANCH  28  29
ATOM     29  C   UNL     1      35.604 -21.465 -18.849  0.00  0.00    +0.012 C 
BRANCH  29  30
ATOM     30  C   UNL     1      36.295 -21.073 -20.155  0.00  0.00    +0.110 C 
BRANCH  30  32
ATOM     31  O   UNL     1      37.562 -19.015 -19.881  0.00  0.00    -0.250 OA
ATOM     32  C   UNL     1      36.541 -19.584 -20.242  0.00  0.00    +0.317 C 
BRANCH  32  33
ATOM     33  O   UNL     1      35.439 -18.985 -20.783  0.00  0.00    -0.452 OA
BRANCH  33  34
ATOM     34  C   UNL     1      35.605 -18.474 -22.109  0.00  0.00    +0.169 C 
ATOM     35  C   UNL     1      35.344 -16.975 -22.104  0.00  0.00    +0.047 C 
ATOM     36  C   UNL     1      34.664 -19.210 -23.051  0.00  0.00    +0.047 C 
ENDBRANCH  33  34
ENDBRANCH  32  33
ENDBRANCH  30  32
ENDBRANCH  29  30
ENDBRANCH  28  29
ENDBRANCH   9  28
TORSDOF 13
ENDMDL
MODEL 4
REMARK VINA RESULT:     -10.3      3.513      7.507
REMARK  Name = 50902259
REMARK  13 active torsions:
REMARK  status: ('A' for Active; 'I' for Inactive)
REMARK    1  A    between atoms: C_4  and  C_13
REMARK    2  A    between atoms: C_5  and  O_11
REMARK    3  A    between atoms: C_9  and  C_28
REMARK    4  A    between atoms: C_14  and  C_15
REMARK    5  A    between atoms: C_15  and  O_16
REMARK    6  A    between atoms: C_15  and  C_18
REMARK    7  A    between atoms: C_18  and  O_19
REMARK    8  A    between atoms: O_19  and  C_22
REMARK    9  A    between atoms: C_28  and  C_29
REMARK   10  A    between atoms: C_29  and  C_30
REMARK   11  A    between atoms: C_30  and  C_32
REMARK   12  A    between atoms: C_32  and  O_33
REMARK   13  A    between atoms: O_33  and  C_34
REMARK                            x       y       z     vdW  Elec       q    Type
REMARK                         _______ _______ _______ _____ _____    ______ ____
ROOT
ATOM      1  O   UNL     1      34.685 -22.879 -16.140  0.00  0.00    -0.356 OA
ATOM      2  C   UNL     1      35.567 -21.911 -18.277  0.00  0.00    +0.034 C 
ATOM      3  C   UNL     1      34.573 -22.847 -17.552  0.00  0.00    +0.118 C 
ATOM      4  C   UNL     1      34.687 -20.949 -19.115  0.00  0.00    +0.051 C 
ATOM      5  C   UNL     1      33.371 -21.705 -19.291  0.00  0.00    +0.117 C 
ATOM      6  C   UNL     1      33.183 -22.331 -17.921  0.00  0.00    +0.059 C 
ATOM      7  C   UNL     1      36.545 -21.134 -17.390  0.00  0.00    +0.003 C 
ATOM      8  C   UNL     1      37.549 -22.022 -16.656  0.00  0.00    +0.003 C 
ATOM      9  C   UNL     1      36.992 -22.684 -15.388  0.00  0.00    +0.030 C 
ATOM     10  C   UNL     1      35.812 -23.614 -15.672  0.00  0.00    +0.142 C 
ENDROOT
BRANCH   5  11
ATOM     11  O   UNL     1      32.290 -20.835 -19.576  0.00  0.00    -0.384 OA
ATOM     12  H   UNL     1      31.518 -21.095 -19.049  0.00  0.00    +0.210 HD
ENDBRANCH   5  11
BRANCH   4  13
ATOM     13  C   UNL     1      35.305 -20.559 -20.419  0.00  0.00    -0.026 C 
ATOM     14  C   UNL     1      34.783 -19.641 -21.248  0.00  0.00    +0.002 C 
BRANCH  14  15
ATOM     15  C   UNL     1      35.405 -19.252 -22.559  0.00  0.00    +0.176 C 
BRANCH  15  16
ATOM     16  O   UNL     1      34.361 -19.173 -23.525  0.00  0.00    -0.376 OA
ATOM     17  H   UNL     1      34.421 -19.931 -24.128  0.00  0.00    +0.211 HD
ENDBRANCH  15  16
BRANCH  15  18
ATOM     18  C   UNL     1      36.102 -17.896 -22.469  0.00  0.00    +0.239 C 
BRANCH  18  19
ATOM     19  O   UNL     1      35.522 -17.122 -21.429  0.00  0.00    -0.470 OA
BRANCH  19  22
ATOM     20  F   UNL     1      34.779 -15.271 -19.527  0.00  0.00    -0.201 F 
ATOM     21  F   UNL     1      33.824 -14.227 -24.809  0.00  0.00    -0.204 F 
ATOM     22  C   UNL     1      34.918 -15.947 -21.795  0.00  0.00    +0.168 C 
ATOM     23  C   UNL     1      34.547 -15.019 -20.821  0.00  0.00    +0.174 C 
ATOM     24  C   UNL     1      34.673 -15.679 -23.142  0.00  0.00    +0.069 C 
ATOM     25  C   UNL     1      34.058 -14.484 -23.516  0.00  0.00    +0.143 C 
ATOM     26  C   UNL     1      33.931 -13.824 -21.195  0.00  0.00    +0.035 C 
ATOM     27  C   UNL     1      33.687 -13.557 -22.542  0.00  0.00    +0.032 C 
ENDBRANCH  19  22
ENDBRANCH  18  19
ENDBRANCH  15  18
ENDBRANCH  14  15
ENDBRANCH   4  13
BRANCH   9  28
ATOM     28  C   UNL     1      38.104 -23.457 -14.675  0.00  0.00    +0.003 C 
BRANCH  28  29
ATOM     29  C   UNL     1      37.703 -24.909 -14.446  0.00  0.00    +0.012 C 
BRANCH  29  30
ATOM     30  C   UNL     1      38.545 -25.541 -13.338  0.00  0.00    +0.110 C 
BRANCH  30  32
ATOM     31  O   UNL     1      37.074 -27.125 -12.223  0.00  0.00    -0.250 OA
ATOM     32  C   UNL     1      37.690 -26.068 -12.208  0.00  0.00    +0.317 C 
BRANCH  32  33
ATOM     33  O   UNL     1      37.720 -25.174 -11.177  0.00  0.00    -0.452 OA
BRANCH  33  34
ATOM     34  C   UNL     1      36.665 -24.207 -11.169  0.00  0.00    +0.169 C 
ATOM     35  C   UNL     1      37.265 -22.809 -11.149  0.00  0.00    +0.047 C 
ATOM     36  C   UNL     1      35.767 -24.456  -9.966  0.00  0.00    +0.047 C 
ENDBRANCH  33  34
ENDBRANCH  32  33
ENDBRANCH  30  32
ENDBRANCH  29  30
ENDBRANCH  28  29
ENDBRANCH   9  28
TORSDOF 13
ENDMDL
MODEL 5
REMARK VINA RESULT:     -10.3      3.566     10.748
REMARK  Name = 50902259
REMARK  13 active torsions:
REMARK  status: ('A' for Active; 'I' for Inactive)
REMARK    1  A    between atoms: C_4  and  C_13
REMARK    2  A    between atoms: C_5  and  O_11
REMARK    3  A    between atoms: C_9  and  C_28
REMARK    4  A    between atoms: C_14  and  C_15
REMARK    5  A    between atoms: C_15  and  O_16
REMARK    6  A    between atoms: C_15  and  C_18
REMARK    7  A    between atoms: C_18  and  O_19
REMARK    8  A    between atoms: O_19  and  C_22
REMARK    9  A    between atoms: C_28  and  C_29
REMARK   10  A    between atoms: C_29  and  C_30
REMARK   11  A    between atoms: C_30  and  C_32
REMARK   12  A    between atoms: C_32  and  O_33
REMARK   13  A    between atoms: O_33  and  C_34
REMARK                            x       y       z     vdW  Elec       q    Type
REMARK                         _______ _______ _______ _____ _____    ______ ____
ROOT
ATOM      1  O   UNL     1      32.664 -12.547 -23.031  0.00  0.00    -0.356 OA
ATOM      2  C   UNL     1      33.536 -14.554 -21.809  0.00  0.00    +0.034 C 
ATOM      3  C   UNL     1      32.815 -13.956 -23.039  0.00  0.00    +0.118 C 
ATOM      4  C   UNL     1      34.733 -15.355 -22.385  0.00  0.00    +0.051 C 
ATOM      5  C   UNL     1      34.321 -15.655 -23.825  0.00  0.00    +0.117 C 
ATOM      6  C   UNL     1      33.668 -14.351 -24.244  0.00  0.00    +0.059 C 
ATOM      7  C   UNL     1      34.001 -13.560 -20.739  0.00  0.00    +0.003 C 
ATOM      8  C   UNL     1      32.854 -12.851 -20.020  0.00  0.00    +0.003 C 
ATOM      9  C   UNL     1      32.260 -11.670 -20.798  0.00  0.00    +0.030 C 
ATOM     10  C   UNL     1      31.655 -12.085 -22.139  0.00  0.00    +0.142 C 
ENDROOT
BRANCH   5  11
ATOM     11  O   UNL     1      35.438 -15.923 -24.654  0.00  0.00    -0.384 OA
ATOM     12  H   UNL     1      36.093 -15.214 -24.553  0.00  0.00    +0.210 HD
ENDBRANCH   5  11
BRANCH   4  13
ATOM     13  C   UNL     1      35.051 -16.591 -21.608  0.00  0.00    -0.026 C 
ATOM     14  C   UNL     1      35.615 -17.685 -22.143  0.00  0.00    +0.002 C 
BRANCH  14  15
ATOM     15  C   UNL     1      35.934 -18.928 -21.361  0.00  0.00    +0.176 C 
BRANCH  15  16
ATOM     16  O   UNL     1      36.934 -18.589 -20.404  0.00  0.00    -0.376 OA
ATOM     17  H   UNL     1      37.652 -18.107 -20.843  0.00  0.00    +0.211 HD
ENDBRANCH  15  16
BRANCH  15  18
ATOM     18  C   UNL     1      34.706 -19.462 -20.629  0.00  0.00    +0.239 C 
BRANCH  18  19
ATOM     19  O   UNL     1      34.735 -20.882 -20.607  0.00  0.00    -0.470 OA
BRANCH  19  22
ATOM     20  F   UNL     1      36.991 -21.362 -19.098  0.00  0.00    -0.201 F 
ATOM     21  F   UNL     1      32.096 -22.840 -17.159  0.00  0.00    -0.204 F 
ATOM     22  C   UNL     1      34.641 -21.485 -19.380  0.00  0.00    +0.168 C 
ATOM     23  C   UNL     1      35.790 -21.722 -18.627  0.00  0.00    +0.174 C 
ATOM     24  C   UNL     1      33.392 -21.864 -18.884  0.00  0.00    +0.069 C 
ATOM     25  C   UNL     1      33.294 -22.478 -17.636  0.00  0.00    +0.143 C 
ATOM     26  C   UNL     1      35.692 -22.337 -17.378  0.00  0.00    +0.035 C 
ATOM     27  C   UNL     1      34.444 -22.714 -16.883  0.00  0.00    +0.032 C 
ENDBRANCH  19  22
ENDBRANCH  18  19
ENDBRANCH  15  18
ENDBRANCH  14  15
ENDBRANCH   4  13
BRANCH   9  28
ATOM     28  C   UNL     1      31.201 -10.967 -19.945  0.00  0.00    +0.003 C 
BRANCH  28  29
ATOM     29  C   UNL     1      31.848 -10.081 -18.887  0.00  0.00    +0.012 C 
BRANCH  29  30
ATOM     30  C   UNL     1      31.516  -8.609 -19.129  0.00  0.00    +0.110 C 
BRANCH  30  32
ATOM     31  O   UNL     1      33.461  -7.154 -19.263  0.00  0.00    -0.250 OA
ATOM     32  C   UNL     1      32.646  -7.879 -19.818  0.00  0.00    +0.317 C 
BRANCH  32  33
ATOM     33  O   UNL     1      32.604  -8.160 -21.154  0.00  0.00    -0.452 OA
BRANCH  33  34
ATOM     34  C   UNL     1      31.442  -7.691 -21.846  0.00  0.00    +0.169 C 
ATOM     35  C   UNL     1      31.255  -8.504 -23.118  0.00  0.00    +0.047 C 
ATOM     36  C   UNL     1      31.600  -6.207 -22.140  0.00  0.00    +0.047 C 
ENDBRANCH  33  34
ENDBRANCH  32  33
ENDBRANCH  30  32
ENDBRANCH  29  30
ENDBRANCH  28  29
ENDBRANCH   9  28
TORSDOF 13
ENDMDL
MODEL 6
REMARK VINA RESULT:     -10.1      3.463     10.775
REMARK  Name = 50902259
REMARK  13 active torsions:
REMARK  status: ('A' for Active; 'I' for Inactive)
REMARK    1  A    between atoms: C_4  and  C_13
REMARK    2  A    between atoms: C_5  and  O_11
REMARK    3  A    between atoms: C_9  and  C_28
REMARK    4  A    between atoms: C_14  and  C_15
REMARK    5  A    between atoms: C_15  and  O_16
REMARK    6  A    between atoms: C_15  and  C_18
REMARK    7  A    between atoms: C_18  and  O_19
REMARK    8  A    between atoms: O_19  and  C_22
REMARK    9  A    between atoms: C_28  and  C_29
REMARK   10  A    between atoms: C_29  and  C_30
REMARK   11  A    between atoms: C_30  and  C_32
REMARK   12  A    between atoms: C_32  and  O_33
REMARK   13  A    between atoms: O_33  and  C_34
REMARK                            x       y       z     vdW  Elec       q    Type
REMARK                         _______ _______ _______ _____ _____    ______ ____
ROOT
ATOM      1  O   UNL     1      32.693 -12.500 -23.016  0.00  0.00    -0.356 OA
ATOM      2  C   UNL     1      33.543 -14.538 -21.830  0.00  0.00    +0.034 C 
ATOM      3  C   UNL     1      32.822 -13.911 -23.045  0.00  0.00    +0.118 C 
ATOM      4  C   UNL     1      34.722 -15.349 -22.427  0.00  0.00    +0.051 C 
ATOM      5  C   UNL     1      34.293 -15.622 -23.869  0.00  0.00    +0.117 C 
ATOM      6  C   UNL     1      33.658 -14.302 -24.263  0.00  0.00    +0.059 C 
ATOM      7  C   UNL     1      34.032 -13.567 -20.750  0.00  0.00    +0.003 C 
ATOM      8  C   UNL     1      32.903 -12.851 -20.010  0.00  0.00    +0.003 C 
ATOM      9  C   UNL     1      32.321 -11.649 -20.767  0.00  0.00    +0.030 C 
ATOM     10  C   UNL     1      31.699 -12.035 -22.109  0.00  0.00    +0.142 C 
ENDROOT
BRANCH   5  11
ATOM     11  O   UNL     1      35.399 -15.896 -24.710  0.00  0.00    -0.384 OA
ATOM     12  H   UNL     1      35.747 -15.063 -25.067  0.00  0.00    +0.210 HD
ENDBRANCH   5  11
BRANCH   4  13
ATOM     13  C   UNL     1      35.027 -16.602 -21.671  0.00  0.00    -0.026 C 
ATOM     14  C   UNL     1      35.861 -17.556 -22.112  0.00  0.00    +0.002 C 
BRANCH  14  15
ATOM     15  C   UNL     1      36.167 -18.815 -21.351  0.00  0.00    +0.176 C 
BRANCH  15  16
ATOM     16  O   UNL     1      37.059 -18.473 -20.294  0.00  0.00    -0.376 OA
ATOM     17  H   UNL     1      37.805 -19.093 -20.288  0.00  0.00    +0.211 HD
ENDBRANCH  15  16
BRANCH  15  18
ATOM     18  C   UNL     1      34.904 -19.432 -20.755  0.00  0.00    +0.239 C 
BRANCH  18  19
ATOM     19  O   UNL     1      35.036 -20.845 -20.697  0.00  0.00    -0.470 OA
BRANCH  19  22
ATOM     20  F   UNL     1      32.722 -21.897 -19.634  0.00  0.00    -0.201 F 
ATOM     21  F   UNL     1      37.352 -22.105 -16.731  0.00  0.00    -0.204 F 
ATOM     22  C   UNL     1      35.036 -21.418 -19.452  0.00  0.00    +0.168 C 
ATOM     23  C   UNL     1      33.858 -21.947 -18.926  0.00  0.00    +0.174 C 
ATOM     24  C   UNL     1      36.217 -21.471 -18.710  0.00  0.00    +0.069 C 
ATOM     25  C   UNL     1      36.219 -22.053 -17.443  0.00  0.00    +0.143 C 
ATOM     26  C   UNL     1      33.860 -22.528 -17.658  0.00  0.00    +0.035 C 
ATOM     27  C   UNL     1      35.040 -22.582 -16.917  0.00  0.00    +0.032 C 
ENDBRANCH  19  22
ENDBRANCH  18  19
ENDBRANCH  15  18
ENDBRANCH  14  15
ENDBRANCH   4  13
BRANCH   9  28
ATOM     28  C   UNL     1      31.281 -10.942 -19.894  0.00  0.00    +0.003 C 
BRANCH  28  29
ATOM     29  C   UNL     1      31.924  -9.845 -19.053  0.00  0.00    +0.012 C 
BRANCH  29  30
ATOM     30  C   UNL     1      31.662  -8.467 -19.659  0.00  0.00    +0.110 C 
BRANCH  30  32
ATOM     31  O   UNL     1      33.569  -7.041 -19.164  0.00  0.00    -0.250 OA
ATOM     32  C   UNL     1      32.946  -7.727 -19.962  0.00  0.00    +0.317 C 
BRANCH  32  33
ATOM     33  O   UNL     1      33.287  -7.951 -21.265  0.00  0.00    -0.452 OA
BRANCH  33  34
ATOM     34  C   UNL     1      33.863  -6.834 -21.950  0.00  0.00    +0.169 C 
ATOM     35  C   UNL     1      32.757  -6.034 -22.623  0.00  0.00    +0.047 C 
ATOM     36  C   UNL     1      34.888  -7.339 -22.955  0.00  0.00    +0.047 C 
ENDBRANCH  33  34
ENDBRANCH  32  33
ENDBRANCH  30  32
ENDBRANCH  29  30
ENDBRANCH  28  29
ENDBRANCH   9  28
TORSDOF 13
ENDMDL
MODEL 7
REMARK VINA RESULT:      -9.9      2.101      4.724
REMARK  Name = 50902259
REMARK  13 active torsions:
REMARK  status: ('A' for Active; 'I' for Inactive)
REMARK    1  A    between atoms: C_4  and  C_13
REMARK    2  A    between atoms: C_5  and  O_11
REMARK    3  A    between atoms: C_9  and  C_28
REMARK    4  A    between atoms: C_14  and  C_15
REMARK    5  A    between atoms: C_15  and  O_16
REMARK    6  A    between atoms: C_15  and  C_18
REMARK    7  A    between atoms: C_18  and  O_19
REMARK    8  A    between atoms: O_19  and  C_22
REMARK    9  A    between atoms: C_28  and  C_29
REMARK   10  A    between atoms: C_29  and  C_30
REMARK   11  A    between atoms: C_30  and  C_32
REMARK   12  A    between atoms: C_32  and  O_33
REMARK   13  A    between atoms: O_33  and  C_34
REMARK                            x       y       z     vdW  Elec       q    Type
REMARK                         _______ _______ _______ _____ _____    ______ ____
ROOT
ATOM      1  O   UNL     1      36.010 -21.460 -19.343  0.00  0.00    -0.356 OA
ATOM      2  C   UNL     1      35.117 -19.377 -20.412  0.00  0.00    +0.034 C 
ATOM      3  C   UNL     1      36.230 -20.086 -19.607  0.00  0.00    +0.118 C 
ATOM      4  C   UNL     1      35.829 -18.774 -21.651  0.00  0.00    +0.051 C 
ATOM      5  C   UNL     1      37.290 -18.655 -21.220  0.00  0.00    +0.117 C 
ATOM      6  C   UNL     1      37.496 -19.946 -20.451  0.00  0.00    +0.059 C 
ATOM      7  C   UNL     1      33.920 -20.238 -20.828  0.00  0.00    +0.003 C 
ATOM      8  C   UNL     1      33.081 -20.734 -19.651  0.00  0.00    +0.003 C 
ATOM      9  C   UNL     1      33.663 -21.963 -18.939  0.00  0.00    +0.030 C 
ATOM     10  C   UNL     1      35.040 -21.699 -18.328  0.00  0.00    +0.142 C 
ENDROOT
BRANCH   5  11
ATOM     11  O   UNL     1      38.170 -18.608 -22.328  0.00  0.00    -0.384 OA
ATOM     12  H   UNL     1      38.694 -19.424 -22.361  0.00  0.00    +0.210 HD
ENDBRANCH   5  11
BRANCH   4  13
ATOM     13  C   UNL     1      35.251 -17.468 -22.093  0.00  0.00    -0.026 C 
ATOM     14  C   UNL     1      35.210 -17.064 -23.372  0.00  0.00    +0.002 C 
BRANCH  14  15
ATOM     15  C   UNL     1      34.630 -15.751 -23.814  0.00  0.00    +0.176 C 
BRANCH  15  16
ATOM     16  O   UNL     1      33.551 -16.033 -24.702  0.00  0.00    -0.376 OA
ATOM     17  H   UNL     1      33.496 -16.991 -24.849  0.00  0.00    +0.211 HD
ENDBRANCH  15  16
BRANCH  15  18
ATOM     18  C   UNL     1      34.102 -14.943 -22.632  0.00  0.00    +0.239 C 
BRANCH  18  19
ATOM     19  O   UNL     1      34.572 -13.604 -22.711  0.00  0.00    -0.470 OA
BRANCH  19  22
ATOM     20  F   UNL     1      34.723 -11.409 -24.371  0.00  0.00    -0.201 F 
ATOM     21  F   UNL     1      30.617 -11.787 -20.779  0.00  0.00    -0.204 F 
ATOM     22  C   UNL     1      33.631 -12.611 -22.644  0.00  0.00    +0.168 C 
ATOM     23  C   UNL     1      33.719 -11.506 -23.490  0.00  0.00    +0.174 C 
ATOM     24  C   UNL     1      32.583 -12.706 -21.728  0.00  0.00    +0.069 C 
ATOM     25  C   UNL     1      31.623 -11.695 -21.658  0.00  0.00    +0.143 C 
ATOM     26  C   UNL     1      32.760 -10.495 -23.419  0.00  0.00    +0.035 C 
ATOM     27  C   UNL     1      31.713 -10.590 -22.504  0.00  0.00    +0.032 C 
ENDBRANCH  19  22
ENDBRANCH  18  19
ENDBRANCH  15  18
ENDBRANCH  14  15
ENDBRANCH   4  13
BRANCH   9  28
ATOM     28  C   UNL     1      32.694 -22.440 -17.854  0.00  0.00    +0.003 C 
BRANCH  28  29
ATOM     29  C   UNL     1      33.347 -23.486 -16.958  0.00  0.00    +0.012 C 
BRANCH  29  30
ATOM     30  C   UNL     1      33.100 -23.173 -15.482  0.00  0.00    +0.110 C 
BRANCH  30  32
ATOM     31  O   UNL     1      34.128 -23.880 -13.395  0.00  0.00    -0.250 OA
ATOM     32  C   UNL     1      34.215 -23.687 -14.600  0.00  0.00    +0.317 C 
BRANCH  32  33
ATOM     33  O   UNL     1      35.325 -23.895 -15.367  0.00  0.00    -0.452 OA
BRANCH  33  34
ATOM     34  C   UNL     1      36.570 -23.898 -14.660  0.00  0.00    +0.169 C 
ATOM     35  C   UNL     1      37.533 -22.935 -15.339  0.00  0.00    +0.047 C 
ATOM     36  C   UNL     1      37.120 -25.315 -14.620  0.00  0.00    +0.047 C 
ENDBRANCH  33  34
ENDBRANCH  32  33
ENDBRANCH  30  32
ENDBRANCH  29  30
ENDBRANCH  28  29
ENDBRANCH   9  28
TORSDOF 13
ENDMDL
MODEL 8
REMARK VINA RESULT:      -9.9      2.614      5.109
REMARK  Name = 50902259
REMARK  13 active torsions:
REMARK  status: ('A' for Active; 'I' for Inactive)
REMARK    1  A    between atoms: C_4  and  C_13
REMARK    2  A    between atoms: C_5  and  O_11
REMARK    3  A    between atoms: C_9  and  C_28
REMARK    4  A    between atoms: C_14  and  C_15
REMARK    5  A    between atoms: C_15  and  O_16
REMARK    6  A    between atoms: C_15  and  C_18
REMARK    7  A    between atoms: C_18  and  O_19
REMARK    8  A    between atoms: O_19  and  C_22
REMARK    9  A    between atoms: C_28  and  C_29
REMARK   10  A    between atoms: C_29  and  C_30
REMARK   11  A    between atoms: C_30  and  C_32
REMARK   12  A    between atoms: C_32  and  O_33
REMARK   13  A    between atoms: O_33  and  C_34
REMARK                            x       y       z     vdW  Elec       q    Type
REMARK                         _______ _______ _______ _____ _____    ______ ____
ROOT
ATOM      1  O   UNL     1      35.970 -21.557 -19.324  0.00  0.00    -0.356 OA
ATOM      2  C   UNL     1      35.119 -19.414 -20.305  0.00  0.00    +0.034 C 
ATOM      3  C   UNL     1      36.226 -20.181 -19.547  0.00  0.00    +0.118 C 
ATOM      4  C   UNL     1      35.824 -18.789 -21.538  0.00  0.00    +0.051 C 
ATOM      5  C   UNL     1      37.296 -18.727 -21.132  0.00  0.00    +0.117 C 
ATOM      6  C   UNL     1      37.479 -20.049 -20.410  0.00  0.00    +0.059 C 
ATOM      7  C   UNL     1      33.890 -20.225 -20.726  0.00  0.00    +0.003 C 
ATOM      8  C   UNL     1      33.059 -20.736 -19.550  0.00  0.00    +0.003 C 
ATOM      9  C   UNL     1      33.618 -22.005 -18.891  0.00  0.00    +0.030 C 
ATOM     10  C   UNL     1      35.013 -21.802 -18.299  0.00  0.00    +0.142 C 
ENDROOT
BRANCH   5  11
ATOM     11  O   UNL     1      38.156 -18.667 -22.255  0.00  0.00    -0.384 OA
ATOM     12  H   UNL     1      39.077 -18.614 -21.955  0.00  0.00    +0.210 HD
ENDBRANCH   5  11
BRANCH   4  13
ATOM     13  C   UNL     1      35.276 -17.453 -21.924  0.00  0.00    -0.026 C 
ATOM     14  C   UNL     1      35.236 -16.999 -23.187  0.00  0.00    +0.002 C 
BRANCH  14  15
ATOM     15  C   UNL     1      34.686 -15.655 -23.573  0.00  0.00    +0.176 C 
BRANCH  15  16
ATOM     16  O   UNL     1      33.699 -15.867 -24.579  0.00  0.00    -0.376 OA
ATOM     17  H   UNL     1      33.390 -16.786 -24.540  0.00  0.00    +0.211 HD
ENDBRANCH  15  16
BRANCH  15  18
ATOM     18  C   UNL     1      34.040 -14.949 -22.384  0.00  0.00    +0.239 C 
BRANCH  18  19
ATOM     19  O   UNL     1      34.501 -13.607 -22.310  0.00  0.00    -0.470 OA
BRANCH  19  22
ATOM     20  F   UNL     1      34.658 -11.676 -24.270  0.00  0.00    -0.201 F 
ATOM     21  F   UNL     1      30.515 -11.554 -20.703  0.00  0.00    -0.204 F 
ATOM     22  C   UNL     1      33.553 -12.621 -22.398  0.00  0.00    +0.168 C 
ATOM     23  C   UNL     1      33.645 -11.650 -23.395  0.00  0.00    +0.174 C 
ATOM     24  C   UNL     1      32.496 -12.588 -21.488  0.00  0.00    +0.069 C 
ATOM     25  C   UNL     1      31.531 -11.585 -21.576  0.00  0.00    +0.143 C 
ATOM     26  C   UNL     1      32.680 -10.646 -23.482  0.00  0.00    +0.035 C 
ATOM     27  C   UNL     1      31.623 -10.614 -22.573  0.00  0.00    +0.032 C 
ENDBRANCH  19  22
ENDBRANCH  18  19
ENDBRANCH  15  18
ENDBRANCH  14  15
ENDBRANCH   4  13
BRANCH   9  28
ATOM     28  C   UNL     1      32.656 -22.491 -17.803  0.00  0.00    +0.003 C 
BRANCH  28  29
ATOM     29  C   UNL     1      33.359 -23.431 -16.830  0.00  0.00    +0.012 C 
BRANCH  29  30
ATOM     30  C   UNL     1      33.154 -22.975 -15.386  0.00  0.00    +0.110 C 
BRANCH  30  32
ATOM     31  O   UNL     1      32.700 -24.441 -13.499  0.00  0.00    -0.250 OA
ATOM     32  C   UNL     1      32.362 -23.981 -14.581  0.00  0.00    +0.317 C 
BRANCH  32  33
ATOM     33  O   UNL     1      31.218 -24.287 -15.260  0.00  0.00    -0.452 OA
BRANCH  33  34
ATOM     34  C   UNL     1      30.000 -23.878 -14.631  0.00  0.00    +0.169 C 
ATOM     35  C   UNL     1      29.107 -25.093 -14.429  0.00  0.00    +0.047 C 
ATOM     36  C   UNL     1      29.326 -22.816 -15.487  0.00  0.00    +0.047 C 
ENDBRANCH  33  34
ENDBRANCH  32  33
ENDBRANCH  30  32
ENDBRANCH  29  30
ENDBRANCH  28  29
ENDBRANCH   9  28
TORSDOF 13
ENDMDL
MODEL 9
REMARK VINA RESULT:      -9.8      5.025      9.916
REMARK  Name = 50902259
REMARK  13 active torsions:
REMARK  status: ('A' for Active; 'I' for Inactive)
REMARK    1  A    between atoms: C_4  and  C_13
REMARK    2  A    between atoms: C_5  and  O_11
REMARK    3  A    between atoms: C_9  and  C_28
REMARK    4  A    between atoms: C_14  and  C_15
REMARK    5  A    between atoms: C_15  and  O_16
REMARK    6  A    between atoms: C_15  and  C_18
REMARK    7  A    between atoms: C_18  and  O_19
REMARK    8  A    between atoms: O_19  and  C_22
REMARK    9  A    between atoms: C_28  and  C_29
REMARK   10  A    between atoms: C_29  and  C_30
REMARK   11  A    between atoms: C_30  and  C_32
REMARK   12  A    between atoms: C_32  and  O_33
REMARK   13  A    between atoms: O_33  and  C_34
REMARK                            x       y       z     vdW  Elec       q    Type
REMARK                         _______ _______ _______ _____ _____    ______ ____
ROOT
ATOM      1  O   UNL     1      34.441 -24.333 -13.581  0.00  0.00    -0.356 OA
ATOM      2  C   UNL     1      34.985 -22.730 -15.429  0.00  0.00    +0.034 C 
ATOM      3  C   UNL     1      35.265 -23.260 -14.004  0.00  0.00    +0.118 C 
ATOM      4  C   UNL     1      36.338 -22.839 -16.179  0.00  0.00    +0.051 C 
ATOM      5  C   UNL     1      37.382 -22.855 -15.064  0.00  0.00    +0.117 C 
ATOM      6  C   UNL     1      36.717 -23.735 -14.022  0.00  0.00    +0.059 C 
ATOM      7  C   UNL     1      33.863 -23.423 -16.209  0.00  0.00    +0.003 C 
ATOM      8  C   UNL     1      32.476 -23.216 -15.603  0.00  0.00    +0.003 C 
ATOM      9  C   UNL     1      32.164 -24.140 -14.418  0.00  0.00    +0.030 C 
ATOM     10  C   UNL     1      33.117 -23.937 -13.239  0.00  0.00    +0.142 C 
ENDROOT
BRANCH   5  11
ATOM     11  O   UNL     1      38.601 -23.441 -15.484  0.00  0.00    -0.384 OA
ATOM     12  H   UNL     1      39.189 -23.548 -14.719  0.00  0.00    +0.210 HD
ENDBRANCH   5  11
BRANCH   4  13
ATOM     13  C   UNL     1      36.564 -21.738 -17.164  0.00  0.00    -0.026 C 
ATOM     14  C   UNL     1      35.910 -21.635 -18.332  0.00  0.00    +0.002 C 
BRANCH  14  15
ATOM     15  C   UNL     1      36.140 -20.527 -19.321  0.00  0.00    +0.176 C 
BRANCH  15  16
ATOM     16  O   UNL     1      37.250 -20.898 -20.133  0.00  0.00    -0.376 OA
ATOM     17  H   UNL     1      37.309 -21.865 -20.178  0.00  0.00    +0.211 HD
ENDBRANCH  15  16
BRANCH  15  18
ATOM     18  C   UNL     1      34.921 -20.310 -20.215  0.00  0.00    +0.239 C 
BRANCH  18  19
ATOM     19  O   UNL     1      35.336 -20.104 -21.558  0.00  0.00    -0.470 OA
BRANCH  19  22
ATOM     20  F   UNL     1      34.649 -19.772 -24.206  0.00  0.00    -0.201 F 
ATOM     21  F   UNL     1      35.262 -15.373 -21.015  0.00  0.00    -0.204 F 
ATOM     22  C   UNL     1      35.147 -18.851 -22.079  0.00  0.00    +0.168 C 
ATOM     23  C   UNL     1      34.800 -18.697 -23.421  0.00  0.00    +0.174 C 
ATOM     24  C   UNL     1      35.304 -17.727 -21.266  0.00  0.00    +0.069 C 
ATOM     25  C   UNL     1      35.113 -16.451 -21.796  0.00  0.00    +0.143 C 
ATOM     26  C   UNL     1      34.609 -17.420 -23.950  0.00  0.00    +0.035 C 
ATOM     27  C   UNL     1      34.765 -16.298 -23.137  0.00  0.00    +0.032 C 
ENDBRANCH  19  22
ENDBRANCH  18  19
ENDBRANCH  15  18
ENDBRANCH  14  15
ENDBRANCH   4  13
BRANCH   9  28
ATOM     28  C   UNL     1      30.718 -23.928 -13.962  0.00  0.00    +0.003 C 
BRANCH  28  29
ATOM     29  C   UNL     1      29.989 -22.957 -14.883  0.00  0.00    +0.012 C 
BRANCH  29  30
ATOM     30  C   UNL     1      28.506 -23.311 -14.986  0.00  0.00    +0.110 C 
BRANCH  30  32
ATOM     31  O   UNL     1      27.753 -24.351 -17.052  0.00  0.00    -0.250 OA
ATOM     32  C   UNL     1      28.029 -23.340 -16.421  0.00  0.00    +0.317 C 
BRANCH  32  33
ATOM     33  O   UNL     1      27.962 -22.059 -16.890  0.00  0.00    -0.452 OA
BRANCH  33  34
ATOM     34  C   UNL     1      26.673 -21.443 -16.818  0.00  0.00    +0.169 C 
ATOM     35  C   UNL     1      25.927 -21.982 -15.605  0.00  0.00    +0.047 C 
ATOM     36  C   UNL     1      25.917 -21.709 -18.111  0.00  0.00    +0.047 C 
ENDBRANCH  33  34
ENDBRANCH  32  33
ENDBRANCH  30  32
ENDBRANCH  29  30
ENDBRANCH  28  29
ENDBRANCH   9  28
TORSDOF 13
ENDMDL
