MODEL 1
REMARK VINA RESULT:     -12.1      0.000      0.000
REMARK  Name = 24832041
REMARK  6 active torsions:
REMARK  status: ('A' for Active; 'I' for Inactive)
REMARK    1  A    between atoms: C_1  and  C_18
REMARK    2  A    between atoms: C_4  and  C_7
REMARK    3  A    between atoms: C_10  and  C_15
REMARK    4  A    between atoms: C_18  and  N_19
REMARK    5  A    between atoms: C_18  and  C_23
REMARK    6  A    between atoms: C_23  and  C_26
REMARK                            x       y       z     vdW  Elec       q    Type
REMARK                         _______ _______ _______ _____ _____    ______ ____
ROOT
ATOM      1  C   UNL     1      35.265 -16.857 -21.600  0.00  0.00    -0.042 C 
ATOM      2  C   UNL     1      34.890 -15.981 -20.582  0.00  0.00    -0.006 C 
ATOM      3  C   UNL     1      35.109 -16.483 -22.935  0.00  0.00    -0.006 C 
ATOM      4  C   UNL     1      34.202 -14.356 -22.233  0.00  0.00    -0.000 C 
ATOM      5  C   UNL     1      34.359 -14.730 -20.898  0.00  0.00    -0.000 C 
ATOM      6  C   UNL     1      34.577 -15.233 -23.251  0.00  0.00    -0.000 C 
ENDROOT
BRANCH   4   7
ATOM      7  C   UNL     1      33.652 -13.060 -22.560  0.00  0.00    +0.000 C 
ATOM      8  C   UNL     1      32.734 -12.454 -21.701  0.00  0.00    +0.005 C 
ATOM      9  C   UNL     1      34.037 -12.414 -23.735  0.00  0.00    +0.000 C 
ATOM     10  C   UNL     1      32.203 -11.203 -22.017  0.00  0.00    +0.053 C 
ATOM     11  C   UNL     1      33.506 -11.164 -24.051  0.00  0.00    +0.000 C 
ATOM     12  C   UNL     1      32.589 -10.558 -23.192  0.00  0.00    +0.005 C 
BRANCH  10  15
ATOM     13  O   UNL     1      31.418  -9.409 -20.708  0.00  0.00    -0.270 OA
ATOM     14  N   UNL     1      30.124 -11.302 -20.751  0.00  0.00    -0.325 N 
ATOM     15  C   UNL     1      31.248 -10.570 -21.121  0.00  0.00    +0.243 C 
ATOM     16  H   UNL     1      29.456 -10.906 -20.145  0.00  0.00    +0.145 HD
ATOM     17  H   UNL     1      29.995 -12.215 -21.095  0.00  0.00    +0.145 HD
ENDBRANCH  10  15
ENDBRANCH   4   7
BRANCH   1  18
ATOM     18  C   UNL     1      35.834 -18.193 -21.263  0.00  0.00    -0.038 C 
BRANCH  18  19
ATOM     19  N   UNL     1      37.100 -18.453 -21.981  0.00  0.00    +0.384 N 
ATOM     20  H   UNL     1      37.541 -19.292 -21.602  0.00  0.00    -0.089 HD
ATOM     21  H   UNL     1      37.728 -17.657 -21.863  0.00  0.00    -0.089 HD
ATOM     22  H   UNL     1      36.908 -18.591 -22.973  0.00  0.00    -0.089 HD
ENDBRANCH  18  19
BRANCH  18  23
ATOM     23  C   UNL     1      34.872 -19.385 -21.538  0.00  0.00    +0.011 C 
BRANCH  23  26
ATOM     24  F   UNL     1      32.420 -20.414 -20.552  0.00  0.00    -0.205 F 
ATOM     25  F   UNL     1      36.994 -22.062 -18.046  0.00  0.00    -0.204 F 
ATOM     26  C   UNL     1      34.786 -20.348 -20.375  0.00  0.00    +0.006 C 
ATOM     27  C   UNL     1      33.545 -20.814 -19.943  0.00  0.00    +0.136 C 
ATOM     28  C   UNL     1      35.952 -20.769 -19.735  0.00  0.00    +0.028 C 
ATOM     29  C   UNL     1      35.875 -21.657 -18.661  0.00  0.00    +0.140 C 
ATOM     30  C   UNL     1      33.469 -21.701 -18.869  0.00  0.00    +0.032 C 
ATOM     31  C   UNL     1      34.633 -22.124 -18.229  0.00  0.00    +0.032 C 
ENDBRANCH  23  26
ENDBRANCH  18  23
ENDBRANCH   1  18
TORSDOF 6
ENDMDL
MODEL 2
REMARK VINA RESULT:     -11.9      4.561      9.888
REMARK  Name = 24832041
REMARK  6 active torsions:
REMARK  status: ('A' for Active; 'I' for Inactive)
REMARK    1  A    between atoms: C_1  and  C_18
REMARK    2  A    between atoms: C_4  and  C_7
REMARK    3  A    between atoms: C_10  and  C_15
REMARK    4  A    between atoms: C_18  and  N_19
REMARK    5  A    between atoms: C_18  and  C_23
REMARK    6  A    between atoms: C_23  and  C_26
REMARK                            x       y       z     vdW  Elec       q    Type
REMARK                         _______ _______ _______ _____ _____    ______ ____
ROOT
ATOM      1  C   UNL     1      34.820 -19.896 -20.904  0.00  0.00    -0.042 C 
ATOM      2  C   UNL     1      36.052 -20.166 -20.310  0.00  0.00    -0.006 C 
ATOM      3  C   UNL     1      33.650 -20.414 -20.347  0.00  0.00    -0.006 C 
ATOM      4  C   UNL     1      34.947 -21.472 -18.604  0.00  0.00    -0.000 C 
ATOM      5  C   UNL     1      36.117 -20.953 -19.161  0.00  0.00    -0.000 C 
ATOM      6  C   UNL     1      33.713 -21.201 -19.198  0.00  0.00    -0.000 C 
ENDROOT
BRANCH   4   7
ATOM      7  C   UNL     1      35.013 -22.287 -17.412  0.00  0.00    +0.000 C 
ATOM      8  C   UNL     1      36.203 -22.370 -16.689  0.00  0.00    +0.005 C 
ATOM      9  C   UNL     1      33.888 -22.991 -16.985  0.00  0.00    +0.000 C 
ATOM     10  C   UNL     1      36.268 -23.157 -15.539  0.00  0.00    +0.053 C 
ATOM     11  C   UNL     1      33.952 -23.778 -15.835  0.00  0.00    +0.000 C 
ATOM     12  C   UNL     1      35.142 -23.861 -15.112  0.00  0.00    +0.005 C 
BRANCH  10  15
ATOM     13  O   UNL     1      37.545 -22.978 -13.568  0.00  0.00    -0.270 OA
ATOM     14  N   UNL     1      38.653 -23.647 -15.461  0.00  0.00    -0.325 N 
ATOM     15  C   UNL     1      37.507 -23.242 -14.783  0.00  0.00    +0.243 C 
ATOM     16  H   UNL     1      39.510 -23.715 -14.982  0.00  0.00    +0.145 HD
ATOM     17  H   UNL     1      38.606 -23.865 -16.420  0.00  0.00    +0.145 HD
ENDBRANCH  10  15
ENDBRANCH   4   7
BRANCH   1  18
ATOM     18  C   UNL     1      34.751 -19.054 -22.132  0.00  0.00    -0.038 C 
BRANCH  18  19
ATOM     19  N   UNL     1      35.003 -19.840 -23.358  0.00  0.00    +0.384 N 
ATOM     20  H   UNL     1      35.088 -19.209 -24.156  0.00  0.00    -0.089 HD
ATOM     21  H   UNL     1      34.226 -20.483 -23.516  0.00  0.00    -0.089 HD
ATOM     22  H   UNL     1      35.867 -20.371 -23.252  0.00  0.00    -0.089 HD
ENDBRANCH  18  19
BRANCH  18  23
ATOM     23  C   UNL     1      35.726 -17.840 -22.131  0.00  0.00    +0.011 C 
BRANCH  23  26
ATOM     24  F   UNL     1      35.136 -15.800 -20.251  0.00  0.00    -0.205 F 
ATOM     25  F   UNL     1      33.697 -14.886 -25.449  0.00  0.00    -0.204 F 
ATOM     26  C   UNL     1      35.046 -16.543 -22.504  0.00  0.00    +0.006 C 
ATOM     27  C   UNL     1      34.787 -15.583 -21.527  0.00  0.00    +0.136 C 
ATOM     28  C   UNL     1      34.679 -16.308 -23.829  0.00  0.00    +0.028 C 
ATOM     29  C   UNL     1      34.051 -15.112 -24.177  0.00  0.00    +0.140 C 
ATOM     30  C   UNL     1      34.159 -14.386 -21.875  0.00  0.00    +0.032 C 
ATOM     31  C   UNL     1      33.791 -14.150 -23.199  0.00  0.00    +0.032 C 
ENDBRANCH  23  26
ENDBRANCH  18  23
ENDBRANCH   1  18
TORSDOF 6
ENDMDL
MODEL 3
REMARK VINA RESULT:     -11.8      4.698      9.784
REMARK  Name = 24832041
REMARK  6 active torsions:
REMARK  status: ('A' for Active; 'I' for Inactive)
REMARK    1  A    between atoms: C_1  and  C_18
REMARK    2  A    between atoms: C_4  and  C_7
REMARK    3  A    between atoms: C_10  and  C_15
REMARK    4  A    between atoms: C_18  and  N_19
REMARK    5  A    between atoms: C_18  and  C_23
REMARK    6  A    between atoms: C_23  and  C_26
REMARK                            x       y       z     vdW  Elec       q    Type
REMARK                         _______ _______ _______ _____ _____    ______ ____
ROOT
ATOM      1  C   UNL     1      34.859 -19.880 -20.914  0.00  0.00    -0.042 C 
ATOM      2  C   UNL     1      36.088 -20.145 -20.312  0.00  0.00    -0.006 C 
ATOM      3  C   UNL     1      33.687 -20.406 -20.369  0.00  0.00    -0.006 C 
ATOM      4  C   UNL     1      34.976 -21.462 -18.618  0.00  0.00    -0.000 C 
ATOM      5  C   UNL     1      36.147 -20.936 -19.164  0.00  0.00    -0.000 C 
ATOM      6  C   UNL     1      33.746 -21.197 -19.222  0.00  0.00    -0.000 C 
ENDROOT
BRANCH   4   7
ATOM      7  C   UNL     1      35.037 -22.281 -17.428  0.00  0.00    +0.000 C 
ATOM      8  C   UNL     1      36.224 -22.365 -16.700  0.00  0.00    +0.005 C 
ATOM      9  C   UNL     1      33.910 -22.987 -17.009  0.00  0.00    +0.000 C 
ATOM     10  C   UNL     1      36.283 -23.156 -15.552  0.00  0.00    +0.053 C 
ATOM     11  C   UNL     1      33.969 -23.777 -15.861  0.00  0.00    +0.000 C 
ATOM     12  C   UNL     1      35.156 -23.862 -15.132  0.00  0.00    +0.005 C 
BRANCH  10  15
ATOM     13  O   UNL     1      37.552 -22.979 -13.576  0.00  0.00    -0.270 OA
ATOM     14  N   UNL     1      38.667 -23.649 -15.464  0.00  0.00    -0.325 N 
ATOM     15  C   UNL     1      37.519 -23.242 -14.790  0.00  0.00    +0.243 C 
ATOM     16  H   UNL     1      39.523 -23.718 -14.981  0.00  0.00    +0.145 HD
ATOM     17  H   UNL     1      38.625 -23.867 -16.423  0.00  0.00    +0.145 HD
ENDBRANCH  10  15
ENDBRANCH   4   7
BRANCH   1  18
ATOM     18  C   UNL     1      34.795 -19.034 -22.140  0.00  0.00    -0.038 C 
BRANCH  18  19
ATOM     19  N   UNL     1      34.956 -19.833 -23.374  0.00  0.00    +0.384 N 
ATOM     20  H   UNL     1      35.855 -20.315 -23.353  0.00  0.00    -0.089 HD
ATOM     21  H   UNL     1      34.920 -19.216 -24.186  0.00  0.00    -0.089 HD
ATOM     22  H   UNL     1      34.204 -20.520 -23.436  0.00  0.00    -0.089 HD
ENDBRANCH  18  19
BRANCH  18  23
ATOM     23  C   UNL     1      35.839 -17.880 -22.176  0.00  0.00    +0.011 C 
BRANCH  23  26
ATOM     24  F   UNL     1      35.158 -16.547 -24.585  0.00  0.00    -0.205 F 
ATOM     25  F   UNL     1      34.052 -13.944 -19.902  0.00  0.00    -0.204 F 
ATOM     26  C   UNL     1      35.198 -16.512 -22.211  0.00  0.00    +0.006 C 
ATOM     27  C   UNL     1      34.890 -15.915 -23.433  0.00  0.00    +0.136 C 
ATOM     28  C   UNL     1      34.915 -15.847 -21.018  0.00  0.00    +0.028 C 
ATOM     29  C   UNL     1      34.324 -14.584 -21.047  0.00  0.00    +0.140 C 
ATOM     30  C   UNL     1      34.298 -14.652 -23.462  0.00  0.00    +0.032 C 
ATOM     31  C   UNL     1      34.015 -13.986 -22.270  0.00  0.00    +0.032 C 
ENDBRANCH  23  26
ENDBRANCH  18  23
ENDBRANCH   1  18
TORSDOF 6
ENDMDL
MODEL 4
REMARK VINA RESULT:     -11.4      4.561      9.496
REMARK  Name = 24832041
REMARK  6 active torsions:
REMARK  status: ('A' for Active; 'I' for Inactive)
REMARK    1  A    between atoms: C_1  and  C_18
REMARK    2  A    between atoms: C_4  and  C_7
REMARK    3  A    between atoms: C_10  and  C_15
REMARK    4  A    between atoms: C_18  and  N_19
REMARK    5  A    between atoms: C_18  and  C_23
REMARK    6  A    between atoms: C_23  and  C_26
REMARK                            x       y       z     vdW  Elec       q    Type
REMARK                         _______ _______ _______ _____ _____    ______ ____
ROOT
ATOM      1  C   UNL     1      34.499 -19.930 -21.072  0.00  0.00    -0.042 C 
ATOM      2  C   UNL     1      33.203 -20.152 -20.608  0.00  0.00    -0.006 C 
ATOM      3  C   UNL     1      35.587 -20.477 -20.392  0.00  0.00    -0.006 C 
ATOM      4  C   UNL     1      34.081 -21.470 -18.783  0.00  0.00    -0.000 C 
ATOM      5  C   UNL     1      32.993 -20.922 -19.464  0.00  0.00    -0.000 C 
ATOM      6  C   UNL     1      35.378 -21.247 -19.248  0.00  0.00    -0.000 C 
ENDROOT
BRANCH   4   7
ATOM      7  C   UNL     1      33.864 -22.268 -17.597  0.00  0.00    +0.000 C 
ATOM      8  C   UNL     1      32.566 -22.601 -17.209  0.00  0.00    +0.005 C 
ATOM      9  C   UNL     1      34.952 -22.705 -16.842  0.00  0.00    +0.000 C 
ATOM     10  C   UNL     1      32.356 -23.371 -16.065  0.00  0.00    +0.053 C 
ATOM     11  C   UNL     1      34.742 -23.475 -15.698  0.00  0.00    +0.000 C 
ATOM     12  C   UNL     1      33.445 -23.809 -15.309  0.00  0.00    +0.005 C 
BRANCH  10  15
ATOM     13  O   UNL     1      30.785 -24.653 -14.866  0.00  0.00    -0.270 OA
ATOM     14  N   UNL     1      29.957 -22.965 -16.178  0.00  0.00    -0.325 N 
ATOM     15  C   UNL     1      31.004 -23.721 -15.660  0.00  0.00    +0.243 C 
ATOM     16  H   UNL     1      29.028 -23.173 -15.928  0.00  0.00    +0.145 HD
ATOM     17  H   UNL     1      30.145 -22.221 -16.796  0.00  0.00    +0.145 HD
ENDBRANCH  10  15
ENDBRANCH   4   7
BRANCH   1  18
ATOM     18  C   UNL     1      34.723 -19.108 -22.296  0.00  0.00    -0.038 C 
BRANCH  18  19
ATOM     19  N   UNL     1      35.248 -19.916 -23.418  0.00  0.00    +0.384 N 
ATOM     20  H   UNL     1      34.941 -20.883 -23.314  0.00  0.00    -0.089 HD
ATOM     21  H   UNL     1      36.268 -19.880 -23.414  0.00  0.00    -0.089 HD
ATOM     22  H   UNL     1      34.898 -19.542 -24.300  0.00  0.00    -0.089 HD
ENDBRANCH  18  19
BRANCH  18  23
ATOM     23  C   UNL     1      35.679 -17.898 -22.087  0.00  0.00    +0.011 C 
BRANCH  23  26
ATOM     24  F   UNL     1      35.170 -15.803 -20.243  0.00  0.00    -0.205 F 
ATOM     25  F   UNL     1      33.773 -14.922 -25.458  0.00  0.00    -0.204 F 
ATOM     26  C   UNL     1      35.052 -16.581 -22.483  0.00  0.00    +0.006 C 
ATOM     27  C   UNL     1      34.830 -15.594 -21.523  0.00  0.00    +0.136 C 
ATOM     28  C   UNL     1      34.695 -16.354 -23.813  0.00  0.00    +0.028 C 
ATOM     29  C   UNL     1      34.116 -15.140 -24.182  0.00  0.00    +0.140 C 
ATOM     30  C   UNL     1      34.251 -14.380 -21.892  0.00  0.00    +0.032 C 
ATOM     31  C   UNL     1      33.894 -14.152 -23.221  0.00  0.00    +0.032 C 
ENDBRANCH  23  26
ENDBRANCH  18  23
ENDBRANCH   1  18
TORSDOF 6
ENDMDL
MODEL 5
REMARK VINA RESULT:     -11.4      4.436      9.442
REMARK  Name = 24832041
REMARK  6 active torsions:
REMARK  status: ('A' for Active; 'I' for Inactive)
REMARK    1  A    between atoms: C_1  and  C_18
REMARK    2  A    between atoms: C_4  and  C_7
REMARK    3  A    between atoms: C_10  and  C_15
REMARK    4  A    between atoms: C_18  and  N_19
REMARK    5  A    between atoms: C_18  and  C_23
REMARK    6  A    between atoms: C_23  and  C_26
REMARK                            x       y       z     vdW  Elec       q    Type
REMARK                         _______ _______ _______ _____ _____    ______ ____
ROOT
ATOM      1  C   UNL     1      34.466 -19.983 -20.947  0.00  0.00    -0.042 C 
ATOM      2  C   UNL     1      35.537 -20.583 -20.284  0.00  0.00    -0.006 C 
ATOM      3  C   UNL     1      33.165 -20.164 -20.477  0.00  0.00    -0.006 C 
ATOM      4  C   UNL     1      34.006 -21.545 -18.680  0.00  0.00    -0.000 C 
ATOM      5  C   UNL     1      35.307 -21.363 -19.151  0.00  0.00    -0.000 C 
ATOM      6  C   UNL     1      32.935 -20.945 -19.344  0.00  0.00    -0.000 C 
ENDROOT
BRANCH   4   7
ATOM      7  C   UNL     1      33.768 -22.353 -17.505  0.00  0.00    +0.000 C 
ATOM      8  C   UNL     1      32.461 -22.635 -17.106  0.00  0.00    +0.005 C 
ATOM      9  C   UNL     1      34.843 -22.850 -16.771  0.00  0.00    +0.000 C 
ATOM     10  C   UNL     1      32.231 -23.415 -15.973  0.00  0.00    +0.053 C 
ATOM     11  C   UNL     1      34.613 -23.630 -15.637  0.00  0.00    +0.000 C 
ATOM     12  C   UNL     1      33.307 -23.912 -15.238  0.00  0.00    +0.005 C 
BRANCH  10  15
ATOM     13  O   UNL     1      29.900 -23.074 -16.006  0.00  0.00    -0.270 OA
ATOM     14  N   UNL     1      30.681 -24.750 -14.650  0.00  0.00    -0.325 N 
ATOM     15  C   UNL     1      30.869 -23.712 -15.557  0.00  0.00    +0.243 C 
ATOM     16  H   UNL     1      29.773 -24.980 -14.345  0.00  0.00    +0.145 HD
ATOM     17  H   UNL     1      31.455 -25.256 -14.312  0.00  0.00    +0.145 HD
ENDBRANCH  10  15
ENDBRANCH   4   7
BRANCH   1  18
ATOM     18  C   UNL     1      34.712 -19.148 -22.157  0.00  0.00    -0.038 C 
BRANCH  18  19
ATOM     19  N   UNL     1      35.118 -19.965 -23.321  0.00  0.00    +0.384 N 
ATOM     20  H   UNL     1      35.394 -19.351 -24.088  0.00  0.00    -0.089 HD
ATOM     21  H   UNL     1      34.334 -20.548 -23.618  0.00  0.00    -0.089 HD
ATOM     22  H   UNL     1      35.905 -20.559 -23.063  0.00  0.00    -0.089 HD
ENDBRANCH  18  19
BRANCH  18  23
ATOM     23  C   UNL     1      35.778 -18.032 -21.959  0.00  0.00    +0.011 C 
BRANCH  23  26
ATOM     24  F   UNL     1      35.187 -16.820 -24.454  0.00  0.00    -0.205 F 
ATOM     25  F   UNL     1      34.142 -13.888 -19.957  0.00  0.00    -0.204 F 
ATOM     26  C   UNL     1      35.199 -16.641 -22.087  0.00  0.00    +0.006 C 
ATOM     27  C   UNL     1      34.933 -16.108 -23.348  0.00  0.00    +0.136 C 
ATOM     28  C   UNL     1      34.932 -15.892 -20.941  0.00  0.00    +0.028 C 
ATOM     29  C   UNL     1      34.399 -14.608 -21.056  0.00  0.00    +0.140 C 
ATOM     30  C   UNL     1      34.400 -14.824 -23.462  0.00  0.00    +0.032 C 
ATOM     31  C   UNL     1      34.132 -14.074 -22.318  0.00  0.00    +0.032 C 
ENDBRANCH  23  26
ENDBRANCH  18  23
ENDBRANCH   1  18
TORSDOF 6
ENDMDL
MODEL 6
REMARK VINA RESULT:     -11.3      0.715      1.909
REMARK  Name = 24832041
REMARK  6 active torsions:
REMARK  status: ('A' for Active; 'I' for Inactive)
REMARK    1  A    between atoms: C_1  and  C_18
REMARK    2  A    between atoms: C_4  and  C_7
REMARK    3  A    between atoms: C_10  and  C_15
REMARK    4  A    between atoms: C_18  and  N_19
REMARK    5  A    between atoms: C_18  and  C_23
REMARK    6  A    between atoms: C_23  and  C_26
REMARK                            x       y       z     vdW  Elec       q    Type
REMARK                         _______ _______ _______ _____ _____    ______ ____
ROOT
ATOM      1  C   UNL     1      35.335 -16.876 -21.548  0.00  0.00    -0.042 C 
ATOM      2  C   UNL     1      35.201 -16.507 -22.886  0.00  0.00    -0.006 C 
ATOM      3  C   UNL     1      34.922 -16.004 -20.540  0.00  0.00    -0.006 C 
ATOM      4  C   UNL     1      34.242 -14.395 -22.209  0.00  0.00    -0.000 C 
ATOM      5  C   UNL     1      34.655 -15.267 -23.217  0.00  0.00    -0.000 C 
ATOM      6  C   UNL     1      34.377 -14.764 -20.870  0.00  0.00    -0.000 C 
ENDROOT
BRANCH   4   7
ATOM      7  C   UNL     1      33.676 -13.110 -22.553  0.00  0.00    +0.000 C 
ATOM      8  C   UNL     1      32.751 -12.505 -21.700  0.00  0.00    +0.005 C 
ATOM      9  C   UNL     1      34.053 -12.475 -23.735  0.00  0.00    +0.000 C 
ATOM     10  C   UNL     1      32.204 -11.265 -22.031  0.00  0.00    +0.053 C 
ATOM     11  C   UNL     1      33.506 -11.235 -24.066  0.00  0.00    +0.000 C 
ATOM     12  C   UNL     1      32.581 -10.630 -23.215  0.00  0.00    +0.005 C 
BRANCH  10  15
ATOM     13  O   UNL     1      31.371  -9.450 -20.783  0.00  0.00    -0.270 OA
ATOM     14  N   UNL     1      30.155 -11.393 -20.720  0.00  0.00    -0.325 N 
ATOM     15  C   UNL     1      31.242 -10.633 -21.143  0.00  0.00    +0.243 C 
ATOM     16  H   UNL     1      29.483 -10.999 -20.117  0.00  0.00    +0.145 HD
ATOM     17  H   UNL     1      30.057 -12.324 -21.023  0.00  0.00    +0.145 HD
ENDBRANCH  10  15
ENDBRANCH   4   7
BRANCH   1  18
ATOM     18  C   UNL     1      35.918 -18.202 -21.194  0.00  0.00    -0.038 C 
BRANCH  18  19
ATOM     19  N   UNL     1      37.254 -18.399 -21.796  0.00  0.00    +0.384 N 
ATOM     20  H   UNL     1      37.888 -18.788 -21.098  0.00  0.00    -0.089 HD
ATOM     21  H   UNL     1      37.615 -17.502 -22.123  0.00  0.00    -0.089 HD
ATOM     22  H   UNL     1      37.180 -19.043 -22.583  0.00  0.00    -0.089 HD
ENDBRANCH  18  19
BRANCH  18  23
ATOM     23  C   UNL     1      35.029 -19.417 -21.588  0.00  0.00    +0.011 C 
BRANCH  23  26
ATOM     24  F   UNL     1      37.041 -20.938 -20.291  0.00  0.00    -0.205 F 
ATOM     25  F   UNL     1      31.933 -21.444 -18.400  0.00  0.00    -0.204 F 
ATOM     26  C   UNL     1      34.747 -20.338 -20.423  0.00  0.00    +0.006 C 
ATOM     27  C   UNL     1      35.787 -21.057 -19.833  0.00  0.00    +0.136 C 
ATOM     28  C   UNL     1      33.446 -20.468 -19.939  0.00  0.00    +0.028 C 
ATOM     29  C   UNL     1      33.183 -21.318 -18.864  0.00  0.00    +0.140 C 
ATOM     30  C   UNL     1      35.524 -21.907 -18.758  0.00  0.00    +0.032 C 
ATOM     31  C   UNL     1      34.223 -22.037 -18.273  0.00  0.00    +0.032 C 
ENDBRANCH  23  26
ENDBRANCH  18  23
ENDBRANCH   1  18
TORSDOF 6
ENDMDL
MODEL 7
REMARK VINA RESULT:     -11.3      3.658      6.670
REMARK  Name = 24832041
REMARK  6 active torsions:
REMARK  status: ('A' for Active; 'I' for Inactive)
REMARK    1  A    between atoms: C_1  and  C_18
REMARK    2  A    between atoms: C_4  and  C_7
REMARK    3  A    between atoms: C_10  and  C_15
REMARK    4  A    between atoms: C_18  and  N_19
REMARK    5  A    between atoms: C_18  and  C_23
REMARK    6  A    between atoms: C_23  and  C_26
REMARK                            x       y       z     vdW  Elec       q    Type
REMARK                         _______ _______ _______ _____ _____    ______ ____
ROOT
ATOM      1  C   UNL     1      34.541 -22.161 -18.191  0.00  0.00    -0.042 C 
ATOM      2  C   UNL     1      33.378 -21.701 -18.808  0.00  0.00    -0.006 C 
ATOM      3  C   UNL     1      35.786 -21.694 -18.613  0.00  0.00    -0.006 C 
ATOM      4  C   UNL     1      34.703 -20.307 -20.270  0.00  0.00    -0.000 C 
ATOM      5  C   UNL     1      33.458 -20.774 -19.847  0.00  0.00    -0.000 C 
ATOM      6  C   UNL     1      35.867 -20.767 -19.652  0.00  0.00    -0.000 C 
ENDROOT
BRANCH   4   7
ATOM      7  C   UNL     1      34.787 -19.345 -21.346  0.00  0.00    +0.000 C 
ATOM      8  C   UNL     1      34.843 -17.981 -21.060  0.00  0.00    +0.005 C 
ATOM      9  C   UNL     1      34.811 -19.782 -22.670  0.00  0.00    +0.000 C 
ATOM     10  C   UNL     1      34.923 -17.053 -22.099  0.00  0.00    +0.053 C 
ATOM     11  C   UNL     1      34.891 -18.854 -23.709  0.00  0.00    +0.000 C 
ATOM     12  C   UNL     1      34.947 -17.490 -23.424  0.00  0.00    +0.005 C 
BRANCH  10  15
ATOM     13  O   UNL     1      35.190 -14.790 -22.695  0.00  0.00    -0.270 OA
ATOM     14  N   UNL     1      34.785 -15.236 -20.482  0.00  0.00    -0.325 N 
ATOM     15  C   UNL     1      34.984 -15.631 -21.802  0.00  0.00    +0.243 C 
ATOM     16  H   UNL     1      34.820 -14.281 -20.243  0.00  0.00    +0.145 HD
ATOM     17  H   UNL     1      34.610 -15.911 -19.787  0.00  0.00    +0.145 HD
ENDBRANCH  10  15
ENDBRANCH   4   7
BRANCH   1  18
ATOM     18  C   UNL     1      34.455 -23.151 -17.079  0.00  0.00    -0.038 C 
BRANCH  18  19
ATOM     19  N   UNL     1      33.065 -23.594 -16.837  0.00  0.00    +0.384 N 
ATOM     20  H   UNL     1      32.705 -23.140 -15.997  0.00  0.00    -0.089 HD
ATOM     21  H   UNL     1      33.048 -24.606 -16.709  0.00  0.00    -0.089 HD
ATOM     22  H   UNL     1      32.483 -23.342 -17.635  0.00  0.00    -0.089 HD
ENDBRANCH  18  19
BRANCH  18  23
ATOM     23  C   UNL     1      35.041 -22.648 -15.728  0.00  0.00    +0.011 C 
BRANCH  23  26
ATOM     24  F   UNL     1      37.761 -21.848 -15.828  0.00  0.00    -0.205 F 
ATOM     25  F   UNL     1      36.693 -26.769 -13.692  0.00  0.00    -0.204 F 
ATOM     26  C   UNL     1      36.177 -23.510 -15.225  0.00  0.00    +0.006 C 
ATOM     27  C   UNL     1      37.491 -23.052 -15.305  0.00  0.00    +0.136 C 
ATOM     28  C   UNL     1      35.906 -24.765 -14.680  0.00  0.00    +0.028 C 
ATOM     29  C   UNL     1      36.951 -25.563 -14.215  0.00  0.00    +0.140 C 
ATOM     30  C   UNL     1      38.537 -23.851 -14.840  0.00  0.00    +0.032 C 
ATOM     31  C   UNL     1      38.267 -25.106 -14.295  0.00  0.00    +0.032 C 
ENDBRANCH  23  26
ENDBRANCH  18  23
ENDBRANCH   1  18
TORSDOF 6
ENDMDL
MODEL 8
REMARK VINA RESULT:     -11.1      4.594      9.658
REMARK  Name = 24832041
REMARK  6 active torsions:
REMARK  status: ('A' for Active; 'I' for Inactive)
REMARK    1  A    between atoms: C_1  and  C_18
REMARK    2  A    between atoms: C_4  and  C_7
REMARK    3  A    between atoms: C_10  and  C_15
REMARK    4  A    between atoms: C_18  and  N_19
REMARK    5  A    between atoms: C_18  and  C_23
REMARK    6  A    between atoms: C_23  and  C_26
REMARK                            x       y       z     vdW  Elec       q    Type
REMARK                         _______ _______ _______ _____ _____    ______ ____
ROOT
ATOM      1  C   UNL     1      35.148 -19.947 -20.846  0.00  0.00    -0.042 C 
ATOM      2  C   UNL     1      34.093 -20.647 -20.263  0.00  0.00    -0.006 C 
ATOM      3  C   UNL     1      36.407 -19.956 -20.245  0.00  0.00    -0.006 C 
ATOM      4  C   UNL     1      35.555 -21.367 -18.478  0.00  0.00    -0.000 C 
ATOM      5  C   UNL     1      34.296 -21.358 -19.080  0.00  0.00    -0.000 C 
ATOM      6  C   UNL     1      36.611 -20.666 -19.062  0.00  0.00    -0.000 C 
ENDROOT
BRANCH   4   7
ATOM      7  C   UNL     1      35.765 -22.104 -17.253  0.00  0.00    +0.000 C 
ATOM      8  C   UNL     1      34.687 -22.719 -16.614  0.00  0.00    +0.005 C 
ATOM      9  C   UNL     1      37.045 -22.201 -16.708  0.00  0.00    +0.000 C 
ATOM     10  C   UNL     1      34.890 -23.430 -15.431  0.00  0.00    +0.053 C 
ATOM     11  C   UNL     1      37.248 -22.912 -15.524  0.00  0.00    +0.000 C 
ATOM     12  C   UNL     1      36.170 -23.526 -14.886  0.00  0.00    +0.005 C 
BRANCH  10  15
ATOM     13  O   UNL     1      32.592 -23.812 -15.080  0.00  0.00    -0.270 OA
ATOM     14  N   UNL     1      34.051 -25.007 -13.775  0.00  0.00    -0.325 N 
ATOM     15  C   UNL     1      33.767 -24.072 -14.767  0.00  0.00    +0.243 C 
ATOM     16  H   UNL     1      33.316 -25.462 -13.303  0.00  0.00    +0.145 HD
ATOM     17  H   UNL     1      34.986 -25.214 -13.546  0.00  0.00    +0.145 HD
ENDBRANCH  10  15
ENDBRANCH   4   7
BRANCH   1  18
ATOM     18  C   UNL     1      34.932 -19.188 -22.111  0.00  0.00    -0.038 C 
BRANCH  18  19
ATOM     19  N   UNL     1      35.010 -20.062 -23.301  0.00  0.00    +0.384 N 
ATOM     20  H   UNL     1      35.819 -20.678 -23.220  0.00  0.00    -0.089 HD
ATOM     21  H   UNL     1      35.103 -19.487 -24.139  0.00  0.00    -0.089 HD
ATOM     22  H   UNL     1      34.162 -20.624 -23.367  0.00  0.00    -0.089 HD
ENDBRANCH  18  19
BRANCH  18  23
ATOM     23  C   UNL     1      35.918 -18.002 -22.321  0.00  0.00    +0.011 C 
BRANCH  23  26
ATOM     24  F   UNL     1      35.048 -16.620 -24.640  0.00  0.00    -0.205 F 
ATOM     25  F   UNL     1      34.147 -14.200 -19.818  0.00  0.00    -0.204 F 
ATOM     26  C   UNL     1      35.232 -16.656 -22.274  0.00  0.00    +0.006 C 
ATOM     27  C   UNL     1      34.830 -16.033 -23.455  0.00  0.00    +0.136 C 
ATOM     28  C   UNL     1      35.001 -16.037 -21.045  0.00  0.00    +0.028 C 
ATOM     29  C   UNL     1      34.369 -14.795 -20.997  0.00  0.00    +0.140 C 
ATOM     30  C   UNL     1      34.198 -14.790 -23.407  0.00  0.00    +0.032 C 
ATOM     31  C   UNL     1      33.966 -14.171 -22.180  0.00  0.00    +0.032 C 
ENDBRANCH  23  26
ENDBRANCH  18  23
ENDBRANCH   1  18
TORSDOF 6
ENDMDL
MODEL 9
REMARK VINA RESULT:     -10.8      4.131      8.774
REMARK  Name = 24832041
REMARK  6 active torsions:
REMARK  status: ('A' for Active; 'I' for Inactive)
REMARK    1  A    between atoms: C_1  and  C_18
REMARK    2  A    between atoms: C_4  and  C_7
REMARK    3  A    between atoms: C_10  and  C_15
REMARK    4  A    between atoms: C_18  and  N_19
REMARK    5  A    between atoms: C_18  and  C_23
REMARK    6  A    between atoms: C_23  and  C_26
REMARK                            x       y       z     vdW  Elec       q    Type
REMARK                         _______ _______ _______ _____ _____    ______ ____
ROOT
ATOM      1  C   UNL     1      33.563 -12.617 -23.570  0.00  0.00    -0.042 C 
ATOM      2  C   UNL     1      34.300 -13.071 -22.477  0.00  0.00    -0.006 C 
ATOM      3  C   UNL     1      33.179 -13.510 -24.571  0.00  0.00    -0.006 C 
ATOM      4  C   UNL     1      34.271 -15.310 -23.384  0.00  0.00    -0.000 C 
ATOM      5  C   UNL     1      34.655 -14.416 -22.383  0.00  0.00    -0.000 C 
ATOM      6  C   UNL     1      33.534 -14.856 -24.478  0.00  0.00    -0.000 C 
ENDROOT
BRANCH   4   7
ATOM      7  C   UNL     1      34.638 -16.705 -23.287  0.00  0.00    +0.000 C 
ATOM      8  C   UNL     1      35.442 -17.143 -22.234  0.00  0.00    +0.005 C 
ATOM      9  C   UNL     1      34.189 -17.613 -24.245  0.00  0.00    +0.000 C 
ATOM     10  C   UNL     1      35.796 -18.489 -22.140  0.00  0.00    +0.053 C 
ATOM     11  C   UNL     1      34.543 -18.959 -24.151  0.00  0.00    +0.000 C 
ATOM     12  C   UNL     1      35.346 -19.397 -23.099  0.00  0.00    +0.005 C 
BRANCH  10  15
ATOM     13  O   UNL     1      37.851 -18.699 -21.008  0.00  0.00    -0.270 OA
ATOM     14  N   UNL     1      36.020 -19.661 -20.017  0.00  0.00    -0.325 N 
ATOM     15  C   UNL     1      36.633 -18.948 -21.042  0.00  0.00    +0.243 C 
ATOM     16  H   UNL     1      36.554 -19.988 -19.257  0.00  0.00    +0.145 HD
ATOM     17  H   UNL     1      35.053 -19.840 -20.050  0.00  0.00    +0.145 HD
ENDBRANCH  10  15
ENDBRANCH   4   7
BRANCH   1  18
ATOM     18  C   UNL     1      33.183 -11.179 -23.670  0.00  0.00    -0.038 C 
BRANCH  18  19
ATOM     19  N   UNL     1      34.197 -10.294 -23.057  0.00  0.00    +0.384 N 
ATOM     20  H   UNL     1      34.097 -10.314 -22.041  0.00  0.00    -0.089 HD
ATOM     21  H   UNL     1      34.063  -9.340 -23.393  0.00  0.00    -0.089 HD
ATOM     22  H   UNL     1      35.130 -10.616 -23.312  0.00  0.00    -0.089 HD
ENDBRANCH  18  19
BRANCH  18  23
ATOM     23  C   UNL     1      31.802 -10.837 -23.038  0.00  0.00    +0.011 C 
BRANCH  23  26
ATOM     24  F   UNL     1      31.530 -12.714 -20.930  0.00  0.00    -0.205 F 
ATOM     25  F   UNL     1      32.466  -7.512 -19.523  0.00  0.00    -0.204 F 
ATOM     26  C   UNL     1      31.904 -10.461 -21.578  0.00  0.00    +0.006 C 
ATOM     27  C   UNL     1      31.760 -11.437 -20.592  0.00  0.00    +0.136 C 
ATOM     28  C   UNL     1      32.143  -9.135 -21.218  0.00  0.00    +0.028 C 
ATOM     29  C   UNL     1      32.237  -8.785 -19.870  0.00  0.00    +0.140 C 
ATOM     30  C   UNL     1      31.853 -11.087 -19.245  0.00  0.00    +0.032 C 
ATOM     31  C   UNL     1      32.093  -9.761 -18.884  0.00  0.00    +0.032 C 
ENDBRANCH  23  26
ENDBRANCH  18  23
ENDBRANCH   1  18
TORSDOF 6
ENDMDL
