MODEL 1
REMARK VINA RESULT:     -12.1      0.000      0.000
REMARK  Name = 11634458
REMARK  5 active torsions:
REMARK  status: ('A' for Active; 'I' for Inactive)
REMARK    1  A    between atoms: N_3  and  C_11
REMARK    2  A    between atoms: C_4  and  C_19
REMARK    3  A    between atoms: C_5  and  O_35
REMARK    4  A    between atoms: N_18  and  C_22
REMARK    5  A    between atoms: C_25  and  N_29
REMARK                            x       y       z     vdW  Elec       q    Type
REMARK                         _______ _______ _______ _____ _____    ______ ____
ROOT
ATOM      1  O   UNL     1      32.009 -23.599 -12.368  0.00  0.00    -0.252 OA
ATOM      2  N   UNL     1      33.928 -24.137 -13.510  0.00  0.00    -0.255 N 
ATOM      3  N   UNL     1      31.949 -23.710 -14.696  0.00  0.00    -0.268 N 
ATOM      4  C   UNL     1      34.696 -24.558 -14.680  0.00  0.00    +0.156 C 
ATOM      5  C   UNL     1      36.141 -24.536 -12.754  0.00  0.00    +0.137 C 
ATOM      6  C   UNL     1      35.955 -25.212 -14.111  0.00  0.00    +0.061 C 
ATOM      7  C   UNL     1      34.719 -24.263 -12.288  0.00  0.00    +0.125 C 
ATOM      8  C   UNL     1      32.568 -23.799 -13.449  0.00  0.00    +0.308 C 
ATOM      9  H   UNL     1      32.521 -23.895 -15.476  0.00  0.00    +0.156 HD
ENDROOT
BRANCH   3  11
ATOM     10 CL   UNL     1      26.305 -22.349 -15.868  0.00  0.00    -0.082 Cl
ATOM     11  C   UNL     1      30.599 -23.385 -14.977  0.00  0.00    +0.052 C 
ATOM     12  C   UNL     1      29.996 -22.312 -14.325  0.00  0.00    +0.016 C 
ATOM     13  C   UNL     1      29.883 -24.139 -15.902  0.00  0.00    +0.016 C 
ATOM     14  C   UNL     1      28.666 -21.991 -14.601  0.00  0.00    +0.013 C 
ATOM     15  C   UNL     1      28.554 -23.819 -16.177  0.00  0.00    +0.013 C 
ATOM     16  C   UNL     1      27.945 -22.744 -15.527  0.00  0.00    +0.058 C 
ENDBRANCH   3  11
BRANCH   4  19
ATOM     17  O   UNL     1      35.645 -22.403 -14.983  0.00  0.00    -0.273 OA
ATOM     18  N   UNL     1      34.580 -23.462 -16.794  0.00  0.00    -0.281 N 
ATOM     19  C   UNL     1      35.038 -23.342 -15.489  0.00  0.00    +0.244 C 
ATOM     20  H   UNL     1      34.107 -24.298 -17.014  0.00  0.00    +0.155 HD
BRANCH  18  22
ATOM     21  F   UNL     1      32.351 -22.394 -18.060  0.00  0.00    -0.203 F 
ATOM     22  C   UNL     1      34.712 -22.524 -17.844  0.00  0.00    +0.078 C 
ATOM     23  C   UNL     1      33.577 -22.014 -18.449  0.00  0.00    +0.155 C 
ATOM     24  C   UNL     1      35.981 -22.136 -18.245  0.00  0.00    +0.018 C 
ATOM     25  C   UNL     1      34.981 -20.689 -19.902  0.00  0.00    +0.061 C 
ATOM     26  C   UNL     1      33.711 -21.090 -19.485  0.00  0.00    +0.046 C 
ATOM     27  C   UNL     1      36.115 -21.212 -19.282  0.00  0.00    +0.017 C 
BRANCH  25  29
ATOM     28  O   UNL     1      36.948 -18.571 -20.009  0.00  0.00    -0.269 OA
ATOM     29  N   UNL     1      35.120 -19.728 -20.979  0.00  0.00    -0.233 N 
ATOM     30  C   UNL     1      36.155 -18.759 -20.933  0.00  0.00    +0.257 C 
ATOM     31  C   UNL     1      34.229 -19.734 -22.054  0.00  0.00    +0.072 C 
ATOM     32  C   UNL     1      36.258 -17.838 -22.106  0.00  0.00    +0.059 C 
ATOM     33  C   UNL     1      34.322 -18.877 -23.076  0.00  0.00    +0.017 C 
ATOM     34  C   UNL     1      35.373 -17.906 -23.103  0.00  0.00    +0.006 C 
ENDBRANCH  25  29
ENDBRANCH  18  22
ENDBRANCH   4  19
BRANCH   5  35
ATOM     35  O   UNL     1      36.850 -23.314 -12.921  0.00  0.00    -0.352 OA
ATOM     36  C   UNL     1      37.347 -22.827 -11.682  0.00  0.00    +0.174 C 
ENDBRANCH   5  35
TORSDOF 5
ENDMDL
MODEL 2
REMARK VINA RESULT:     -11.5      1.829      2.439
REMARK  Name = 11634458
REMARK  5 active torsions:
REMARK  status: ('A' for Active; 'I' for Inactive)
REMARK    1  A    between atoms: N_3  and  C_11
REMARK    2  A    between atoms: C_4  and  C_19
REMARK    3  A    between atoms: C_5  and  O_35
REMARK    4  A    between atoms: N_18  and  C_22
REMARK    5  A    between atoms: C_25  and  N_29
REMARK                            x       y       z     vdW  Elec       q    Type
REMARK                         _______ _______ _______ _____ _____    ______ ____
ROOT
ATOM      1  O   UNL     1      33.181 -23.295 -11.955  0.00  0.00    -0.252 OA
ATOM      2  N   UNL     1      35.050 -24.474 -12.582  0.00  0.00    -0.255 N 
ATOM      3  N   UNL     1      33.149 -24.488 -13.957  0.00  0.00    -0.268 N 
ATOM      4  C   UNL     1      35.788 -25.463 -13.366  0.00  0.00    +0.156 C 
ATOM      5  C   UNL     1      37.194 -24.659 -11.584  0.00  0.00    +0.137 C 
ATOM      6  C   UNL     1      36.959 -25.877 -12.475  0.00  0.00    +0.061 C 
ATOM      7  C   UNL     1      35.803 -24.075 -11.395  0.00  0.00    +0.125 C 
ATOM      8  C   UNL     1      33.733 -24.029 -12.776  0.00  0.00    +0.308 C 
ATOM      9  H   UNL     1      33.710 -25.069 -14.520  0.00  0.00    +0.156 HD
ENDROOT
BRANCH   3  11
ATOM     10 CL   UNL     1      27.705 -23.357 -15.998  0.00  0.00    -0.082 Cl
ATOM     11  C   UNL     1      31.847 -24.218 -14.445  0.00  0.00    +0.052 C 
ATOM     12  C   UNL     1      31.612 -23.065 -15.190  0.00  0.00    +0.016 C 
ATOM     13  C   UNL     1      30.808 -25.106 -14.177  0.00  0.00    +0.016 C 
ATOM     14  C   UNL     1      30.329 -22.798 -15.671  0.00  0.00    +0.013 C 
ATOM     15  C   UNL     1      29.527 -24.839 -14.658  0.00  0.00    +0.013 C 
ATOM     16  C   UNL     1      29.287 -23.685 -15.405  0.00  0.00    +0.058 C 
ENDBRANCH   3  11
BRANCH   4  19
ATOM     17  O   UNL     1      37.310 -25.179 -15.166  0.00  0.00    -0.273 OA
ATOM     18  N   UNL     1      35.411 -23.797 -15.027  0.00  0.00    -0.281 N 
ATOM     19  C   UNL     1      36.272 -24.809 -14.625  0.00  0.00    +0.244 C 
ATOM     20  H   UNL     1      34.623 -23.643 -14.457  0.00  0.00    +0.155 HD
BRANCH  18  22
ATOM     21  F   UNL     1      37.552 -22.050 -15.301  0.00  0.00    -0.203 F 
ATOM     22  C   UNL     1      35.535 -22.960 -16.162  0.00  0.00    +0.078 C 
ATOM     23  C   UNL     1      36.617 -22.103 -16.260  0.00  0.00    +0.155 C 
ATOM     24  C   UNL     1      34.565 -23.016 -17.150  0.00  0.00    +0.018 C 
ATOM     25  C   UNL     1      35.768 -21.323 -18.384  0.00  0.00    +0.061 C 
ATOM     26  C   UNL     1      36.735 -21.278 -17.379  0.00  0.00    +0.046 C 
ATOM     27  C   UNL     1      34.683 -22.191 -18.269  0.00  0.00    +0.017 C 
BRANCH  25  29
ATOM     28  O   UNL     1      33.641 -20.719 -20.249  0.00  0.00    -0.269 OA
ATOM     29  N   UNL     1      35.891 -20.465 -19.547  0.00  0.00    -0.233 N 
ATOM     30  C   UNL     1      34.759 -20.215 -20.364  0.00  0.00    +0.257 C 
ATOM     31  C   UNL     1      37.123 -19.899 -19.883  0.00  0.00    +0.072 C 
ATOM     32  C   UNL     1      34.961 -19.282 -21.515  0.00  0.00    +0.059 C 
ATOM     33  C   UNL     1      37.285 -19.094 -20.938  0.00  0.00    +0.017 C 
ATOM     34  C   UNL     1      36.167 -18.772 -21.772  0.00  0.00    +0.006 C 
ENDBRANCH  25  29
ENDBRANCH  18  22
ENDBRANCH   4  19
BRANCH   5  35
ATOM     35  O   UNL     1      38.034 -23.727 -12.257  0.00  0.00    -0.352 OA
ATOM     36  C   UNL     1      37.922 -22.426 -11.698  0.00  0.00    +0.174 C 
ENDBRANCH   5  35
TORSDOF 5
ENDMDL
MODEL 3
REMARK VINA RESULT:     -10.9      1.726      2.291
REMARK  Name = 11634458
REMARK  5 active torsions:
REMARK  status: ('A' for Active; 'I' for Inactive)
REMARK    1  A    between atoms: N_3  and  C_11
REMARK    2  A    between atoms: C_4  and  C_19
REMARK    3  A    between atoms: C_5  and  O_35
REMARK    4  A    between atoms: N_18  and  C_22
REMARK    5  A    between atoms: C_25  and  N_29
REMARK                            x       y       z     vdW  Elec       q    Type
REMARK                         _______ _______ _______ _____ _____    ______ ____
ROOT
ATOM      1  O   UNL     1      32.181 -22.115 -13.944  0.00  0.00    -0.252 OA
ATOM      2  N   UNL     1      33.603 -23.439 -15.170  0.00  0.00    -0.255 N 
ATOM      3  N   UNL     1      31.319 -23.377 -15.705  0.00  0.00    -0.268 N 
ATOM      4  C   UNL     1      33.932 -24.504 -16.116  0.00  0.00    +0.156 C 
ATOM      5  C   UNL     1      35.954 -23.730 -15.064  0.00  0.00    +0.137 C 
ATOM      6  C   UNL     1      35.336 -24.961 -15.721  0.00  0.00    +0.061 C 
ATOM      7  C   UNL     1      34.774 -23.047 -14.389  0.00  0.00    +0.125 C 
ATOM      8  C   UNL     1      32.336 -22.915 -14.869  0.00  0.00    +0.308 C 
ATOM      9  H   UNL     1      31.590 -24.015 -16.404  0.00  0.00    +0.156 HD
ENDROOT
BRANCH   3  11
ATOM     10 CL   UNL     1      25.569 -21.962 -15.561  0.00  0.00    -0.082 Cl
ATOM     11  C   UNL     1      29.944 -23.039 -15.670  0.00  0.00    +0.052 C 
ATOM     12  C   UNL     1      29.162 -23.200 -16.811  0.00  0.00    +0.016 C 
ATOM     13  C   UNL     1      29.381 -22.546 -14.496  0.00  0.00    +0.016 C 
ATOM     14  C   UNL     1      27.807 -22.867 -16.778  0.00  0.00    +0.013 C 
ATOM     15  C   UNL     1      28.027 -22.213 -14.462  0.00  0.00    +0.013 C 
ATOM     16  C   UNL     1      27.240 -22.373 -15.603  0.00  0.00    +0.058 C 
ENDBRANCH   3  11
BRANCH   4  19
ATOM     17  O   UNL     1      33.665 -24.638 -18.471  0.00  0.00    -0.273 OA
ATOM     18  N   UNL     1      34.230 -22.577 -17.487  0.00  0.00    -0.281 N 
ATOM     19  C   UNL     1      33.921 -23.930 -17.502  0.00  0.00    +0.244 C 
ATOM     20  H   UNL     1      34.410 -22.181 -16.603  0.00  0.00    +0.155 HD
BRANCH  18  22
ATOM     21  F   UNL     1      36.684 -21.897 -18.594  0.00  0.00    -0.203 F 
ATOM     22  C   UNL     1      34.317 -21.700 -18.594  0.00  0.00    +0.078 C 
ATOM     23  C   UNL     1      35.559 -21.386 -19.117  0.00  0.00    +0.155 C 
ATOM     24  C   UNL     1      33.153 -21.173 -19.130  0.00  0.00    +0.018 C 
ATOM     25  C   UNL     1      34.480 -19.981 -20.759  0.00  0.00    +0.061 C 
ATOM     26  C   UNL     1      35.642 -20.521 -20.208  0.00  0.00    +0.046 C 
ATOM     27  C   UNL     1      33.236 -20.308 -20.220  0.00  0.00    +0.017 C 
BRANCH  25  29
ATOM     28  O   UNL     1      35.377 -17.234 -20.649  0.00  0.00    -0.269 OA
ATOM     29  N   UNL     1      34.566 -19.081 -21.894  0.00  0.00    -0.233 N 
ATOM     30  C   UNL     1      35.062 -17.764 -21.714  0.00  0.00    +0.257 C 
ATOM     31  C   UNL     1      34.142 -19.492 -23.159  0.00  0.00    +0.072 C 
ATOM     32  C   UNL     1      35.163 -16.918 -22.943  0.00  0.00    +0.059 C 
ATOM     33  C   UNL     1      34.211 -18.704 -24.236  0.00  0.00    +0.017 C 
ATOM     34  C   UNL     1      34.745 -17.381 -24.123  0.00  0.00    +0.006 C 
ENDBRANCH  25  29
ENDBRANCH  18  22
ENDBRANCH   4  19
BRANCH   5  35
ATOM     35  O   UNL     1      36.511 -22.882 -16.062  0.00  0.00    -0.352 OA
ATOM     36  C   UNL     1      37.119 -21.732 -15.490  0.00  0.00    +0.174 C 
ENDBRANCH   5  35
TORSDOF 5
ENDMDL
MODEL 4
REMARK VINA RESULT:     -10.3     10.798     16.367
REMARK  Name = 11634458
REMARK  5 active torsions:
REMARK  status: ('A' for Active; 'I' for Inactive)
REMARK    1  A    between atoms: N_3  and  C_11
REMARK    2  A    between atoms: C_4  and  C_19
REMARK    3  A    between atoms: C_5  and  O_35
REMARK    4  A    between atoms: N_18  and  C_22
REMARK    5  A    between atoms: C_25  and  N_29
REMARK                            x       y       z     vdW  Elec       q    Type
REMARK                         _______ _______ _______ _____ _____    ______ ____
ROOT
ATOM      1  O   UNL     1      33.676  -4.529 -23.596  0.00  0.00    -0.252 OA
ATOM      2  N   UNL     1      32.479  -6.315 -22.787  0.00  0.00    -0.255 N 
ATOM      3  N   UNL     1      33.283  -6.356 -24.991  0.00  0.00    -0.268 N 
ATOM      4  C   UNL     1      31.713  -7.554 -22.903  0.00  0.00    +0.156 C 
ATOM      5  C   UNL     1      31.581  -6.754 -20.636  0.00  0.00    +0.137 C 
ATOM      6  C   UNL     1      30.813  -7.578 -21.666  0.00  0.00    +0.061 C 
ATOM      7  C   UNL     1      32.298  -5.705 -21.472  0.00  0.00    +0.125 C 
ATOM      8  C   UNL     1      33.189  -5.644 -23.794  0.00  0.00    +0.308 C 
ATOM      9  H   UNL     1      32.846  -7.238 -25.005  0.00  0.00    +0.156 HD
ENDROOT
BRANCH   3  11
ATOM     10 CL   UNL     1      35.999  -4.718 -29.993  0.00  0.00    -0.082 Cl
ATOM     11  C   UNL     1      33.933  -5.964 -26.187  0.00  0.00    +0.052 C 
ATOM     12  C   UNL     1      33.178  -5.650 -27.314  0.00  0.00    +0.016 C 
ATOM     13  C   UNL     1      35.323  -5.896 -26.230  0.00  0.00    +0.016 C 
ATOM     14  C   UNL     1      33.818  -5.264 -28.493  0.00  0.00    +0.013 C 
ATOM     15  C   UNL     1      35.962  -5.510 -27.408  0.00  0.00    +0.013 C 
ATOM     16  C   UNL     1      35.209  -5.194 -28.539  0.00  0.00    +0.058 C 
ENDBRANCH   3  11
BRANCH   4  19
ATOM     17  O   UNL     1      33.881  -8.521 -22.877  0.00  0.00    -0.273 OA
ATOM     18  N   UNL     1      31.991  -9.921 -22.917  0.00  0.00    -0.281 N 
ATOM     19  C   UNL     1      32.669  -8.710 -22.896  0.00  0.00    +0.244 C 
ATOM     20  H   UNL     1      31.008  -9.870 -22.934  0.00  0.00    +0.155 HD
BRANCH  18  22
ATOM     21  F   UNL     1      31.345 -11.768 -20.947  0.00  0.00    -0.203 F 
ATOM     22  C   UNL     1      32.549 -11.222 -22.919  0.00  0.00    +0.078 C 
ATOM     23  C   UNL     1      32.201 -12.113 -21.920  0.00  0.00    +0.155 C 
ATOM     24  C   UNL     1      33.435 -11.573 -23.925  0.00  0.00    +0.018 C 
ATOM     25  C   UNL     1      33.648 -13.764 -22.929  0.00  0.00    +0.061 C 
ATOM     26  C   UNL     1      32.754 -13.393 -21.924  0.00  0.00    +0.046 C 
ATOM     27  C   UNL     1      33.988 -12.854 -23.929  0.00  0.00    +0.017 C 
BRANCH  25  29
ATOM     28  O   UNL     1      33.684 -15.563 -25.194  0.00  0.00    -0.269 OA
ATOM     29  N   UNL     1      34.223 -15.096 -22.933  0.00  0.00    -0.233 N 
ATOM     30  C   UNL     1      34.213 -15.866 -24.124  0.00  0.00    +0.257 C 
ATOM     31  C   UNL     1      34.768 -15.636 -21.766  0.00  0.00    +0.072 C 
ATOM     32  C   UNL     1      34.869 -17.208 -24.054  0.00  0.00    +0.059 C 
ATOM     33  C   UNL     1      35.319 -16.853 -21.722  0.00  0.00    +0.017 C 
ATOM     34  C   UNL     1      35.376 -17.658 -22.904  0.00  0.00    +0.006 C 
ENDBRANCH  25  29
ENDBRANCH  18  22
ENDBRANCH   4  19
BRANCH   5  35
ATOM     35  O   UNL     1      32.525  -7.582 -19.966  0.00  0.00    -0.352 OA
ATOM     36  C   UNL     1      31.890  -8.672 -19.312  0.00  0.00    +0.174 C 
ENDBRANCH   5  35
TORSDOF 5
ENDMDL
MODEL 5
REMARK VINA RESULT:     -10.3     10.748     16.319
REMARK  Name = 11634458
REMARK  5 active torsions:
REMARK  status: ('A' for Active; 'I' for Inactive)
REMARK    1  A    between atoms: N_3  and  C_11
REMARK    2  A    between atoms: C_4  and  C_19
REMARK    3  A    between atoms: C_5  and  O_35
REMARK    4  A    between atoms: N_18  and  C_22
REMARK    5  A    between atoms: C_25  and  N_29
REMARK                            x       y       z     vdW  Elec       q    Type
REMARK                         _______ _______ _______ _____ _____    ______ ____
ROOT
ATOM      1  O   UNL     1      33.705  -4.525 -23.650  0.00  0.00    -0.252 OA
ATOM      2  N   UNL     1      32.503  -6.299 -22.822  0.00  0.00    -0.255 N 
ATOM      3  N   UNL     1      33.345  -6.384 -25.011  0.00  0.00    -0.268 N 
ATOM      4  C   UNL     1      31.745  -7.545 -22.924  0.00  0.00    +0.156 C 
ATOM      5  C   UNL     1      31.571  -6.696 -20.677  0.00  0.00    +0.137 C 
ATOM      6  C   UNL     1      30.825  -7.546 -21.703  0.00  0.00    +0.061 C 
ATOM      7  C   UNL     1      32.297  -5.662 -21.524  0.00  0.00    +0.125 C 
ATOM      8  C   UNL     1      33.227  -5.647 -23.832  0.00  0.00    +0.308 C 
ATOM      9  H   UNL     1      32.912  -7.268 -25.013  0.00  0.00    +0.156 HD
ENDROOT
BRANCH   3  11
ATOM     10 CL   UNL     1      36.138  -4.840 -30.000  0.00  0.00    -0.082 Cl
ATOM     11  C   UNL     1      34.013  -6.015 -26.204  0.00  0.00    +0.052 C 
ATOM     12  C   UNL     1      35.373  -5.722 -26.174  0.00  0.00    +0.016 C 
ATOM     13  C   UNL     1      33.305  -5.946 -27.401  0.00  0.00    +0.016 C 
ATOM     14  C   UNL     1      36.032  -5.358 -27.349  0.00  0.00    +0.013 C 
ATOM     15  C   UNL     1      33.963  -5.582 -28.576  0.00  0.00    +0.013 C 
ATOM     16  C   UNL     1      35.326  -5.288 -28.550  0.00  0.00    +0.058 C 
ENDBRANCH   3  11
BRANCH   4  19
ATOM     17  O   UNL     1      33.918  -8.500 -22.858  0.00  0.00    -0.273 OA
ATOM     18  N   UNL     1      32.034  -9.910 -22.861  0.00  0.00    -0.281 N 
ATOM     19  C   UNL     1      32.707  -8.695 -22.876  0.00  0.00    +0.244 C 
ATOM     20  H   UNL     1      31.051  -9.864 -22.883  0.00  0.00    +0.155 HD
BRANCH  18  22
ATOM     21  F   UNL     1      31.225 -11.770 -20.965  0.00  0.00    -0.203 F 
ATOM     22  C   UNL     1      32.599 -11.207 -22.818  0.00  0.00    +0.078 C 
ATOM     23  C   UNL     1      32.167 -12.105 -21.858  0.00  0.00    +0.155 C 
ATOM     24  C   UNL     1      33.574 -11.548 -23.741  0.00  0.00    +0.018 C 
ATOM     25  C   UNL     1      33.710 -13.742 -22.740  0.00  0.00    +0.061 C 
ATOM     26  C   UNL     1      32.726 -13.382 -21.818  0.00  0.00    +0.046 C 
ATOM     27  C   UNL     1      34.133 -12.825 -23.702  0.00  0.00    +0.017 C 
BRANCH  25  29
ATOM     28  O   UNL     1      34.856 -14.993 -20.397  0.00  0.00    -0.269 OA
ATOM     29  N   UNL     1      34.291 -15.071 -22.698  0.00  0.00    -0.233 N 
ATOM     30  C   UNL     1      34.786 -15.587 -21.473  0.00  0.00    +0.257 C 
ATOM     31  C   UNL     1      34.389 -15.838 -23.861  0.00  0.00    +0.072 C 
ATOM     32  C   UNL     1      35.325 -16.982 -21.508  0.00  0.00    +0.059 C 
ATOM     33  C   UNL     1      34.906 -17.071 -23.872  0.00  0.00    +0.017 C 
ATOM     34  C   UNL     1      35.381 -17.660 -22.657  0.00  0.00    +0.006 C 
ENDBRANCH  25  29
ENDBRANCH  18  22
ENDBRANCH   4  19
BRANCH   5  35
ATOM     35  O   UNL     1      32.507  -7.504 -19.974  0.00  0.00    -0.352 OA
ATOM     36  C   UNL     1      31.870  -8.599 -19.330  0.00  0.00    +0.174 C 
ENDBRANCH   5  35
TORSDOF 5
ENDMDL
MODEL 6
REMARK VINA RESULT:     -10.0     11.590     17.556
REMARK  Name = 11634458
REMARK  5 active torsions:
REMARK  status: ('A' for Active; 'I' for Inactive)
REMARK    1  A    between atoms: N_3  and  C_11
REMARK    2  A    between atoms: C_4  and  C_19
REMARK    3  A    between atoms: C_5  and  O_35
REMARK    4  A    between atoms: N_18  and  C_22
REMARK    5  A    between atoms: C_25  and  N_29
REMARK                            x       y       z     vdW  Elec       q    Type
REMARK                         _______ _______ _______ _____ _____    ______ ____
ROOT
ATOM      1  O   UNL     1      33.964  -3.805 -25.118  0.00  0.00    -0.252 OA
ATOM      2  N   UNL     1      32.516  -5.498 -24.557  0.00  0.00    -0.255 N 
ATOM      3  N   UNL     1      34.226  -5.897 -26.113  0.00  0.00    -0.268 N 
ATOM      4  C   UNL     1      31.873  -6.799 -24.730  0.00  0.00    +0.156 C 
ATOM      5  C   UNL     1      30.741  -5.585 -22.986  0.00  0.00    +0.137 C 
ATOM      6  C   UNL     1      30.513  -6.661 -24.045  0.00  0.00    +0.061 C 
ATOM      7  C   UNL     1      31.767  -4.661 -23.622  0.00  0.00    +0.125 C 
ATOM      8  C   UNL     1      33.609  -4.976 -25.265  0.00  0.00    +0.308 C 
ATOM      9  H   UNL     1      33.834  -6.800 -26.129  0.00  0.00    +0.156 HD
ENDROOT
BRANCH   3  11
ATOM     10 CL   UNL     1      38.918  -5.033 -29.623  0.00  0.00    -0.082 Cl
ATOM     11  C   UNL     1      35.348  -5.690 -26.952  0.00  0.00    +0.052 C 
ATOM     12  C   UNL     1      35.524  -6.485 -28.082  0.00  0.00    +0.016 C 
ATOM     13  C   UNL     1      36.270  -4.694 -26.643  0.00  0.00    +0.016 C 
ATOM     14  C   UNL     1      36.629  -6.282 -28.909  0.00  0.00    +0.013 C 
ATOM     15  C   UNL     1      37.375  -4.491 -27.469  0.00  0.00    +0.013 C 
ATOM     16  C   UNL     1      37.555  -5.285 -28.603  0.00  0.00    +0.058 C 
ENDBRANCH   3  11
BRANCH   4  19
ATOM     17  O   UNL     1      33.790  -7.544 -23.544  0.00  0.00    -0.273 OA
ATOM     18  N   UNL     1      32.107  -9.088 -24.109  0.00  0.00    -0.281 N 
ATOM     19  C   UNL     1      32.714  -7.841 -24.053  0.00  0.00    +0.244 C 
ATOM     20  H   UNL     1      31.237  -9.129 -24.568  0.00  0.00    +0.155 HD
BRANCH  18  22
ATOM     21  F   UNL     1      30.837 -10.354 -21.989  0.00  0.00    -0.203 F 
ATOM     22  C   UNL     1      32.595 -10.309 -23.584  0.00  0.00    +0.078 C 
ATOM     23  C   UNL     1      31.933 -10.908 -22.527  0.00  0.00    +0.155 C 
ATOM     24  C   UNL     1      33.729 -10.877 -24.142  0.00  0.00    +0.018 C 
ATOM     25  C   UNL     1      33.558 -12.695 -22.561  0.00  0.00    +0.061 C 
ATOM     26  C   UNL     1      32.417 -12.110 -22.011  0.00  0.00    +0.046 C 
ATOM     27  C   UNL     1      34.213 -12.079 -23.626  0.00  0.00    +0.017 C 
BRANCH  25  29
ATOM     28  O   UNL     1      34.214 -15.041 -24.121  0.00  0.00    -0.269 OA
ATOM     29  N   UNL     1      34.062 -13.945 -22.024  0.00  0.00    -0.233 N 
ATOM     30  C   UNL     1      34.385 -15.012 -22.901  0.00  0.00    +0.257 C 
ATOM     31  C   UNL     1      34.210 -14.116 -20.646  0.00  0.00    +0.072 C 
ATOM     32  C   UNL     1      34.943 -16.247 -22.270  0.00  0.00    +0.059 C 
ATOM     33  C   UNL     1      34.680 -15.244 -20.104  0.00  0.00    +0.017 C 
ATOM     34  C   UNL     1      35.064 -16.338 -20.944  0.00  0.00    +0.006 C 
ENDBRANCH  25  29
ENDBRANCH  18  22
ENDBRANCH   4  19
BRANCH   5  35
ATOM     35  O   UNL     1      31.275  -6.179 -21.807  0.00  0.00    -0.352 OA
ATOM     36  C   UNL     1      32.141  -5.286 -21.121  0.00  0.00    +0.174 C 
ENDBRANCH   5  35
TORSDOF 5
ENDMDL
MODEL 7
REMARK VINA RESULT:      -9.3     11.851     16.396
REMARK  Name = 11634458
REMARK  5 active torsions:
REMARK  status: ('A' for Active; 'I' for Inactive)
REMARK    1  A    between atoms: N_3  and  C_11
REMARK    2  A    between atoms: C_4  and  C_19
REMARK    3  A    between atoms: C_5  and  O_35
REMARK    4  A    between atoms: N_18  and  C_22
REMARK    5  A    between atoms: C_25  and  N_29
REMARK                            x       y       z     vdW  Elec       q    Type
REMARK                         _______ _______ _______ _____ _____    ______ ____
ROOT
ATOM      1  O   UNL     1      31.266 -11.996 -21.592  0.00  0.00    -0.252 OA
ATOM      2  N   UNL     1      32.280  -9.938 -21.478  0.00  0.00    -0.255 N 
ATOM      3  N   UNL     1      33.388 -11.725 -22.519  0.00  0.00    -0.268 N 
ATOM      4  C   UNL     1      33.410  -9.015 -21.562  0.00  0.00    +0.156 C 
ATOM      5  C   UNL     1      31.513  -7.858 -20.636  0.00  0.00    +0.137 C 
ATOM      6  C   UNL     1      33.039  -7.853 -20.639  0.00  0.00    +0.061 C 
ATOM      7  C   UNL     1      31.154  -9.329 -20.774  0.00  0.00    +0.125 C 
ATOM      8  C   UNL     1      32.244 -11.291 -21.849  0.00  0.00    +0.308 C 
ATOM      9  H   UNL     1      34.091 -11.050 -22.655  0.00  0.00    +0.156 HD
ENDROOT
BRANCH   3  11
ATOM     10 CL   UNL     1      34.524 -17.136 -24.643  0.00  0.00    -0.082 Cl
ATOM     11  C   UNL     1      33.659 -13.019 -23.027  0.00  0.00    +0.052 C 
ATOM     12  C   UNL     1      34.441 -13.904 -22.288  0.00  0.00    +0.016 C 
ATOM     13  C   UNL     1      33.143 -13.401 -24.263  0.00  0.00    +0.016 C 
ATOM     14  C   UNL     1      34.709 -15.179 -22.788  0.00  0.00    +0.013 C 
ATOM     15  C   UNL     1      33.411 -14.675 -24.763  0.00  0.00    +0.013 C 
ATOM     16  C   UNL     1      34.194 -15.564 -24.026  0.00  0.00    +0.058 C 
ENDBRANCH   3  11
BRANCH   4  19
ATOM     17  O   UNL     1      33.412  -9.341 -23.914  0.00  0.00    -0.273 OA
ATOM     18  N   UNL     1      33.823  -7.194 -23.043  0.00  0.00    -0.281 N 
ATOM     19  C   UNL     1      33.544  -8.553 -22.983  0.00  0.00    +0.244 C 
ATOM     20  H   UNL     1      33.895  -6.725 -22.180  0.00  0.00    +0.155 HD
BRANCH  18  22
ATOM     21  F   UNL     1      31.686  -6.443 -24.648  0.00  0.00    -0.203 F 
ATOM     22  C   UNL     1      34.018  -6.405 -24.202  0.00  0.00    +0.078 C 
ATOM     23  C   UNL     1      32.926  -6.051 -24.975  0.00  0.00    +0.155 C 
ATOM     24  C   UNL     1      35.301  -6.004 -24.537  0.00  0.00    +0.018 C 
ATOM     25  C   UNL     1      34.406  -4.862 -26.469  0.00  0.00    +0.061 C 
ATOM     26  C   UNL     1      33.121  -5.274 -26.117  0.00  0.00    +0.046 C 
ATOM     27  C   UNL     1      35.496  -5.227 -25.679  0.00  0.00    +0.017 C 
BRANCH  25  29
ATOM     28  O   UNL     1      35.686  -5.759 -28.902  0.00  0.00    -0.269 OA
ATOM     29  N   UNL     1      34.609  -4.054 -27.656  0.00  0.00    -0.233 N 
ATOM     30  C   UNL     1      35.217  -4.625 -28.804  0.00  0.00    +0.257 C 
ATOM     31  C   UNL     1      34.231  -2.710 -27.672  0.00  0.00    +0.072 C 
ATOM     32  C   UNL     1      35.344  -3.737 -30.000  0.00  0.00    +0.059 C 
ATOM     33  C   UNL     1      34.387  -1.927 -28.744  0.00  0.00    +0.017 C 
ATOM     34  C   UNL     1      34.954  -2.462 -29.945  0.00  0.00    +0.006 C 
ENDBRANCH  25  29
ENDBRANCH  18  22
ENDBRANCH   4  19
BRANCH   5  35
ATOM     35  O   UNL     1      31.029  -7.123 -21.755  0.00  0.00    -0.352 OA
ATOM     36  C   UNL     1      30.947  -5.734 -21.470  0.00  0.00    +0.174 C 
ENDBRANCH   5  35
TORSDOF 5
ENDMDL
MODEL 8
REMARK VINA RESULT:      -9.2      9.543     14.729
REMARK  Name = 11634458
REMARK  5 active torsions:
REMARK  status: ('A' for Active; 'I' for Inactive)
REMARK    1  A    between atoms: N_3  and  C_11
REMARK    2  A    between atoms: C_4  and  C_19
REMARK    3  A    between atoms: C_5  and  O_35
REMARK    4  A    between atoms: N_18  and  C_22
REMARK    5  A    between atoms: C_25  and  N_29
REMARK                            x       y       z     vdW  Elec       q    Type
REMARK                         _______ _______ _______ _____ _____    ______ ____
ROOT
ATOM      1  O   UNL     1      33.220  -6.430 -21.562  0.00  0.00    -0.252 OA
ATOM      2  N   UNL     1      32.101  -8.435 -21.586  0.00  0.00    -0.255 N 
ATOM      3  N   UNL     1      33.127  -7.651 -23.545  0.00  0.00    -0.268 N 
ATOM      4  C   UNL     1      31.456  -9.581 -22.224  0.00  0.00    +0.156 C 
ATOM      5  C   UNL     1      31.027  -9.651 -19.856  0.00  0.00    +0.137 C 
ATOM      6  C   UNL     1      30.440 -10.083 -21.197  0.00  0.00    +0.061 C 
ATOM      7  C   UNL     1      31.736  -8.344 -20.174  0.00  0.00    +0.125 C 
ATOM      8  C   UNL     1      32.851  -7.419 -22.197  0.00  0.00    +0.308 C 
ATOM      9  H   UNL     1      32.768  -8.487 -23.922  0.00  0.00    +0.156 HD
ENDROOT
BRANCH   3  11
ATOM     10 CL   UNL     1      36.194  -4.219 -27.273  0.00  0.00    -0.082 Cl
ATOM     11  C   UNL     1      33.860  -6.830 -24.437  0.00  0.00    +0.052 C 
ATOM     12  C   UNL     1      35.212  -6.591 -24.205  0.00  0.00    +0.016 C 
ATOM     13  C   UNL     1      33.225  -6.266 -25.541  0.00  0.00    +0.016 C 
ATOM     14  C   UNL     1      35.935  -5.782 -25.083  0.00  0.00    +0.013 C 
ATOM     15  C   UNL     1      33.948  -5.458 -26.418  0.00  0.00    +0.013 C 
ATOM     16  C   UNL     1      35.303  -5.216 -26.189  0.00  0.00    +0.058 C 
ENDBRANCH   3  11
BRANCH   4  19
ATOM     17  O   UNL     1      33.528 -10.333 -23.108  0.00  0.00    -0.273 OA
ATOM     18  N   UNL     1      32.122 -11.859 -21.999  0.00  0.00    -0.281 N 
ATOM     19  C   UNL     1      32.500 -10.622 -22.503  0.00  0.00    +0.244 C 
ATOM     20  H   UNL     1      31.250 -11.895 -21.541  0.00  0.00    +0.155 HD
BRANCH  18  22
ATOM     21  F   UNL     1      32.731 -13.035 -24.440  0.00  0.00    -0.203 F 
ATOM     22  C   UNL     1      32.842 -13.075 -22.068  0.00  0.00    +0.078 C 
ATOM     23  C   UNL     1      33.126 -13.628 -23.304  0.00  0.00    +0.155 C 
ATOM     24  C   UNL     1      33.247 -13.686 -20.892  0.00  0.00    +0.018 C 
ATOM     25  C   UNL     1      34.250 -15.456 -22.194  0.00  0.00    +0.061 C 
ATOM     26  C   UNL     1      33.835 -14.828 -23.369  0.00  0.00    +0.046 C 
ATOM     27  C   UNL     1      33.956 -14.886 -20.957  0.00  0.00    +0.017 C 
BRANCH  25  29
ATOM     28  O   UNL     1      34.260 -17.273 -24.445  0.00  0.00    -0.269 OA
ATOM     29  N   UNL     1      34.988 -16.704 -22.262  0.00  0.00    -0.233 N 
ATOM     30  C   UNL     1      34.942 -17.489 -23.442  0.00  0.00    +0.257 C 
ATOM     31  C   UNL     1      35.726 -17.151 -21.164  0.00  0.00    +0.072 C 
ATOM     32  C   UNL     1      35.768 -18.735 -23.445  0.00  0.00    +0.059 C 
ATOM     33  C   UNL     1      36.430 -18.287 -21.180  0.00  0.00    +0.017 C 
ATOM     34  C   UNL     1      36.456 -19.097 -22.360  0.00  0.00    +0.006 C 
ENDBRANCH  25  29
ENDBRANCH  18  22
ENDBRANCH   4  19
BRANCH   5  35
ATOM     35  O   UNL     1      31.963 -10.624 -19.406  0.00  0.00    -0.352 OA
ATOM     36  C   UNL     1      32.407 -10.348 -18.085  0.00  0.00    +0.174 C 
ENDBRANCH   5  35
TORSDOF 5
ENDMDL
