MODEL 1
REMARK VINA RESULT:     -10.5      0.000      0.000
REMARK  Name = 11667893
REMARK  4 active torsions:
REMARK  status: ('A' for Active; 'I' for Inactive)
REMARK    1  A    between atoms: N_2  and  C_14
REMARK    2  A    between atoms: C_3  and  C_18
REMARK    3  A    between atoms: N_23  and  C_25
REMARK    4  A    between atoms: C_25  and  C_27
REMARK                            x       y       z     vdW  Elec       q    Type
REMARK                         _______ _______ _______ _____ _____    ______ ____
ROOT
ATOM      1  O   UNL     1      34.814 -23.948 -12.483  0.00  0.00    -0.270 OA
ATOM      2  N   UNL     1      34.473 -24.306 -14.781  0.00  0.00    -0.280 N 
ATOM      3  C   UNL     1      35.232 -24.201 -13.608  0.00  0.00    +0.252 C 
ATOM      4  H   UNL     1      34.975 -24.517 -15.601  0.00  0.00    +0.155 HD
ENDROOT
BRANCH   2  14
ATOM      5  N   UNL     1      29.842 -25.339 -13.583  0.00  0.00    -0.333 N 
ATOM      6  C   UNL     1      28.860 -23.776 -15.163  0.00  0.00    +0.038 C 
ATOM      7  C   UNL     1      28.588 -25.017 -14.256  0.00  0.00    +0.091 C 
ATOM      8  C   UNL     1      30.367 -23.805 -15.239  0.00  0.00    -0.008 C 
ATOM      9  C   UNL     1      30.860 -24.730 -14.313  0.00  0.00    +0.042 C 
ATOM     10  C   UNL     1      28.197 -23.939 -16.533  0.00  0.00    +0.006 C 
ATOM     11  C   UNL     1      28.382 -22.486 -14.485  0.00  0.00    +0.006 C 
ATOM     12  C   UNL     1      31.224 -23.056 -16.031  0.00  0.00    -0.002 C 
ATOM     13  C   UNL     1      32.223 -24.895 -14.134  0.00  0.00    +0.029 C 
ATOM     14  C   UNL     1      33.095 -24.149 -14.931  0.00  0.00    +0.052 C 
ATOM     15  C   UNL     1      32.598 -23.239 -15.875  0.00  0.00    +0.014 C 
ATOM     16  H   UNL     1      29.949 -25.882 -12.769  0.00  0.00    +0.147 HD
ENDBRANCH   2  14
BRANCH   3  18
ATOM     17  N   UNL     1      38.741 -23.865 -14.896  0.00  0.00    -0.229 NA
ATOM     18  C   UNL     1      36.696 -24.395 -13.775  0.00  0.00    +0.085 C 
ATOM     19  C   UNL     1      37.410 -23.708 -14.721  0.00  0.00    +0.133 C 
ATOM     20  C   UNL     1      37.332 -25.294 -12.951  0.00  0.00    +0.009 C 
ATOM     21  C   UNL     1      38.702 -25.482 -13.100  0.00  0.00    +0.021 C 
ATOM     22  C   UNL     1      39.353 -24.750 -14.079  0.00  0.00    +0.100 C 
ATOM     23  N   UNL     1      36.738 -22.785 -15.562  0.00  0.00    -0.314 N 
ATOM     24  H   UNL     1      35.769 -22.659 -15.446  0.00  0.00    +0.149 HD
BRANCH  23  25
ATOM     25  C   UNL     1      37.411 -22.032 -16.569  0.00  0.00    +0.115 C 
BRANCH  25  27
ATOM     26  N   UNL     1      34.828 -21.075 -19.853  0.00  0.00    -0.242 NA
ATOM     27  C   UNL     1      36.506 -21.696 -17.719  0.00  0.00    +0.000 C 
ATOM     28  C   UNL     1      36.923 -20.791 -18.680  0.00  0.00    +0.018 C 
ATOM     29  C   UNL     1      35.261 -22.295 -17.811  0.00  0.00    +0.018 C 
ATOM     30  C   UNL     1      36.051 -20.515 -19.722  0.00  0.00    +0.099 C 
ATOM     31  C   UNL     1      34.463 -21.952 -18.892  0.00  0.00    +0.099 C 
ENDBRANCH  25  27
ENDBRANCH  23  25
ENDBRANCH   3  18
TORSDOF 4
ENDMDL
MODEL 2
REMARK VINA RESULT:     -10.5      2.058      6.735
REMARK  Name = 11667893
REMARK  4 active torsions:
REMARK  status: ('A' for Active; 'I' for Inactive)
REMARK    1  A    between atoms: N_2  and  C_14
REMARK    2  A    between atoms: C_3  and  C_18
REMARK    3  A    between atoms: N_23  and  C_25
REMARK    4  A    between atoms: C_25  and  C_27
REMARK                            x       y       z     vdW  Elec       q    Type
REMARK                         _______ _______ _______ _____ _____    ______ ____
ROOT
ATOM      1  O   UNL     1      37.239 -21.267 -15.801  0.00  0.00    -0.270 OA
ATOM      2  N   UNL     1      35.835 -22.470 -17.252  0.00  0.00    -0.280 N 
ATOM      3  C   UNL     1      36.587 -22.265 -16.087  0.00  0.00    +0.252 C 
ATOM      4  H   UNL     1      35.371 -23.336 -17.318  0.00  0.00    +0.155 HD
ENDROOT
BRANCH   2  14
ATOM      5  N   UNL     1      37.549 -19.380 -20.638  0.00  0.00    -0.333 N 
ATOM      6  C   UNL     1      35.384 -18.965 -21.661  0.00  0.00    +0.038 C 
ATOM      7  C   UNL     1      36.852 -18.452 -21.521  0.00  0.00    +0.091 C 
ATOM      8  C   UNL     1      35.294 -19.893 -20.475  0.00  0.00    -0.008 C 
ATOM      9  C   UNL     1      36.570 -20.077 -19.933  0.00  0.00    +0.042 C 
ATOM     10  C   UNL     1      34.386 -17.808 -21.582  0.00  0.00    +0.006 C 
ATOM     11  C   UNL     1      35.199 -19.746 -22.968  0.00  0.00    +0.006 C 
ATOM     12  C   UNL     1      34.189 -20.542 -19.945  0.00  0.00    -0.002 C 
ATOM     13  C   UNL     1      36.771 -20.945 -18.873  0.00  0.00    +0.029 C 
ATOM     14  C   UNL     1      35.663 -21.601 -18.329  0.00  0.00    +0.052 C 
ATOM     15  C   UNL     1      34.381 -21.396 -18.859  0.00  0.00    +0.014 C 
ATOM     16  H   UNL     1      38.523 -19.493 -20.556  0.00  0.00    +0.147 HD
ENDBRANCH   2  14
BRANCH   3  18
ATOM     17  N   UNL     1      35.463 -24.781 -13.539  0.00  0.00    -0.229 NA
ATOM     18  C   UNL     1      36.598 -23.399 -15.127  0.00  0.00    +0.085 C 
ATOM     19  C   UNL     1      35.481 -23.755 -14.419  0.00  0.00    +0.133 C 
ATOM     20  C   UNL     1      37.772 -24.097 -14.959  0.00  0.00    +0.009 C 
ATOM     21  C   UNL     1      37.792 -25.161 -14.063  0.00  0.00    +0.021 C 
ATOM     22  C   UNL     1      36.622 -25.459 -13.384  0.00  0.00    +0.100 C 
ATOM     23  N   UNL     1      34.280 -23.025 -14.605  0.00  0.00    -0.314 N 
ATOM     24  H   UNL     1      34.278 -22.275 -15.243  0.00  0.00    +0.149 HD
BRANCH  23  25
ATOM     25  C   UNL     1      33.076 -23.334 -13.906  0.00  0.00    +0.115 C 
BRANCH  25  27
ATOM     26  N   UNL     1      29.598 -22.580 -16.294  0.00  0.00    -0.242 NA
ATOM     27  C   UNL     1      31.857 -23.069 -14.742  0.00  0.00    +0.000 C 
ATOM     28  C   UNL     1      31.991 -22.864 -16.106  0.00  0.00    +0.018 C 
ATOM     29  C   UNL     1      30.609 -23.034 -14.146  0.00  0.00    +0.018 C 
ATOM     30  C   UNL     1      30.836 -22.624 -16.834  0.00  0.00    +0.099 C 
ATOM     31  C   UNL     1      29.515 -22.787 -14.961  0.00  0.00    +0.099 C 
ENDBRANCH  25  27
ENDBRANCH  23  25
ENDBRANCH   3  18
TORSDOF 4
ENDMDL
MODEL 3
REMARK VINA RESULT:     -10.4      1.890      6.126
REMARK  Name = 11667893
REMARK  4 active torsions:
REMARK  status: ('A' for Active; 'I' for Inactive)
REMARK    1  A    between atoms: N_2  and  C_14
REMARK    2  A    between atoms: C_3  and  C_18
REMARK    3  A    between atoms: N_23  and  C_25
REMARK    4  A    between atoms: C_25  and  C_27
REMARK                            x       y       z     vdW  Elec       q    Type
REMARK                         _______ _______ _______ _____ _____    ______ ____
ROOT
ATOM      1  O   UNL     1      37.453 -21.539 -15.668  0.00  0.00    -0.270 OA
ATOM      2  N   UNL     1      35.859 -22.781 -16.868  0.00  0.00    -0.280 N 
ATOM      3  C   UNL     1      36.738 -22.525 -15.808  0.00  0.00    +0.252 C 
ATOM      4  H   UNL     1      35.360 -23.628 -16.820  0.00  0.00    +0.155 HD
ENDROOT
BRANCH   2  14
ATOM      5  N   UNL     1      32.824 -20.586 -20.019  0.00  0.00    -0.333 N 
ATOM      6  C   UNL     1      34.588 -19.525 -21.309  0.00  0.00    +0.038 C 
ATOM      7  C   UNL     1      33.084 -19.942 -21.301  0.00  0.00    +0.091 C 
ATOM      8  C   UNL     1      35.127 -20.385 -20.193  0.00  0.00    -0.008 C 
ATOM      9  C   UNL     1      34.059 -20.970 -19.503  0.00  0.00    +0.042 C 
ATOM     10  C   UNL     1      35.239 -19.835 -22.659  0.00  0.00    +0.006 C 
ATOM     11  C   UNL     1      34.747 -18.039 -20.965  0.00  0.00    +0.006 C 
ATOM     12  C   UNL     1      36.439 -20.603 -19.802  0.00  0.00    -0.002 C 
ATOM     13  C   UNL     1      34.284 -21.754 -18.384  0.00  0.00    +0.029 C 
ATOM     14  C   UNL     1      35.604 -21.984 -17.984  0.00  0.00    +0.052 C 
ATOM     15  C   UNL     1      36.673 -21.415 -18.692  0.00  0.00    +0.014 C 
ATOM     16  H   UNL     1      31.945 -20.725 -19.599  0.00  0.00    +0.147 HD
ENDBRANCH   2  14
BRANCH   3  18
ATOM     17  N   UNL     1      35.761 -24.902 -13.073  0.00  0.00    -0.229 NA
ATOM     18  C   UNL     1      36.813 -23.588 -14.771  0.00  0.00    +0.085 C 
ATOM     19  C   UNL     1      35.723 -23.941 -14.022  0.00  0.00    +0.133 C 
ATOM     20  C   UNL     1      38.019 -24.220 -14.574  0.00  0.00    +0.009 C 
ATOM     21  C   UNL     1      38.098 -25.216 -13.606  0.00  0.00    +0.021 C 
ATOM     22  C   UNL     1      36.951 -25.516 -12.889  0.00  0.00    +0.100 C 
ATOM     23  N   UNL     1      34.488 -23.278 -14.240  0.00  0.00    -0.314 N 
ATOM     24  H   UNL     1      34.444 -22.576 -14.928  0.00  0.00    +0.149 HD
BRANCH  23  25
ATOM     25  C   UNL     1      33.308 -23.589 -13.501  0.00  0.00    +0.115 C 
BRANCH  25  27
ATOM     26  N   UNL     1      29.751 -22.829 -15.769  0.00  0.00    -0.242 NA
ATOM     27  C   UNL     1      32.062 -23.322 -14.295  0.00  0.00    +0.000 C 
ATOM     28  C   UNL     1      32.151 -23.100 -15.659  0.00  0.00    +0.018 C 
ATOM     29  C   UNL     1      30.832 -23.302 -13.659  0.00  0.00    +0.018 C 
ATOM     30  C   UNL     1      30.972 -22.859 -16.347  0.00  0.00    +0.099 C 
ATOM     31  C   UNL     1      29.712 -23.052 -14.436  0.00  0.00    +0.099 C 
ENDBRANCH  25  27
ENDBRANCH  23  25
ENDBRANCH   3  18
TORSDOF 4
ENDMDL
MODEL 4
REMARK VINA RESULT:     -10.4      4.843      8.756
REMARK  Name = 11667893
REMARK  4 active torsions:
REMARK  status: ('A' for Active; 'I' for Inactive)
REMARK    1  A    between atoms: N_2  and  C_14
REMARK    2  A    between atoms: C_3  and  C_18
REMARK    3  A    between atoms: N_23  and  C_25
REMARK    4  A    between atoms: C_25  and  C_27
REMARK                            x       y       z     vdW  Elec       q    Type
REMARK                         _______ _______ _______ _____ _____    ______ ____
ROOT
ATOM      1  O   UNL     1      36.190 -18.673 -20.323  0.00  0.00    -0.270 OA
ATOM      2  N   UNL     1      34.738 -20.506 -20.563  0.00  0.00    -0.280 N 
ATOM      3  C   UNL     1      35.374 -19.324 -20.966  0.00  0.00    +0.252 C 
ATOM      4  H   UNL     1      34.107 -20.898 -21.209  0.00  0.00    +0.155 HD
ENDROOT
BRANCH   2  14
ATOM      5  N   UNL     1      37.334 -21.855 -16.640  0.00  0.00    -0.333 N 
ATOM      6  C   UNL     1      35.543 -23.154 -15.636  0.00  0.00    +0.038 C 
ATOM      7  C   UNL     1      37.080 -22.881 -15.635  0.00  0.00    +0.091 C 
ATOM      8  C   UNL     1      35.150 -22.560 -16.966  0.00  0.00    -0.008 C 
ATOM      9  C   UNL     1      36.229 -21.838 -17.487  0.00  0.00    +0.042 C 
ATOM     10  C   UNL     1      35.249 -24.653 -15.550  0.00  0.00    +0.006 C 
ATOM     11  C   UNL     1      34.853 -22.405 -14.489  0.00  0.00    +0.006 C 
ATOM     12  C   UNL     1      33.939 -22.624 -17.637  0.00  0.00    -0.002 C 
ATOM     13  C   UNL     1      36.103 -21.133 -18.672  0.00  0.00    +0.029 C 
ATOM     14  C   UNL     1      34.888 -21.195 -19.359  0.00  0.00    +0.052 C 
ATOM     15  C   UNL     1      33.815 -21.939 -18.846  0.00  0.00    +0.014 C 
ATOM     16  H   UNL     1      38.133 -21.284 -16.706  0.00  0.00    +0.147 HD
ENDBRANCH   2  14
BRANCH   3  18
ATOM     17  N   UNL     1      34.610 -16.982 -23.798  0.00  0.00    -0.229 NA
ATOM     18  C   UNL     1      34.982 -18.814 -22.306  0.00  0.00    +0.085 C 
ATOM     19  C   UNL     1      34.963 -17.474 -22.589  0.00  0.00    +0.133 C 
ATOM     20  C   UNL     1      34.631 -19.728 -23.273  0.00  0.00    +0.009 C 
ATOM     21  C   UNL     1      34.263 -19.259 -24.530  0.00  0.00    +0.021 C 
ATOM     22  C   UNL     1      34.268 -17.890 -24.739  0.00  0.00    +0.100 C 
ATOM     23  N   UNL     1      35.328 -16.547 -21.581  0.00  0.00    -0.314 N 
ATOM     24  H   UNL     1      35.588 -16.890 -20.696  0.00  0.00    +0.149 HD
BRANCH  23  25
ATOM     25  C   UNL     1      35.334 -15.137 -21.798  0.00  0.00    +0.115 C 
BRANCH  25  27
ATOM     26  N   UNL     1      31.691 -13.298 -20.488  0.00  0.00    -0.242 NA
ATOM     27  C   UNL     1      34.058 -14.493 -21.339  0.00  0.00    +0.000 C 
ATOM     28  C   UNL     1      33.382 -13.628 -22.184  0.00  0.00    +0.018 C 
ATOM     29  C   UNL     1      33.565 -14.768 -20.074  0.00  0.00    +0.018 C 
ATOM     30  C   UNL     1      32.209 -13.060 -21.714  0.00  0.00    +0.099 C 
ATOM     31  C   UNL     1      32.383 -14.148 -19.698  0.00  0.00    +0.099 C 
ENDBRANCH  25  27
ENDBRANCH  23  25
ENDBRANCH   3  18
TORSDOF 4
ENDMDL
MODEL 5
REMARK VINA RESULT:     -10.4      2.064      7.492
REMARK  Name = 11667893
REMARK  4 active torsions:
REMARK  status: ('A' for Active; 'I' for Inactive)
REMARK    1  A    between atoms: N_2  and  C_14
REMARK    2  A    between atoms: C_3  and  C_18
REMARK    3  A    between atoms: N_23  and  C_25
REMARK    4  A    between atoms: C_25  and  C_27
REMARK                            x       y       z     vdW  Elec       q    Type
REMARK                         _______ _______ _______ _____ _____    ______ ____
ROOT
ATOM      1  O   UNL     1      34.652 -23.143 -16.674  0.00  0.00    -0.270 OA
ATOM      2  N   UNL     1      32.808 -22.112 -17.703  0.00  0.00    -0.280 N 
ATOM      3  C   UNL     1      33.447 -22.940 -16.771  0.00  0.00    +0.252 C 
ATOM      4  H   UNL     1      31.826 -22.065 -17.637  0.00  0.00    +0.155 HD
ENDROOT
BRANCH   2  14
ATOM      5  N   UNL     1      36.682 -20.425 -20.172  0.00  0.00    -0.333 N 
ATOM      6  C   UNL     1      35.375 -19.135 -21.763  0.00  0.00    +0.038 C 
ATOM      7  C   UNL     1      36.795 -19.349 -21.150  0.00  0.00    +0.091 C 
ATOM      8  C   UNL     1      34.514 -19.825 -20.733  0.00  0.00    -0.008 C 
ATOM      9  C   UNL     1      35.332 -20.536 -19.849  0.00  0.00    +0.042 C 
ATOM     10  C   UNL     1      35.052 -17.646 -21.899  0.00  0.00    +0.006 C 
ATOM     11  C   UNL     1      35.253 -19.838 -23.121  0.00  0.00    +0.006 C 
ATOM     12  C   UNL     1      33.134 -19.849 -20.611  0.00  0.00    -0.002 C 
ATOM     13  C   UNL     1      34.780 -21.317 -18.847  0.00  0.00    +0.029 C 
ATOM     14  C   UNL     1      33.390 -21.344 -18.712  0.00  0.00    +0.052 C 
ATOM     15  C   UNL     1      32.573 -20.611 -19.586  0.00  0.00    +0.014 C 
ATOM     16  H   UNL     1      37.419 -20.968 -19.810  0.00  0.00    +0.147 HD
ENDBRANCH   2  14
BRANCH   3  18
ATOM     17  N   UNL     1      32.190 -24.767 -13.743  0.00  0.00    -0.229 NA
ATOM     18  C   UNL     1      32.545 -23.656 -15.831  0.00  0.00    +0.085 C 
ATOM     19  C   UNL     1      32.986 -24.112 -14.617  0.00  0.00    +0.133 C 
ATOM     20  C   UNL     1      31.238 -23.858 -16.209  0.00  0.00    +0.009 C 
ATOM     21  C   UNL     1      30.387 -24.527 -15.336  0.00  0.00    +0.021 C 
ATOM     22  C   UNL     1      30.908 -24.958 -14.126  0.00  0.00    +0.100 C 
ATOM     23  N   UNL     1      34.337 -23.895 -14.244  0.00  0.00    -0.314 N 
ATOM     24  H   UNL     1      34.929 -23.419 -14.869  0.00  0.00    +0.149 HD
BRANCH  23  25
ATOM     25  C   UNL     1      34.871 -24.338 -12.997  0.00  0.00    +0.115 C 
BRANCH  25  27
ATOM     26  N   UNL     1      38.478 -26.594 -13.512  0.00  0.00    -0.242 NA
ATOM     27  C   UNL     1      36.134 -25.129 -13.177  0.00  0.00    +0.000 C 
ATOM     28  C   UNL     1      36.369 -25.786 -14.373  0.00  0.00    +0.018 C 
ATOM     29  C   UNL     1      37.057 -25.194 -12.147  0.00  0.00    +0.018 C 
ATOM     30  C   UNL     1      37.550 -26.502 -14.490  0.00  0.00    +0.099 C 
ATOM     31  C   UNL     1      38.208 -25.936 -12.363  0.00  0.00    +0.099 C 
ENDBRANCH  25  27
ENDBRANCH  23  25
ENDBRANCH   3  18
TORSDOF 4
ENDMDL
MODEL 6
REMARK VINA RESULT:     -10.0      2.052      7.368
REMARK  Name = 11667893
REMARK  4 active torsions:
REMARK  status: ('A' for Active; 'I' for Inactive)
REMARK    1  A    between atoms: N_2  and  C_14
REMARK    2  A    between atoms: C_3  and  C_18
REMARK    3  A    between atoms: N_23  and  C_25
REMARK    4  A    between atoms: C_25  and  C_27
REMARK                            x       y       z     vdW  Elec       q    Type
REMARK                         _______ _______ _______ _____ _____    ______ ____
ROOT
ATOM      1  O   UNL     1      36.855 -22.090 -18.288  0.00  0.00    -0.270 OA
ATOM      2  N   UNL     1      35.261 -22.638 -16.650  0.00  0.00    -0.280 N 
ATOM      3  C   UNL     1      35.703 -22.109 -17.870  0.00  0.00    +0.252 C 
ATOM      4  H   UNL     1      34.295 -22.568 -16.474  0.00  0.00    +0.155 HD
ENDROOT
BRANCH   2  14
ATOM      5  N   UNL     1      36.353 -26.429 -13.753  0.00  0.00    -0.333 N 
ATOM      6  C   UNL     1      38.250 -25.344 -12.690  0.00  0.00    +0.038 C 
ATOM      7  C   UNL     1      37.225 -26.518 -12.588  0.00  0.00    +0.091 C 
ATOM      8  C   UNL     1      37.557 -24.448 -13.687  0.00  0.00    -0.008 C 
ATOM      9  C   UNL     1      36.473 -25.133 -14.248  0.00  0.00    +0.042 C 
ATOM     10  C   UNL     1      38.453 -24.669 -11.332  0.00  0.00    +0.006 C 
ATOM     11  C   UNL     1      39.591 -25.835 -13.252  0.00  0.00    +0.006 C 
ATOM     12  C   UNL     1      37.875 -23.160 -14.085  0.00  0.00    -0.002 C 
ATOM     13  C   UNL     1      35.711 -24.552 -15.249  0.00  0.00    +0.029 C 
ATOM     14  C   UNL     1      36.021 -23.251 -15.654  0.00  0.00    +0.052 C 
ATOM     15  C   UNL     1      37.094 -22.559 -15.072  0.00  0.00    +0.014 C 
ATOM     16  H   UNL     1      35.788 -27.146 -14.119  0.00  0.00    +0.147 HD
ENDBRANCH   2  14
BRANCH   3  18
ATOM     17  N   UNL     1      32.337 -21.098 -19.188  0.00  0.00    -0.229 NA
ATOM     18  C   UNL     1      34.649 -21.489 -18.715  0.00  0.00    +0.085 C 
ATOM     19  C   UNL     1      33.317 -21.648 -18.437  0.00  0.00    +0.133 C 
ATOM     20  C   UNL     1      35.041 -20.741 -19.800  0.00  0.00    +0.009 C 
ATOM     21  C   UNL     1      34.062 -20.157 -20.597  0.00  0.00    +0.021 C 
ATOM     22  C   UNL     1      32.737 -20.364 -20.251  0.00  0.00    +0.100 C 
ATOM     23  N   UNL     1      32.931 -22.423 -17.314  0.00  0.00    -0.314 N 
ATOM     24  H   UNL     1      33.633 -22.830 -16.757  0.00  0.00    +0.149 HD
BRANCH  23  25
ATOM     25  C   UNL     1      31.566 -22.634 -16.959  0.00  0.00    +0.115 C 
BRANCH  25  27
ATOM     26  N   UNL     1      31.167 -24.225 -12.999  0.00  0.00    -0.242 NA
ATOM     27  C   UNL     1      31.426 -23.191 -15.571  0.00  0.00    +0.000 C 
ATOM     28  C   UNL     1      30.361 -24.024 -15.269  0.00  0.00    +0.018 C 
ATOM     29  C   UNL     1      32.363 -22.870 -14.604  0.00  0.00    +0.018 C 
ATOM     30  C   UNL     1      30.278 -24.512 -13.975  0.00  0.00    +0.099 C 
ATOM     31  C   UNL     1      32.190 -23.410 -13.339  0.00  0.00    +0.099 C 
ENDBRANCH  25  27
ENDBRANCH  23  25
ENDBRANCH   3  18
TORSDOF 4
ENDMDL
MODEL 7
REMARK VINA RESULT:     -10.0      2.322      7.540
REMARK  Name = 11667893
REMARK  4 active torsions:
REMARK  status: ('A' for Active; 'I' for Inactive)
REMARK    1  A    between atoms: N_2  and  C_14
REMARK    2  A    between atoms: C_3  and  C_18
REMARK    3  A    between atoms: N_23  and  C_25
REMARK    4  A    between atoms: C_25  and  C_27
REMARK                            x       y       z     vdW  Elec       q    Type
REMARK                         _______ _______ _______ _____ _____    ______ ____
ROOT
ATOM      1  O   UNL     1      35.027 -22.723 -16.280  0.00  0.00    -0.270 OA
ATOM      2  N   UNL     1      33.132 -22.233 -17.581  0.00  0.00    -0.280 N 
ATOM      3  C   UNL     1      33.826 -22.812 -16.510  0.00  0.00    +0.252 C 
ATOM      4  H   UNL     1      32.164 -22.408 -17.612  0.00  0.00    +0.155 HD
ENDROOT
BRANCH   2  14
ATOM      5  N   UNL     1      36.836 -20.385 -20.192  0.00  0.00    -0.333 N 
ATOM      6  C   UNL     1      35.417 -19.141 -21.723  0.00  0.00    +0.038 C 
ATOM      7  C   UNL     1      36.868 -19.301 -21.167  0.00  0.00    +0.091 C 
ATOM      8  C   UNL     1      34.626 -19.869 -20.663  0.00  0.00    -0.008 C 
ATOM      9  C   UNL     1      35.505 -20.551 -19.816  0.00  0.00    +0.042 C 
ATOM     10  C   UNL     1      35.031 -17.665 -21.837  0.00  0.00    +0.006 C 
ATOM     11  C   UNL     1      35.269 -19.842 -23.079  0.00  0.00    +0.006 C 
ATOM     12  C   UNL     1      33.254 -19.947 -20.487  0.00  0.00    -0.002 C 
ATOM     13  C   UNL     1      35.025 -21.357 -18.798  0.00  0.00    +0.029 C 
ATOM     14  C   UNL     1      33.643 -21.439 -18.608  0.00  0.00    +0.052 C 
ATOM     15  C   UNL     1      32.764 -20.735 -19.445  0.00  0.00    +0.014 C 
ATOM     16  H   UNL     1      37.607 -20.900 -19.862  0.00  0.00    +0.147 HD
ENDBRANCH   2  14
BRANCH   3  18
ATOM     17  N   UNL     1      32.850 -25.202 -13.786  0.00  0.00    -0.229 NA
ATOM     18  C   UNL     1      33.003 -23.635 -15.587  0.00  0.00    +0.085 C 
ATOM     19  C   UNL     1      33.573 -24.442 -14.638  0.00  0.00    +0.133 C 
ATOM     20  C   UNL     1      31.634 -23.573 -15.705  0.00  0.00    +0.009 C 
ATOM     21  C   UNL     1      30.855 -24.340 -14.844  0.00  0.00    +0.021 C 
ATOM     22  C   UNL     1      31.506 -25.130 -13.912  0.00  0.00    +0.100 C 
ATOM     23  N   UNL     1      34.986 -24.494 -14.531  0.00  0.00    -0.314 N 
ATOM     24  H   UNL     1      35.527 -23.945 -15.144  0.00  0.00    +0.149 HD
BRANCH  23  25
ATOM     25  C   UNL     1      35.655 -25.308 -13.569  0.00  0.00    +0.115 C 
BRANCH  25  27
ATOM     26  N   UNL     1      37.060 -23.020 -10.228  0.00  0.00    -0.242 NA
ATOM     27  C   UNL     1      36.147 -24.506 -12.399  0.00  0.00    +0.000 C 
ATOM     28  C   UNL     1      35.688 -24.797 -11.125  0.00  0.00    +0.018 C 
ATOM     29  C   UNL     1      37.056 -23.482 -12.601  0.00  0.00    +0.018 C 
ATOM     30  C   UNL     1      36.173 -24.029 -10.078  0.00  0.00    +0.099 C 
ATOM     31  C   UNL     1      37.480 -22.771 -11.488  0.00  0.00    +0.099 C 
ENDBRANCH  25  27
ENDBRANCH  23  25
ENDBRANCH   3  18
TORSDOF 4
ENDMDL
MODEL 8
REMARK VINA RESULT:      -9.6      1.767      6.629
REMARK  Name = 11667893
REMARK  4 active torsions:
REMARK  status: ('A' for Active; 'I' for Inactive)
REMARK    1  A    between atoms: N_2  and  C_14
REMARK    2  A    between atoms: C_3  and  C_18
REMARK    3  A    between atoms: N_23  and  C_25
REMARK    4  A    between atoms: C_25  and  C_27
REMARK                            x       y       z     vdW  Elec       q    Type
REMARK                         _______ _______ _______ _____ _____    ______ ____
ROOT
ATOM      1  O   UNL     1      32.249 -23.516 -13.009  0.00  0.00    -0.270 OA
ATOM      2  N   UNL     1      33.337 -23.764 -15.078  0.00  0.00    -0.280 N 
ATOM      3  C   UNL     1      32.245 -23.515 -14.235  0.00  0.00    +0.252 C 
ATOM      4  H   UNL     1      33.154 -23.721 -16.044  0.00  0.00    +0.155 HD
ENDROOT
BRANCH   2  14
ATOM      5  N   UNL     1      36.977 -26.918 -14.210  0.00  0.00    -0.333 N 
ATOM      6  C   UNL     1      38.628 -25.206 -13.712  0.00  0.00    +0.038 C 
ATOM      7  C   UNL     1      38.280 -26.722 -13.583  0.00  0.00    +0.091 C 
ATOM      8  C   UNL     1      37.267 -24.626 -14.013  0.00  0.00    -0.008 C 
ATOM      9  C   UNL     1      36.370 -25.666 -14.278  0.00  0.00    +0.042 C 
ATOM     10  C   UNL     1      39.226 -24.664 -12.412  0.00  0.00    +0.006 C 
ATOM     11  C   UNL     1      39.585 -24.961 -14.887  0.00  0.00    +0.006 C 
ATOM     12  C   UNL     1      36.868 -23.301 -14.078  0.00  0.00    -0.002 C 
ATOM     13  C   UNL     1      35.064 -25.397 -14.652  0.00  0.00    +0.029 C 
ATOM     14  C   UNL     1      34.650 -24.063 -14.716  0.00  0.00    +0.052 C 
ATOM     15  C   UNL     1      35.546 -23.023 -14.427  0.00  0.00    +0.014 C 
ATOM     16  H   UNL     1      36.600 -27.770 -14.525  0.00  0.00    +0.147 HD
ENDBRANCH   2  14
BRANCH   3  18
ATOM     17  N   UNL     1      29.751 -22.514 -16.855  0.00  0.00    -0.229 NA
ATOM     18  C   UNL     1      30.955 -23.250 -14.924  0.00  0.00    +0.085 C 
ATOM     19  C   UNL     1      30.909 -22.764 -16.204  0.00  0.00    +0.133 C 
ATOM     20  C   UNL     1      29.789 -23.505 -14.242  0.00  0.00    +0.009 C 
ATOM     21  C   UNL     1      28.576 -23.261 -14.879  0.00  0.00    +0.021 C 
ATOM     22  C   UNL     1      28.612 -22.770 -16.173  0.00  0.00    +0.100 C 
ATOM     23  N   UNL     1      32.122 -22.507 -16.892  0.00  0.00    -0.314 N 
ATOM     24  H   UNL     1      32.973 -22.686 -16.432  0.00  0.00    +0.149 HD
BRANCH  23  25
ATOM     25  C   UNL     1      32.157 -22.002 -18.226  0.00  0.00    +0.115 C 
BRANCH  25  27
ATOM     26  N   UNL     1      36.143 -21.039 -19.470  0.00  0.00    -0.242 NA
ATOM     27  C   UNL     1      33.553 -21.664 -18.662  0.00  0.00    +0.000 C 
ATOM     28  C   UNL     1      34.633 -22.253 -18.025  0.00  0.00    +0.018 C 
ATOM     29  C   UNL     1      33.752 -20.767 -19.698  0.00  0.00    +0.018 C 
ATOM     30  C   UNL     1      35.901 -21.909 -18.465  0.00  0.00    +0.099 C 
ATOM     31  C   UNL     1      35.060 -20.489 -20.063  0.00  0.00    +0.099 C 
ENDBRANCH  25  27
ENDBRANCH  23  25
ENDBRANCH   3  18
TORSDOF 4
ENDMDL
MODEL 9
REMARK VINA RESULT:      -9.6      9.523     13.907
REMARK  Name = 11667893
REMARK  4 active torsions:
REMARK  status: ('A' for Active; 'I' for Inactive)
REMARK    1  A    between atoms: N_2  and  C_14
REMARK    2  A    between atoms: C_3  and  C_18
REMARK    3  A    between atoms: N_23  and  C_25
REMARK    4  A    between atoms: C_25  and  C_27
REMARK                            x       y       z     vdW  Elec       q    Type
REMARK                         _______ _______ _______ _____ _____    ______ ____
ROOT
ATOM      1  O   UNL     1      33.436 -13.396 -24.443  0.00  0.00    -0.270 OA
ATOM      2  N   UNL     1      34.646 -13.405 -22.429  0.00  0.00    -0.280 N 
ATOM      3  C   UNL     1      34.006 -12.815 -23.527  0.00  0.00    +0.252 C 
ATOM      4  H   UNL     1      35.055 -12.784 -21.783  0.00  0.00    +0.155 HD
ENDROOT
BRANCH   2  14
ATOM      5  N   UNL     1      35.215 -18.083 -23.748  0.00  0.00    -0.333 N 
ATOM      6  C   UNL     1      35.257 -18.942 -21.475  0.00  0.00    +0.038 C 
ATOM      7  C   UNL     1      35.072 -19.315 -22.980  0.00  0.00    +0.091 C 
ATOM      8  C   UNL     1      35.044 -17.448 -21.525  0.00  0.00    -0.008 C 
ATOM      9  C   UNL     1      35.020 -17.029 -22.860  0.00  0.00    +0.042 C 
ATOM     10  C   UNL     1      34.226 -19.655 -20.599  0.00  0.00    +0.006 C 
ATOM     11  C   UNL     1      36.680 -19.264 -21.002  0.00  0.00    +0.006 C 
ATOM     12  C   UNL     1      34.918 -16.541 -20.485  0.00  0.00    -0.002 C 
ATOM     13  C   UNL     1      34.908 -15.686 -23.177  0.00  0.00    +0.029 C 
ATOM     14  C   UNL     1      34.775 -14.763 -22.136  0.00  0.00    +0.052 C 
ATOM     15  C   UNL     1      34.776 -15.189 -20.800  0.00  0.00    +0.014 C 
ATOM     16  H   UNL     1      35.410 -18.011 -24.710  0.00  0.00    +0.147 HD
ENDBRANCH   2  14
BRANCH   3  18
ATOM     17  N   UNL     1      33.085  -9.204 -23.083  0.00  0.00    -0.229 NA
ATOM     18  C   UNL     1      34.062 -11.330 -23.575  0.00  0.00    +0.085 C 
ATOM     19  C   UNL     1      33.062 -10.555 -23.053  0.00  0.00    +0.133 C 
ATOM     20  C   UNL     1      35.155 -10.739 -24.166  0.00  0.00    +0.009 C 
ATOM     21  C   UNL     1      35.216  -9.350 -24.215  0.00  0.00    +0.021 C 
ATOM     22  C   UNL     1      34.165  -8.635 -23.666  0.00  0.00    +0.100 C 
ATOM     23  N   UNL     1      31.943 -11.181 -22.448  0.00  0.00    -0.314 N 
ATOM     24  H   UNL     1      31.912 -12.165 -22.417  0.00  0.00    +0.149 HD
BRANCH  23  25
ATOM     25  C   UNL     1      30.862 -10.443 -21.881  0.00  0.00    +0.115 C 
BRANCH  25  27
ATOM     26  N   UNL     1      31.827  -8.919 -17.993  0.00  0.00    -0.242 NA
ATOM     27  C   UNL     1      31.199  -9.909 -20.519  0.00  0.00    +0.000 C 
ATOM     28  C   UNL     1      31.174 -10.755 -19.423  0.00  0.00    +0.018 C 
ATOM     29  C   UNL     1      31.535  -8.574 -20.368  0.00  0.00    +0.018 C 
ATOM     30  C   UNL     1      31.495 -10.214 -18.188  0.00  0.00    +0.099 C 
ATOM     31  C   UNL     1      31.839  -8.130 -19.091  0.00  0.00    +0.099 C 
ENDBRANCH  25  27
ENDBRANCH  23  25
ENDBRANCH   3  18
TORSDOF 4
ENDMDL
