MODEL 1
REMARK VINA RESULT:     -12.5      0.000      0.000
REMARK  Name = 25101874
REMARK  5 active torsions:
REMARK  status: ('A' for Active; 'I' for Inactive)
REMARK    1  A    between atoms: N_1  and  C_22
REMARK    2  A    between atoms: C_2  and  N_8
REMARK    3  A    between atoms: N_8  and  C_11
REMARK    4  A    between atoms: C_11  and  C_14
REMARK    5  A    between atoms: C_22  and  C_28
REMARK                            x       y       z     vdW  Elec       q    Type
REMARK                         _______ _______ _______ _____ _____    ______ ____
ROOT
ATOM      1  N   UNL     1      34.231 -22.659 -18.724  0.00  0.00    +0.388 N 
ATOM      2  C   UNL     1      34.596 -20.146 -20.177  0.00  0.00    -0.066 C 
ATOM      3  C   UNL     1      35.555 -22.026 -18.795  0.00  0.00    -0.079 C 
ATOM      4  C   UNL     1      33.158 -21.655 -18.755  0.00  0.00    -0.079 C 
ATOM      5  C   UNL     1      35.704 -21.198 -20.074  0.00  0.00    -0.044 C 
ATOM      6  C   UNL     1      33.226 -20.814 -20.032  0.00  0.00    -0.044 C 
ATOM      7  H   UNL     1      34.125 -23.257 -19.543  0.00  0.00    -0.080 HD
ENDROOT
BRANCH   2   8
ATOM      8  N   UNL     1      34.696 -19.430 -21.447  0.00  0.00    +0.389 N 
ATOM      9  H   UNL     1      33.809 -18.964 -21.639  0.00  0.00    -0.084 HD
ATOM     10  H   UNL     1      34.912 -20.101 -22.184  0.00  0.00    -0.084 HD
BRANCH   8  11
ATOM     11  C   UNL     1      35.757 -18.435 -21.398  0.00  0.00    -0.034 C 
BRANCH  11  14
ATOM     12  O   UNL     1      33.834 -13.224 -22.060  0.00  0.00    -0.474 OA
ATOM     13  N   UNL     1      35.073 -16.268 -20.534  0.00  0.00    -0.247 NA
ATOM     14  C   UNL     1      35.233 -17.043 -21.629  0.00  0.00    +0.037 C 
ATOM     15  C   UNL     1      34.945 -16.632 -22.921  0.00  0.00    +0.011 C 
ATOM     16  C   UNL     1      34.454 -15.339 -23.111  0.00  0.00    +0.015 C 
ATOM     17  C   UNL     1      34.125 -14.848 -24.491  0.00  0.00    +0.033 C 
ATOM     18  C   UNL     1      34.301 -14.507 -22.000  0.00  0.00    +0.154 C 
ATOM     19  C   UNL     1      33.256 -13.600 -24.413  0.00  0.00    +0.052 C 
ATOM     20  C   UNL     1      34.608 -15.016 -20.746  0.00  0.00    +0.135 C 
ATOM     21  C   UNL     1      33.832 -12.650 -23.373  0.00  0.00    +0.206 C 
ENDBRANCH  11  14
ENDBRANCH   8  11
ENDBRANCH   2   8
BRANCH   1  22
ATOM     22  C   UNL     1      34.124 -23.487 -17.523  0.00  0.00    -0.055 C 
BRANCH  22  28
ATOM     23  O   UNL     1      31.312 -22.912 -15.710  0.00  0.00    -0.273 OA
ATOM     24  O   UNL     1      37.941 -23.555 -13.825  0.00  0.00    -0.270 OA
ATOM     25  N   UNL     1      33.557 -23.183 -15.125  0.00  0.00    -0.261 N 
ATOM     26  N   UNL     1      35.715 -23.388 -14.458  0.00  0.00    -0.255 N 
ATOM     27  N   UNL     1      32.649 -24.307 -12.721  0.00  0.00    -0.262 NA
ATOM     28  C   UNL     1      34.333 -22.653 -16.264  0.00  0.00    +0.076 C 
ATOM     29  C   UNL     1      35.802 -22.721 -15.765  0.00  0.00    +0.113 C 
ATOM     30  C   UNL     1      34.405 -23.597 -14.150  0.00  0.00    +0.196 C 
ATOM     31  C   UNL     1      33.978 -24.134 -13.011  0.00  0.00    +0.092 C 
ATOM     32  C   UNL     1      32.200 -23.267 -14.951  0.00  0.00    +0.252 C 
ATOM     33  C   UNL     1      36.746 -23.730 -13.605  0.00  0.00    +0.251 C 
ATOM     34  C   UNL     1      34.983 -24.537 -12.052  0.00  0.00    +0.022 C 
ATOM     35  C   UNL     1      31.806 -23.899 -13.625  0.00  0.00    +0.210 C 
ATOM     36  C   UNL     1      36.293 -24.360 -12.311  0.00  0.00    +0.059 C 
ENDBRANCH  22  28
ENDBRANCH   1  22
TORSDOF 5
ENDMDL
MODEL 2
REMARK VINA RESULT:     -12.3      3.402     11.758
REMARK  Name = 25101874
REMARK  5 active torsions:
REMARK  status: ('A' for Active; 'I' for Inactive)
REMARK    1  A    between atoms: N_1  and  C_22
REMARK    2  A    between atoms: C_2  and  N_8
REMARK    3  A    between atoms: N_8  and  C_11
REMARK    4  A    between atoms: C_11  and  C_14
REMARK    5  A    between atoms: C_22  and  C_28
REMARK                            x       y       z     vdW  Elec       q    Type
REMARK                         _______ _______ _______ _____ _____    ______ ____
ROOT
ATOM      1  N   UNL     1      34.162 -14.575 -22.707  0.00  0.00    +0.388 N 
ATOM      2  C   UNL     1      35.382 -17.234 -22.654  0.00  0.00    -0.066 C 
ATOM      3  C   UNL     1      34.952 -15.009 -21.547  0.00  0.00    -0.079 C 
ATOM      4  C   UNL     1      34.654 -15.193 -23.947  0.00  0.00    -0.079 C 
ATOM      5  C   UNL     1      34.904 -16.530 -21.382  0.00  0.00    -0.044 C 
ATOM      6  C   UNL     1      34.595 -16.720 -23.863  0.00  0.00    -0.044 C 
ATOM      7  H   UNL     1      33.200 -14.882 -22.563  0.00  0.00    -0.080 HD
ENDROOT
BRANCH   2   8
ATOM      8  N   UNL     1      35.239 -18.681 -22.515  0.00  0.00    +0.389 N 
ATOM      9  H   UNL     1      35.584 -19.135 -23.361  0.00  0.00    -0.084 HD
ATOM     10  H   UNL     1      34.252 -18.900 -22.373  0.00  0.00    -0.084 HD
BRANCH   8  11
ATOM     11  C   UNL     1      35.994 -19.168 -21.371  0.00  0.00    -0.034 C 
BRANCH  11  14
ATOM     12  O   UNL     1      32.724 -22.384 -18.168  0.00  0.00    -0.474 OA
ATOM     13  N   UNL     1      33.827 -20.058 -20.717  0.00  0.00    -0.247 NA
ATOM     14  C   UNL     1      35.157 -20.047 -20.478  0.00  0.00    +0.037 C 
ATOM     15  C   UNL     1      35.774 -20.782 -19.479  0.00  0.00    +0.011 C 
ATOM     16  C   UNL     1      34.977 -21.584 -18.660  0.00  0.00    +0.015 C 
ATOM     17  C   UNL     1      35.598 -22.399 -17.562  0.00  0.00    +0.033 C 
ATOM     18  C   UNL     1      33.602 -21.635 -18.899  0.00  0.00    +0.154 C 
ATOM     19  C   UNL     1      34.529 -22.860 -16.580  0.00  0.00    +0.052 C 
ATOM     20  C   UNL     1      33.080 -20.852 -19.919  0.00  0.00    +0.135 C 
ATOM     21  C   UNL     1      33.332 -23.393 -17.353  0.00  0.00    +0.206 C 
ENDBRANCH  11  14
ENDBRANCH   8  11
ENDBRANCH   2   8
BRANCH   1  22
ATOM     22  C   UNL     1      34.177 -13.117 -22.820  0.00  0.00    -0.055 C 
BRANCH  22  28
ATOM     23  O   UNL     1      32.382 -13.656 -19.991  0.00  0.00    -0.273 OA
ATOM     24  O   UNL     1      32.223  -8.513 -24.620  0.00  0.00    -0.270 OA
ATOM     25  N   UNL     1      32.402 -11.925 -21.559  0.00  0.00    -0.261 N 
ATOM     26  N   UNL     1      32.315 -10.217 -23.047  0.00  0.00    -0.255 N 
ATOM     27  N   UNL     1      31.708 -10.203 -19.456  0.00  0.00    -0.262 NA
ATOM     28  C   UNL     1      32.761 -12.555 -22.845  0.00  0.00    +0.076 C 
ATOM     29  C   UNL     1      32.617 -11.397 -23.869  0.00  0.00    +0.113 C 
ATOM     30  C   UNL     1      32.184 -10.599 -21.747  0.00  0.00    +0.196 C 
ATOM     31  C   UNL     1      31.858  -9.779 -20.752  0.00  0.00    +0.092 C 
ATOM     32  C   UNL     1      32.254 -12.487 -20.317  0.00  0.00    +0.252 C 
ATOM     33  C   UNL     1      32.129  -8.912 -23.463  0.00  0.00    +0.251 C 
ATOM     34  C   UNL     1      31.652  -8.387 -21.083  0.00  0.00    +0.022 C 
ATOM     35  C   UNL     1      31.889 -11.474 -19.243  0.00  0.00    +0.210 C 
ATOM     36  C   UNL     1      31.778  -7.954 -22.352  0.00  0.00    +0.059 C 
ENDBRANCH  22  28
ENDBRANCH   1  22
TORSDOF 5
ENDMDL
MODEL 3
REMARK VINA RESULT:     -12.2      1.416      3.163
REMARK  Name = 25101874
REMARK  5 active torsions:
REMARK  status: ('A' for Active; 'I' for Inactive)
REMARK    1  A    between atoms: N_1  and  C_22
REMARK    2  A    between atoms: C_2  and  N_8
REMARK    3  A    between atoms: N_8  and  C_11
REMARK    4  A    between atoms: C_11  and  C_14
REMARK    5  A    between atoms: C_22  and  C_28
REMARK                            x       y       z     vdW  Elec       q    Type
REMARK                         _______ _______ _______ _____ _____    ______ ____
ROOT
ATOM      1  N   UNL     1      35.051 -21.948 -18.496  0.00  0.00    +0.388 N 
ATOM      2  C   UNL     1      34.896 -19.940 -20.618  0.00  0.00    -0.066 C 
ATOM      3  C   UNL     1      36.201 -21.081 -18.785  0.00  0.00    -0.079 C 
ATOM      4  C   UNL     1      33.782 -21.262 -18.780  0.00  0.00    -0.079 C 
ATOM      5  C   UNL     1      36.207 -20.641 -20.252  0.00  0.00    -0.044 C 
ATOM      6  C   UNL     1      33.706 -20.829 -20.247  0.00  0.00    -0.044 C 
ATOM      7  H   UNL     1      35.111 -22.763 -19.106  0.00  0.00    -0.080 HD
ENDROOT
BRANCH   2   8
ATOM      8  N   UNL     1      34.879 -19.613 -22.042  0.00  0.00    +0.389 N 
ATOM      9  H   UNL     1      33.946 -19.295 -22.302  0.00  0.00    -0.084 HD
ATOM     10  H   UNL     1      35.130 -20.448 -22.572  0.00  0.00    -0.084 HD
BRANCH   8  11
ATOM     11  C   UNL     1      35.842 -18.564 -22.344  0.00  0.00    -0.034 C 
BRANCH  11  14
ATOM     12  O   UNL     1      33.338 -14.193 -24.775  0.00  0.00    -0.474 OA
ATOM     13  N   UNL     1      34.659 -17.515 -24.191  0.00  0.00    -0.247 NA
ATOM     14  C   UNL     1      35.183 -17.356 -22.956  0.00  0.00    +0.037 C 
ATOM     15  C   UNL     1      35.147 -16.169 -22.243  0.00  0.00    +0.011 C 
ATOM     16  C   UNL     1      34.536 -15.061 -22.833  0.00  0.00    +0.015 C 
ATOM     17  C   UNL     1      34.472 -13.751 -22.102  0.00  0.00    +0.033 C 
ATOM     18  C   UNL     1      33.964 -15.202 -24.099  0.00  0.00    +0.154 C 
ATOM     19  C   UNL     1      34.135 -12.624 -23.069  0.00  0.00    +0.052 C 
ATOM     20  C   UNL     1      34.063 -16.431 -24.735  0.00  0.00    +0.135 C 
ATOM     21  C   UNL     1      32.990 -13.060 -23.970  0.00  0.00    +0.206 C 
ENDBRANCH  11  14
ENDBRANCH   8  11
ENDBRANCH   2   8
BRANCH   1  22
ATOM     22  C   UNL     1      35.088 -22.400 -17.105  0.00  0.00    -0.055 C 
BRANCH  22  28
ATOM     23  O   UNL     1      36.102 -24.749 -14.875  0.00  0.00    -0.273 OA
ATOM     24  O   UNL     1      29.803 -22.410 -16.536  0.00  0.00    -0.270 OA
ATOM     25  N   UNL     1      34.005 -23.891 -15.442  0.00  0.00    -0.261 N 
ATOM     26  N   UNL     1      31.922 -23.155 -15.950  0.00  0.00    -0.255 N 
ATOM     27  N   UNL     1      33.253 -24.357 -12.780  0.00  0.00    -0.262 NA
ATOM     28  C   UNL     1      34.094 -23.531 -16.871  0.00  0.00    +0.076 C 
ATOM     29  C   UNL     1      32.643 -23.109 -17.229  0.00  0.00    +0.113 C 
ATOM     30  C   UNL     1      32.754 -23.633 -14.984  0.00  0.00    +0.196 C 
ATOM     31  C   UNL     1      32.395 -23.849 -13.722  0.00  0.00    +0.092 C 
ATOM     32  C   UNL     1      34.953 -24.432 -14.612  0.00  0.00    +0.252 C 
ATOM     33  C   UNL     1      30.601 -22.834 -15.704  0.00  0.00    +0.251 C 
ATOM     34  C   UNL     1      31.031 -23.532 -13.360  0.00  0.00    +0.022 C 
ATOM     35  C   UNL     1      34.456 -24.637 -13.190  0.00  0.00    +0.210 C 
ATOM     36  C   UNL     1      30.169 -23.049 -14.274  0.00  0.00    +0.059 C 
ENDBRANCH  22  28
ENDBRANCH   1  22
TORSDOF 5
ENDMDL
MODEL 4
REMARK VINA RESULT:     -12.0      1.321      1.791
REMARK  Name = 25101874
REMARK  5 active torsions:
REMARK  status: ('A' for Active; 'I' for Inactive)
REMARK    1  A    between atoms: N_1  and  C_22
REMARK    2  A    between atoms: C_2  and  N_8
REMARK    3  A    between atoms: N_8  and  C_11
REMARK    4  A    between atoms: C_11  and  C_14
REMARK    5  A    between atoms: C_22  and  C_28
REMARK                            x       y       z     vdW  Elec       q    Type
REMARK                         _______ _______ _______ _____ _____    ______ ____
ROOT
ATOM      1  N   UNL     1      34.648 -22.067 -19.494  0.00  0.00    +0.388 N 
ATOM      2  C   UNL     1      34.858 -19.377 -20.626  0.00  0.00    -0.066 C 
ATOM      3  C   UNL     1      35.918 -21.330 -19.432  0.00  0.00    -0.079 C 
ATOM      4  C   UNL     1      33.499 -21.151 -19.455  0.00  0.00    -0.079 C 
ATOM      5  C   UNL     1      36.043 -20.345 -20.598  0.00  0.00    -0.044 C 
ATOM      6  C   UNL     1      33.543 -20.160 -20.621  0.00  0.00    -0.044 C 
ATOM      7  H   UNL     1      34.619 -22.568 -20.382  0.00  0.00    -0.080 HD
ENDROOT
BRANCH   2   8
ATOM      8  N   UNL     1      34.944 -18.508 -21.798  0.00  0.00    +0.389 N 
ATOM      9  H   UNL     1      34.006 -18.198 -22.054  0.00  0.00    -0.084 HD
ATOM     10  H   UNL     1      35.366 -19.033 -22.564  0.00  0.00    -0.084 HD
BRANCH   8  11
ATOM     11  C   UNL     1      35.772 -17.344 -21.519  0.00  0.00    -0.034 C 
BRANCH  11  14
ATOM     12  O   UNL     1      33.004 -12.556 -22.353  0.00  0.00    -0.474 OA
ATOM     13  N   UNL     1      35.160 -15.420 -22.873  0.00  0.00    -0.247 NA
ATOM     14  C   UNL     1      35.009 -16.057 -21.692  0.00  0.00    +0.037 C 
ATOM     15  C   UNL     1      34.209 -15.599 -20.657  0.00  0.00    +0.011 C 
ATOM     16  C   UNL     1      33.517 -14.400 -20.838  0.00  0.00    +0.015 C 
ATOM     17  C   UNL     1      32.638 -13.860 -19.747  0.00  0.00    +0.033 C 
ATOM     18  C   UNL     1      33.634 -13.731 -22.058  0.00  0.00    +0.154 C 
ATOM     19  C   UNL     1      32.319 -12.394 -20.005  0.00  0.00    +0.052 C 
ATOM     20  C   UNL     1      34.469 -14.269 -23.027  0.00  0.00    +0.135 C 
ATOM     21  C   UNL     1      31.933 -12.213 -21.465  0.00  0.00    +0.206 C 
ENDBRANCH  11  14
ENDBRANCH   8  11
ENDBRANCH   2   8
BRANCH   1  22
ATOM     22  C   UNL     1      34.566 -23.038 -18.404  0.00  0.00    -0.055 C 
BRANCH  22  28
ATOM     23  O   UNL     1      31.548 -22.748 -16.879  0.00  0.00    -0.273 OA
ATOM     24  O   UNL     1      37.944 -23.404 -14.317  0.00  0.00    -0.270 OA
ATOM     25  N   UNL     1      33.722 -23.017 -16.070  0.00  0.00    -0.261 N 
ATOM     26  N   UNL     1      35.798 -23.232 -15.183  0.00  0.00    -0.255 N 
ATOM     27  N   UNL     1      32.597 -24.424 -13.920  0.00  0.00    -0.262 NA
ATOM     28  C   UNL     1      34.598 -22.343 -17.048  0.00  0.00    +0.076 C 
ATOM     29  C   UNL     1      36.004 -22.423 -16.392  0.00  0.00    +0.113 C 
ATOM     30  C   UNL     1      34.471 -23.512 -15.053  0.00  0.00    +0.196 C 
ATOM     31  C   UNL     1      33.942 -24.183 -14.034  0.00  0.00    +0.092 C 
ATOM     32  C   UNL     1      32.358 -23.159 -16.064  0.00  0.00    +0.252 C 
ATOM     33  C   UNL     1      36.740 -23.636 -14.256  0.00  0.00    +0.251 C 
ATOM     34  C   UNL     1      34.849 -24.660 -13.013  0.00  0.00    +0.022 C 
ATOM     35  C   UNL     1      31.845 -23.944 -14.868  0.00  0.00    +0.210 C 
ATOM     36  C   UNL     1      36.171 -24.418 -13.098  0.00  0.00    +0.059 C 
ENDBRANCH  22  28
ENDBRANCH   1  22
TORSDOF 5
ENDMDL
MODEL 5
REMARK VINA RESULT:     -11.8      4.138     12.152
REMARK  Name = 25101874
REMARK  5 active torsions:
REMARK  status: ('A' for Active; 'I' for Inactive)
REMARK    1  A    between atoms: N_1  and  C_22
REMARK    2  A    between atoms: C_2  and  N_8
REMARK    3  A    between atoms: N_8  and  C_11
REMARK    4  A    between atoms: C_11  and  C_14
REMARK    5  A    between atoms: C_22  and  C_28
REMARK                            x       y       z     vdW  Elec       q    Type
REMARK                         _______ _______ _______ _____ _____    ______ ____
ROOT
ATOM      1  N   UNL     1      33.537 -13.034 -22.965  0.00  0.00    +0.388 N 
ATOM      2  C   UNL     1      34.734 -15.702 -23.075  0.00  0.00    -0.066 C 
ATOM      3  C   UNL     1      34.591 -13.417 -22.016  0.00  0.00    -0.079 C 
ATOM      4  C   UNL     1      33.706 -13.721 -24.254  0.00  0.00    -0.079 C 
ATOM      5  C   UNL     1      34.586 -14.927 -21.763  0.00  0.00    -0.044 C 
ATOM      6  C   UNL     1      33.671 -15.241 -24.076  0.00  0.00    -0.044 C 
ATOM      7  H   UNL     1      32.642 -13.321 -22.572  0.00  0.00    -0.080 HD
ENDROOT
BRANCH   2   8
ATOM      8  N   UNL     1      34.630 -17.138 -22.828  0.00  0.00    +0.389 N 
ATOM      9  H   UNL     1      34.247 -17.594 -23.656  0.00  0.00    -0.084 HD
ATOM     10  H   UNL     1      34.019 -17.288 -22.024  0.00  0.00    -0.084 HD
BRANCH   8  11
ATOM     11  C   UNL     1      35.936 -17.707 -22.532  0.00  0.00    -0.034 C 
BRANCH  11  14
ATOM     12  O   UNL     1      35.833 -21.670 -18.585  0.00  0.00    -0.474 OA
ATOM     13  N   UNL     1      37.017 -19.137 -20.889  0.00  0.00    -0.247 NA
ATOM     14  C   UNL     1      35.855 -18.781 -21.479  0.00  0.00    +0.037 C 
ATOM     15  C   UNL     1      34.625 -19.341 -21.174  0.00  0.00    +0.011 C 
ATOM     16  C   UNL     1      34.575 -20.339 -20.199  0.00  0.00    +0.015 C 
ATOM     17  C   UNL     1      33.266 -20.978 -19.834  0.00  0.00    +0.033 C 
ATOM     18  C   UNL     1      35.757 -20.711 -19.554  0.00  0.00    +0.154 C 
ATOM     19  C   UNL     1      33.507 -22.273 -19.070  0.00  0.00    +0.052 C 
ATOM     20  C   UNL     1      36.940 -20.097 -19.940  0.00  0.00    +0.135 C 
ATOM     21  C   UNL     1      34.574 -22.041 -18.011  0.00  0.00    +0.206 C 
ENDBRANCH  11  14
ENDBRANCH   8  11
ENDBRANCH   2   8
BRANCH   1  22
ATOM     22  C   UNL     1      33.523 -11.584 -23.157  0.00  0.00    -0.055 C 
BRANCH  22  28
ATOM     23  O   UNL     1      32.197 -12.776 -20.269  0.00  0.00    -0.273 OA
ATOM     24  O   UNL     1      31.629  -6.623 -23.386  0.00  0.00    -0.270 OA
ATOM     25  N   UNL     1      32.077 -10.705 -21.341  0.00  0.00    -0.261 N 
ATOM     26  N   UNL     1      31.863  -8.672 -22.323  0.00  0.00    -0.255 N 
ATOM     27  N   UNL     1      31.873  -9.556 -18.790  0.00  0.00    -0.262 NA
ATOM     28  C   UNL     1      32.167 -10.997 -22.785  0.00  0.00    +0.076 C 
ATOM     29  C   UNL     1      31.936  -9.612 -23.450  0.00  0.00    +0.113 C 
ATOM     30  C   UNL     1      31.925  -9.369 -21.155  0.00  0.00    +0.196 C 
ATOM     31  C   UNL     1      31.832  -8.821 -19.947  0.00  0.00    +0.092 C 
ATOM     32  C   UNL     1      32.100 -11.559 -20.269  0.00  0.00    +0.252 C 
ATOM     33  C   UNL     1      31.703  -7.301 -22.365  0.00  0.00    +0.251 C 
ATOM     34  C   UNL     1      31.674  -7.385 -19.884  0.00  0.00    +0.022 C 
ATOM     35  C   UNL     1      31.995 -10.844 -18.932  0.00  0.00    +0.210 C 
ATOM     36  C   UNL     1      31.614  -6.647 -21.009  0.00  0.00    +0.059 C 
ENDBRANCH  22  28
ENDBRANCH   1  22
TORSDOF 5
ENDMDL
MODEL 6
REMARK VINA RESULT:     -11.5      1.262      1.730
REMARK  Name = 25101874
REMARK  5 active torsions:
REMARK  status: ('A' for Active; 'I' for Inactive)
REMARK    1  A    between atoms: N_1  and  C_22
REMARK    2  A    between atoms: C_2  and  N_8
REMARK    3  A    between atoms: N_8  and  C_11
REMARK    4  A    between atoms: C_11  and  C_14
REMARK    5  A    between atoms: C_22  and  C_28
REMARK                            x       y       z     vdW  Elec       q    Type
REMARK                         _______ _______ _______ _____ _____    ______ ____
ROOT
ATOM      1  N   UNL     1      34.825 -22.105 -19.248  0.00  0.00    +0.388 N 
ATOM      2  C   UNL     1      35.645 -19.490 -20.273  0.00  0.00    -0.066 C 
ATOM      3  C   UNL     1      36.076 -21.486 -18.791  0.00  0.00    -0.079 C 
ATOM      4  C   UNL     1      33.818 -21.088 -19.581  0.00  0.00    -0.079 C 
ATOM      5  C   UNL     1      36.659 -20.561 -19.863  0.00  0.00    -0.044 C 
ATOM      6  C   UNL     1      34.325 -20.150 -20.680  0.00  0.00    -0.044 C 
ATOM      7  H   UNL     1      35.028 -22.635 -20.094  0.00  0.00    -0.080 HD
ENDROOT
BRANCH   2   8
ATOM      8  N   UNL     1      36.181 -18.678 -21.363  0.00  0.00    +0.389 N 
ATOM      9  H   UNL     1      37.158 -18.926 -21.516  0.00  0.00    -0.084 HD
ATOM     10  H   UNL     1      36.099 -17.694 -21.107  0.00  0.00    -0.084 HD
BRANCH   8  11
ATOM     11  C   UNL     1      35.434 -18.903 -22.591  0.00  0.00    -0.034 C 
BRANCH  11  14
ATOM     12  O   UNL     1      33.381 -14.235 -24.890  0.00  0.00    -0.474 OA
ATOM     13  N   UNL     1      34.385 -17.683 -24.415  0.00  0.00    -0.247 NA
ATOM     14  C   UNL     1      34.898 -17.619 -23.167  0.00  0.00    +0.037 C 
ATOM     15  C   UNL     1      34.956 -16.460 -22.408  0.00  0.00    +0.011 C 
ATOM     16  C   UNL     1      34.459 -15.280 -22.965  0.00  0.00    +0.015 C 
ATOM     17  C   UNL     1      34.501 -13.998 -22.185  0.00  0.00    +0.033 C 
ATOM     18  C   UNL     1      33.901 -15.321 -24.244  0.00  0.00    +0.154 C 
ATOM     19  C   UNL     1      34.285 -12.810 -23.112  0.00  0.00    +0.052 C 
ATOM     20  C   UNL     1      33.899 -16.530 -24.925  0.00  0.00    +0.135 C 
ATOM     21  C   UNL     1      33.122 -13.106 -24.047  0.00  0.00    +0.206 C 
ENDBRANCH  11  14
ENDBRANCH   8  11
ENDBRANCH   2   8
BRANCH   1  22
ATOM     22  C   UNL     1      34.308 -23.023 -18.232  0.00  0.00    -0.055 C 
BRANCH  22  28
ATOM     23  O   UNL     1      31.183 -22.440 -17.044  0.00  0.00    -0.273 OA
ATOM     24  O   UNL     1      37.148 -23.797 -13.807  0.00  0.00    -0.270 OA
ATOM     25  N   UNL     1      33.213 -22.945 -16.006  0.00  0.00    -0.261 N 
ATOM     26  N   UNL     1      35.142 -23.389 -14.901  0.00  0.00    -0.255 N 
ATOM     27  N   UNL     1      31.714 -24.257 -14.031  0.00  0.00    -0.262 NA
ATOM     28  C   UNL     1      34.259 -22.354 -16.864  0.00  0.00    +0.076 C 
ATOM     29  C   UNL     1      35.565 -22.589 -16.059  0.00  0.00    +0.113 C 
ATOM     30  C   UNL     1      33.788 -23.530 -14.925  0.00  0.00    +0.196 C 
ATOM     31  C   UNL     1      33.081 -24.156 -13.989  0.00  0.00    +0.092 C 
ATOM     32  C   UNL     1      31.850 -22.944 -16.155  0.00  0.00    +0.252 C 
ATOM     33  C   UNL     1      35.927 -23.902 -13.886  0.00  0.00    +0.251 C 
ATOM     34  C   UNL     1      33.814 -24.739 -12.887  0.00  0.00    +0.022 C 
ATOM     35  C   UNL     1      31.127 -23.687 -15.044  0.00  0.00    +0.210 C 
ATOM     36  C   UNL     1      35.155 -24.636 -12.818  0.00  0.00    +0.059 C 
ENDBRANCH  22  28
ENDBRANCH   1  22
TORSDOF 5
ENDMDL
MODEL 7
REMARK VINA RESULT:     -11.3      2.216     11.088
REMARK  Name = 25101874
REMARK  5 active torsions:
REMARK  status: ('A' for Active; 'I' for Inactive)
REMARK    1  A    between atoms: N_1  and  C_22
REMARK    2  A    between atoms: C_2  and  N_8
REMARK    3  A    between atoms: N_8  and  C_11
REMARK    4  A    between atoms: C_11  and  C_14
REMARK    5  A    between atoms: C_22  and  C_28
REMARK                            x       y       z     vdW  Elec       q    Type
REMARK                         _______ _______ _______ _____ _____    ______ ____
ROOT
ATOM      1  N   UNL     1      35.108 -18.617 -21.036  0.00  0.00    +0.388 N 
ATOM      2  C   UNL     1      36.265 -20.938 -19.681  0.00  0.00    -0.066 C 
ATOM      3  C   UNL     1      36.552 -18.876 -21.106  0.00  0.00    -0.079 C 
ATOM      4  C   UNL     1      34.347 -19.870 -20.926  0.00  0.00    -0.079 C 
ATOM      5  C   UNL     1      37.039 -19.630 -19.866  0.00  0.00    -0.044 C 
ATOM      6  C   UNL     1      34.760 -20.658 -19.679  0.00  0.00    -0.044 C 
ATOM      7  H   UNL     1      34.928 -18.066 -20.197  0.00  0.00    -0.080 HD
ENDROOT
BRANCH   2   8
ATOM      8  N   UNL     1      36.674 -21.597 -18.443  0.00  0.00    +0.389 N 
ATOM      9  H   UNL     1      37.166 -20.925 -17.852  0.00  0.00    -0.084 HD
ATOM     10  H   UNL     1      37.287 -22.379 -18.676  0.00  0.00    -0.084 HD
BRANCH   8  11
ATOM     11  C   UNL     1      35.519 -22.109 -17.723  0.00  0.00    -0.034 C 
BRANCH  11  14
ATOM     12  O   UNL     1      37.026 -23.635 -12.556  0.00  0.00    -0.474 OA
ATOM     13  N   UNL     1      37.177 -22.458 -15.979  0.00  0.00    -0.247 NA
ATOM     14  C   UNL     1      35.873 -22.536 -16.322  0.00  0.00    +0.037 C 
ATOM     15  C   UNL     1      34.870 -22.978 -15.474  0.00  0.00    +0.011 C 
ATOM     16  C   UNL     1      35.224 -23.374 -14.183  0.00  0.00    +0.015 C 
ATOM     17  C   UNL     1      34.175 -23.862 -13.226  0.00  0.00    +0.033 C 
ATOM     18  C   UNL     1      36.561 -23.281 -13.791  0.00  0.00    +0.154 C 
ATOM     19  C   UNL     1      34.825 -24.594 -12.060  0.00  0.00    +0.052 C 
ATOM     20  C   UNL     1      37.490 -22.835 -14.720  0.00  0.00    +0.135 C 
ATOM     21  C   UNL     1      36.011 -23.785 -11.556  0.00  0.00    +0.206 C 
ENDBRANCH  11  14
ENDBRANCH   8  11
ENDBRANCH   2   8
BRANCH   1  22
ATOM     22  C   UNL     1      34.668 -17.852 -22.203  0.00  0.00    -0.055 C 
BRANCH  22  28
ATOM     23  O   UNL     1      35.251 -16.299 -25.164  0.00  0.00    -0.273 OA
ATOM     24  O   UNL     1      32.918 -13.905 -19.103  0.00  0.00    -0.270 OA
ATOM     25  N   UNL     1      34.426 -15.555 -23.110  0.00  0.00    -0.261 N 
ATOM     26  N   UNL     1      33.656 -14.724 -21.146  0.00  0.00    -0.255 N 
ATOM     27  N   UNL     1      32.894 -13.704 -24.557  0.00  0.00    -0.262 NA
ATOM     28  C   UNL     1      35.085 -16.391 -22.087  0.00  0.00    +0.076 C 
ATOM     29  C   UNL     1      34.617 -15.762 -20.747  0.00  0.00    +0.113 C 
ATOM     30  C   UNL     1      33.619 -14.647 -22.505  0.00  0.00    +0.196 C 
ATOM     31  C   UNL     1      32.888 -13.771 -23.188  0.00  0.00    +0.092 C 
ATOM     32  C   UNL     1      34.550 -15.575 -24.475  0.00  0.00    +0.252 C 
ATOM     33  C   UNL     1      32.916 -13.889 -20.331  0.00  0.00    +0.251 C 
ATOM     34  C   UNL     1      32.067 -12.857 -22.424  0.00  0.00    +0.022 C 
ATOM     35  C   UNL     1      33.675 -14.546 -25.171  0.00  0.00    +0.210 C 
ATOM     36  C   UNL     1      32.061 -12.896 -21.078  0.00  0.00    +0.059 C 
ENDBRANCH  22  28
ENDBRANCH   1  22
TORSDOF 5
ENDMDL
MODEL 8
REMARK VINA RESULT:     -11.0      1.988     10.800
REMARK  Name = 25101874
REMARK  5 active torsions:
REMARK  status: ('A' for Active; 'I' for Inactive)
REMARK    1  A    between atoms: N_1  and  C_22
REMARK    2  A    between atoms: C_2  and  N_8
REMARK    3  A    between atoms: N_8  and  C_11
REMARK    4  A    between atoms: C_11  and  C_14
REMARK    5  A    between atoms: C_22  and  C_28
REMARK                            x       y       z     vdW  Elec       q    Type
REMARK                         _______ _______ _______ _____ _____    ______ ____
ROOT
ATOM      1  N   UNL     1      34.969 -18.706 -21.194  0.00  0.00    +0.388 N 
ATOM      2  C   UNL     1      35.330 -21.152 -19.629  0.00  0.00    -0.066 C 
ATOM      3  C   UNL     1      36.304 -19.301 -21.040  0.00  0.00    -0.079 C 
ATOM      4  C   UNL     1      33.921 -19.737 -21.171  0.00  0.00    -0.079 C 
ATOM      5  C   UNL     1      36.415 -20.076 -19.724  0.00  0.00    -0.044 C 
ATOM      6  C   UNL     1      33.952 -20.526 -19.860  0.00  0.00    -0.044 C 
ATOM      7  H   UNL     1      34.812 -18.081 -20.404  0.00  0.00    -0.080 HD
ENDROOT
BRANCH   2   8
ATOM      8  N   UNL     1      35.391 -21.817 -18.329  0.00  0.00    +0.389 N 
ATOM      9  H   UNL     1      35.106 -21.159 -17.603  0.00  0.00    -0.084 HD
ATOM     10  H   UNL     1      36.348 -22.132 -18.168  0.00  0.00    -0.084 HD
BRANCH   8  11
ATOM     11  C   UNL     1      34.508 -22.973 -18.298  0.00  0.00    -0.034 C 
BRANCH  11  14
ATOM     12  O   UNL     1      32.638 -23.928 -13.113  0.00  0.00    -0.474 OA
ATOM     13  N   UNL     1      34.830 -23.646 -15.984  0.00  0.00    -0.247 NA
ATOM     14  C   UNL     1      33.954 -23.220 -16.920  0.00  0.00    +0.037 C 
ATOM     15  C   UNL     1      32.605 -23.005 -16.682  0.00  0.00    +0.011 C 
ATOM     16  C   UNL     1      32.113 -23.246 -15.398  0.00  0.00    +0.015 C 
ATOM     17  C   UNL     1      30.660 -23.030 -15.090  0.00  0.00    +0.033 C 
ATOM     18  C   UNL     1      33.000 -23.664 -14.404  0.00  0.00    +0.154 C 
ATOM     19  C   UNL     1      30.289 -23.721 -13.784  0.00  0.00    +0.052 C 
ATOM     20  C   UNL     1      34.331 -23.860 -14.747  0.00  0.00    +0.135 C 
ATOM     21  C   UNL     1      31.352 -23.420 -12.738  0.00  0.00    +0.206 C 
ENDBRANCH  11  14
ENDBRANCH   8  11
ENDBRANCH   2   8
BRANCH   1  22
ATOM     22  C   UNL     1      34.895 -17.928 -22.430  0.00  0.00    -0.055 C 
BRANCH  22  28
ATOM     23  O   UNL     1      35.385 -16.076 -25.232  0.00  0.00    -0.273 OA
ATOM     24  O   UNL     1      32.991 -14.377 -18.964  0.00  0.00    -0.270 OA
ATOM     25  N   UNL     1      34.542 -15.568 -23.114  0.00  0.00    -0.261 N 
ATOM     26  N   UNL     1      33.749 -14.964 -21.077  0.00  0.00    -0.255 N 
ATOM     27  N   UNL     1      32.916 -13.661 -24.374  0.00  0.00    -0.262 NA
ATOM     28  C   UNL     1      35.246 -16.466 -22.178  0.00  0.00    +0.076 C 
ATOM     29  C   UNL     1      34.760 -15.989 -20.782  0.00  0.00    +0.113 C 
ATOM     30  C   UNL     1      33.699 -14.761 -22.423  0.00  0.00    +0.196 C 
ATOM     31  C   UNL     1      32.923 -13.858 -23.017  0.00  0.00    +0.092 C 
ATOM     32  C   UNL     1      34.657 -15.453 -24.475  0.00  0.00    +0.252 C 
ATOM     33  C   UNL     1      32.978 -14.244 -20.184  0.00  0.00    +0.251 C 
ATOM     34  C   UNL     1      32.068 -13.059 -22.167  0.00  0.00    +0.022 C 
ATOM     35  C   UNL     1      33.730 -14.404 -25.067  0.00  0.00    +0.210 C 
ATOM     36  C   UNL     1      32.073 -13.226 -20.831  0.00  0.00    +0.059 C 
ENDBRANCH  22  28
ENDBRANCH   1  22
TORSDOF 5
ENDMDL
MODEL 9
REMARK VINA RESULT:     -11.0      3.870     12.571
REMARK  Name = 25101874
REMARK  5 active torsions:
REMARK  status: ('A' for Active; 'I' for Inactive)
REMARK    1  A    between atoms: N_1  and  C_22
REMARK    2  A    between atoms: C_2  and  N_8
REMARK    3  A    between atoms: N_8  and  C_11
REMARK    4  A    between atoms: C_11  and  C_14
REMARK    5  A    between atoms: C_22  and  C_28
REMARK                            x       y       z     vdW  Elec       q    Type
REMARK                         _______ _______ _______ _____ _____    ______ ____
ROOT
ATOM      1  N   UNL     1      33.729 -13.374 -21.918  0.00  0.00    +0.388 N 
ATOM      2  C   UNL     1      34.737 -16.121 -21.914  0.00  0.00    -0.066 C 
ATOM      3  C   UNL     1      33.547 -14.236 -23.094  0.00  0.00    -0.079 C 
ATOM      4  C   UNL     1      33.737 -14.162 -20.677  0.00  0.00    -0.079 C 
ATOM      5  C   UNL     1      34.661 -15.281 -23.191  0.00  0.00    -0.044 C 
ATOM      6  C   UNL     1      34.858 -15.205 -20.693  0.00  0.00    -0.044 C 
ATOM      7  H   UNL     1      34.635 -12.915 -22.004  0.00  0.00    -0.080 HD
ENDROOT
BRANCH   2   8
ATOM      8  N   UNL     1      35.864 -17.048 -21.985  0.00  0.00    +0.389 N 
ATOM      9  H   UNL     1      36.331 -17.077 -21.078  0.00  0.00    -0.084 HD
ATOM     10  H   UNL     1      36.509 -16.723 -22.706  0.00  0.00    -0.084 HD
BRANCH   8  11
ATOM     11  C   UNL     1      35.412 -18.386 -22.333  0.00  0.00    -0.034 C 
BRANCH  11  14
ATOM     12  O   UNL     1      36.034 -21.857 -17.990  0.00  0.00    -0.474 OA
ATOM     13  N   UNL     1      36.740 -19.424 -20.580  0.00  0.00    -0.247 NA
ATOM     14  C   UNL     1      35.529 -19.338 -21.171  0.00  0.00    +0.037 C 
ATOM     15  C   UNL     1      34.416 -20.063 -20.774  0.00  0.00    +0.011 C 
ATOM     16  C   UNL     1      34.549 -20.943 -19.699  0.00  0.00    +0.015 C 
ATOM     17  C   UNL     1      33.374 -21.752 -19.232  0.00  0.00    +0.033 C 
ATOM     18  C   UNL     1      35.784 -21.036 -19.053  0.00  0.00    +0.154 C 
ATOM     19  C   UNL     1      33.843 -22.897 -18.343  0.00  0.00    +0.052 C 
ATOM     20  C   UNL     1      36.839 -20.274 -19.534  0.00  0.00    +0.135 C 
ATOM     21  C   UNL     1      34.864 -22.373 -17.345  0.00  0.00    +0.206 C 
ENDBRANCH  11  14
ENDBRANCH   8  11
ENDBRANCH   2   8
BRANCH   1  22
ATOM     22  C   UNL     1      32.687 -12.350 -21.867  0.00  0.00    -0.055 C 
BRANCH  22  28
ATOM     23  O   UNL     1      29.982 -10.337 -22.259  0.00  0.00    -0.273 OA
ATOM     24  O   UNL     1      36.585  -9.583 -24.192  0.00  0.00    -0.270 OA
ATOM     25  N   UNL     1      32.231 -10.115 -22.847  0.00  0.00    -0.261 N 
ATOM     26  N   UNL     1      34.383  -9.821 -23.499  0.00  0.00    -0.255 N 
ATOM     27  N   UNL     1      31.912  -7.355 -22.462  0.00  0.00    -0.262 NA
ATOM     28  C   UNL     1      32.709 -11.484 -23.122  0.00  0.00    +0.076 C 
ATOM     29  C   UNL     1      34.154 -11.266 -23.646  0.00  0.00    +0.113 C 
ATOM     30  C   UNL     1      33.236  -9.230 -23.063  0.00  0.00    +0.196 C 
ATOM     31  C   UNL     1      33.090  -7.921 -22.878  0.00  0.00    +0.092 C 
ATOM     32  C   UNL     1      30.990  -9.679 -22.461  0.00  0.00    +0.252 C 
ATOM     33  C   UNL     1      35.529  -9.105 -23.786  0.00  0.00    +0.251 C 
ATOM     34  C   UNL     1      34.239  -7.083 -23.142  0.00  0.00    +0.022 C 
ATOM     35  C   UNL     1      30.918  -8.173 -22.267  0.00  0.00    +0.210 C 
ATOM     36  C   UNL     1      35.399  -7.618 -23.567  0.00  0.00    +0.059 C 
ENDBRANCH  22  28
ENDBRANCH   1  22
TORSDOF 5
ENDMDL
