MODEL 1
REMARK VINA RESULT:     -11.4      0.000      0.000
REMARK  Name = 42627769
REMARK  10 active torsions:
REMARK  status: ('A' for Active; 'I' for Inactive)
REMARK    1  A    between atoms: C_1  and  C_3
REMARK    2  A    between atoms: C_1  and  N_6
REMARK    3  A    between atoms: C_1  and  C_22
REMARK    4  A    between atoms: C_3  and  O_4
REMARK    5  A    between atoms: N_6  and  S_8
REMARK    6  A    between atoms: S_8  and  C_11
REMARK    7  A    between atoms: C_16  and  O_17
REMARK    8  A    between atoms: O_17  and  C_18
REMARK    9  A    between atoms: C_18  and  C_19
REMARK   10  A    between atoms: C_22  and  C_24
REMARK                            x       y       z     vdW  Elec       q    Type
REMARK                         _______ _______ _______ _____ _____    ______ ____
ROOT
ATOM      1  C   UNL     1      34.757 -23.443 -15.898  0.00  0.00    +0.178 C 
ENDROOT
BRANCH   1   3
ATOM      2  O   UNL     1      36.701 -22.774 -14.594  0.00  0.00    -0.249 OA
ATOM      3  C   UNL     1      36.081 -23.641 -15.195  0.00  0.00    +0.330 C 
BRANCH   3   4
ATOM      4  O   UNL     1      36.522 -24.922 -15.300  0.00  0.00    -0.479 OA
ATOM      5  H   UNL     1      36.343 -25.418 -16.075  0.00  0.00    +0.295 HD
ENDBRANCH   3   4
ENDBRANCH   1   3
BRANCH   1   6
ATOM      6  N   UNL     1      35.007 -22.542 -17.048  0.00  0.00    -0.170 NA
ATOM      7  H   UNL     1      34.961 -21.588 -16.692  0.00  0.00    +0.149 HD
BRANCH   6   8
ATOM      8  S   UNL     1      33.993 -22.607 -18.409  0.00  0.00    +0.061 S 
ATOM      9  O   UNL     1      32.640 -22.259 -18.021  0.00  0.00    -0.153 OA
ATOM     10  O   UNL     1      34.252 -23.842 -19.126  0.00  0.00    -0.153 OA
BRANCH   8  11
ATOM     11  C   UNL     1      34.631 -21.291 -19.401  0.00  0.00    +0.122 C 
ATOM     12  C   UNL     1      36.001 -21.034 -19.420  0.00  0.00    +0.023 C 
ATOM     13  C   UNL     1      33.764 -20.508 -20.163  0.00  0.00    +0.023 C 
ATOM     14  C   UNL     1      36.505 -19.994 -20.201  0.00  0.00    +0.038 C 
ATOM     15  C   UNL     1      34.267 -19.468 -20.944  0.00  0.00    +0.038 C 
ATOM     16  C   UNL     1      35.638 -19.211 -20.964  0.00  0.00    +0.140 C 
BRANCH  16  17
ATOM     17  O   UNL     1      36.130 -18.196 -21.725  0.00  0.00    -0.461 OA
BRANCH  17  18
ATOM     18  C   UNL     1      35.366 -17.811 -22.867  0.00  0.00    +0.281 C 
BRANCH  18  19
ATOM     19  C   UNL     1      35.040 -16.388 -22.786  0.00  0.00    -0.044 C 
ATOM     20  C   UNL     1      34.772 -15.219 -22.716  0.00  0.00    -0.086 C 
ATOM     21  C   UNL     1      34.447 -13.796 -22.632  0.00  0.00    +0.090 C 
ENDBRANCH  18  19
ENDBRANCH  17  18
ENDBRANCH  16  17
ENDBRANCH   8  11
ENDBRANCH   6   8
ENDBRANCH   1   6
BRANCH   1  22
ATOM     22  C   UNL     1      33.700 -22.809 -14.969  0.00  0.00    +0.056 C 
BRANCH  22  24
ATOM     23  N   UNL     1      31.958 -25.419 -13.100  0.00  0.00    -0.312 N 
ATOM     24  C   UNL     1      32.770 -23.786 -14.366  0.00  0.00    -0.004 C 
ATOM     25  C   UNL     1      31.393 -23.953 -14.686  0.00  0.00    +0.010 C 
ATOM     26  C   UNL     1      30.908 -24.984 -13.877  0.00  0.00    +0.048 C 
ATOM     27  C   UNL     1      33.088 -24.700 -13.389  0.00  0.00    +0.058 C 
ATOM     28  C   UNL     1      30.512 -23.326 -15.588  0.00  0.00    -0.003 C 
ATOM     29  C   UNL     1      29.579 -25.420 -13.926  0.00  0.00    +0.014 C 
ATOM     30  C   UNL     1      29.180 -23.752 -15.648  0.00  0.00    -0.022 C 
ATOM     31  C   UNL     1      28.723 -24.782 -14.828  0.00  0.00    -0.003 C 
ATOM     32  C   UNL     1      28.239 -23.091 -16.600  0.00  0.00    +0.031 C 
ATOM     33  H   UNL     1      31.905 -26.141 -12.433  0.00  0.00    +0.152 HD
ENDBRANCH  22  24
ENDBRANCH   1  22
TORSDOF 10
ENDMDL
MODEL 2
REMARK VINA RESULT:     -10.5      3.246      7.711
REMARK  Name = 42627769
REMARK  10 active torsions:
REMARK  status: ('A' for Active; 'I' for Inactive)
REMARK    1  A    between atoms: C_1  and  C_3
REMARK    2  A    between atoms: C_1  and  N_6
REMARK    3  A    between atoms: C_1  and  C_22
REMARK    4  A    between atoms: C_3  and  O_4
REMARK    5  A    between atoms: N_6  and  S_8
REMARK    6  A    between atoms: S_8  and  C_11
REMARK    7  A    between atoms: C_16  and  O_17
REMARK    8  A    between atoms: O_17  and  C_18
REMARK    9  A    between atoms: C_18  and  C_19
REMARK   10  A    between atoms: C_22  and  C_24
REMARK                            x       y       z     vdW  Elec       q    Type
REMARK                         _______ _______ _______ _____ _____    ______ ____
ROOT
ATOM      1  C   UNL     1      35.869 -22.607 -15.259  0.00  0.00    +0.178 C 
ENDROOT
BRANCH   1   3
ATOM      2  O   UNL     1      37.702 -22.708 -13.659  0.00  0.00    -0.249 OA
ATOM      3  C   UNL     1      37.133 -23.163 -14.643  0.00  0.00    +0.330 C 
BRANCH   3   4
ATOM      4  O   UNL     1      37.582 -24.258 -15.311  0.00  0.00    -0.479 OA
ATOM      5  H   UNL     1      37.007 -24.982 -15.465  0.00  0.00    +0.295 HD
ENDBRANCH   3   4
ENDBRANCH   1   3
BRANCH   1   6
ATOM      6  N   UNL     1      34.862 -22.518 -14.175  0.00  0.00    -0.170 NA
ATOM      7  H   UNL     1      35.245 -21.894 -13.466  0.00  0.00    +0.149 HD
BRANCH   6   8
ATOM      8  S   UNL     1      34.360 -23.927 -13.370  0.00  0.00    +0.061 S 
ATOM      9  O   UNL     1      34.457 -23.725 -11.937  0.00  0.00    -0.153 OA
ATOM     10  O   UNL     1      34.999 -25.072 -13.991  0.00  0.00    -0.153 OA
BRANCH   8  11
ATOM     11  C   UNL     1      32.647 -23.999 -13.796  0.00  0.00    +0.122 C 
ATOM     12  C   UNL     1      31.973 -22.838 -14.174  0.00  0.00    +0.023 C 
ATOM     13  C   UNL     1      31.967 -25.216 -13.750  0.00  0.00    +0.023 C 
ATOM     14  C   UNL     1      30.620 -22.894 -14.507  0.00  0.00    +0.038 C 
ATOM     15  C   UNL     1      30.614 -25.272 -14.084  0.00  0.00    +0.038 C 
ATOM     16  C   UNL     1      29.940 -24.111 -14.463  0.00  0.00    +0.140 C 
BRANCH  16  17
ATOM     17  O   UNL     1      28.620 -24.165 -14.787  0.00  0.00    -0.461 OA
BRANCH  17  18
ATOM     18  C   UNL     1      28.295 -24.282 -16.172  0.00  0.00    +0.281 C 
BRANCH  18  19
ATOM     19  C   UNL     1      27.480 -23.141 -16.585  0.00  0.00    -0.044 C 
ATOM     20  C   UNL     1      26.810 -22.205 -16.928  0.00  0.00    -0.086 C 
ATOM     21  C   UNL     1      25.994 -21.065 -17.344  0.00  0.00    +0.090 C 
ENDBRANCH  18  19
ENDBRANCH  17  18
ENDBRANCH  16  17
ENDBRANCH   8  11
ENDBRANCH   6   8
ENDBRANCH   1   6
BRANCH   1  22
ATOM     22  C   UNL     1      35.331 -23.511 -16.387  0.00  0.00    +0.056 C 
BRANCH  22  24
ATOM     23  N   UNL     1      32.493 -22.204 -18.278  0.00  0.00    -0.312 N 
ATOM     24  C   UNL     1      34.380 -22.835 -17.293  0.00  0.00    -0.004 C 
ATOM     25  C   UNL     1      34.703 -21.900 -18.316  0.00  0.00    +0.010 C 
ATOM     26  C   UNL     1      33.501 -21.520 -18.917  0.00  0.00    +0.048 C 
ATOM     27  C   UNL     1      33.014 -23.002 -17.294  0.00  0.00    +0.058 C 
ATOM     28  C   UNL     1      35.905 -21.339 -18.789  0.00  0.00    -0.003 C 
ATOM     29  C   UNL     1      33.442 -20.604 -19.974  0.00  0.00    +0.014 C 
ATOM     30  C   UNL     1      35.862 -20.421 -19.844  0.00  0.00    -0.022 C 
ATOM     31  C   UNL     1      34.648 -20.060 -20.426  0.00  0.00    -0.003 C 
ATOM     32  C   UNL     1      37.132 -19.822 -20.350  0.00  0.00    +0.031 C 
ATOM     33  H   UNL     1      31.535 -22.131 -18.495  0.00  0.00    +0.152 HD
ENDBRANCH  22  24
ENDBRANCH   1  22
TORSDOF 10
ENDMDL
MODEL 3
REMARK VINA RESULT:     -10.2      2.042      4.326
REMARK  Name = 42627769
REMARK  10 active torsions:
REMARK  status: ('A' for Active; 'I' for Inactive)
REMARK    1  A    between atoms: C_1  and  C_3
REMARK    2  A    between atoms: C_1  and  N_6
REMARK    3  A    between atoms: C_1  and  C_22
REMARK    4  A    between atoms: C_3  and  O_4
REMARK    5  A    between atoms: N_6  and  S_8
REMARK    6  A    between atoms: S_8  and  C_11
REMARK    7  A    between atoms: C_16  and  O_17
REMARK    8  A    between atoms: O_17  and  C_18
REMARK    9  A    between atoms: C_18  and  C_19
REMARK   10  A    between atoms: C_22  and  C_24
REMARK                            x       y       z     vdW  Elec       q    Type
REMARK                         _______ _______ _______ _____ _____    ______ ____
ROOT
ATOM      1  C   UNL     1      31.875 -22.893 -16.061  0.00  0.00    +0.178 C 
ENDROOT
BRANCH   1   3
ATOM      2  O   UNL     1      29.577 -22.393 -16.692  0.00  0.00    -0.249 OA
ATOM      3  C   UNL     1      30.379 -23.104 -16.100  0.00  0.00    +0.330 C 
BRANCH   3   4
ATOM      4  O   UNL     1      30.004 -24.203 -15.392  0.00  0.00    -0.479 OA
ATOM      5  H   UNL     1      29.102 -24.453 -15.357  0.00  0.00    +0.295 HD
ENDBRANCH   3   4
ENDBRANCH   1   3
BRANCH   1   6
ATOM      6  N   UNL     1      32.300 -22.549 -17.439  0.00  0.00    -0.170 NA
ATOM      7  H   UNL     1      31.655 -23.019 -18.073  0.00  0.00    +0.149 HD
BRANCH   6   8
ATOM      8  S   UNL     1      33.870 -22.935 -17.960  0.00  0.00    +0.061 S 
ATOM      9  O   UNL     1      33.844 -24.195 -18.679  0.00  0.00    -0.153 OA
ATOM     10  O   UNL     1      34.789 -22.744 -16.854  0.00  0.00    -0.153 OA
BRANCH   8  11
ATOM     11  C   UNL     1      34.192 -21.648 -19.128  0.00  0.00    +0.122 C 
ATOM     12  C   UNL     1      33.132 -20.992 -19.752  0.00  0.00    +0.023 C 
ATOM     13  C   UNL     1      35.507 -21.291 -19.427  0.00  0.00    +0.023 C 
ATOM     14  C   UNL     1      33.386 -19.978 -20.676  0.00  0.00    +0.038 C 
ATOM     15  C   UNL     1      35.761 -20.277 -20.351  0.00  0.00    +0.038 C 
ATOM     16  C   UNL     1      34.701 -19.620 -20.974  0.00  0.00    +0.140 C 
BRANCH  16  17
ATOM     17  O   UNL     1      34.948 -18.631 -21.876  0.00  0.00    -0.461 OA
BRANCH  17  18
ATOM     18  C   UNL     1      35.874 -17.617 -21.490  0.00  0.00    +0.281 C 
BRANCH  18  19
ATOM     19  C   UNL     1      35.147 -16.427 -21.050  0.00  0.00    -0.044 C 
ATOM     20  C   UNL     1      34.548 -15.450 -20.690  0.00  0.00    -0.086 C 
ATOM     21  C   UNL     1      33.819 -14.261 -20.252  0.00  0.00    +0.090 C 
ENDBRANCH  18  19
ENDBRANCH  17  18
ENDBRANCH  16  17
ENDBRANCH   8  11
ENDBRANCH   6   8
ENDBRANCH   1   6
BRANCH   1  22
ATOM     22  C   UNL     1      32.625 -24.158 -15.592  0.00  0.00    +0.056 C 
BRANCH  22  24
ATOM     23  N   UNL     1      33.616 -23.456 -12.149  0.00  0.00    -0.312 N 
ATOM     24  C   UNL     1      33.259 -24.020 -14.266  0.00  0.00    -0.004 C 
ATOM     25  C   UNL     1      34.521 -24.547 -13.872  0.00  0.00    +0.010 C 
ATOM     26  C   UNL     1      34.720 -24.178 -12.540  0.00  0.00    +0.048 C 
ATOM     27  C   UNL     1      32.727 -23.355 -13.185  0.00  0.00    +0.058 C 
ATOM     28  C   UNL     1      35.516 -25.302 -14.523  0.00  0.00    -0.003 C 
ATOM     29  C   UNL     1      35.870 -24.529 -11.823  0.00  0.00    +0.014 C 
ATOM     30  C   UNL     1      36.671 -25.661 -13.818  0.00  0.00    -0.022 C 
ATOM     31  C   UNL     1      36.843 -25.280 -12.489  0.00  0.00    -0.003 C 
ATOM     32  C   UNL     1      37.729 -26.463 -14.501  0.00  0.00    +0.031 C 
ATOM     33  H   UNL     1      33.483 -23.068 -11.254  0.00  0.00    +0.152 HD
ENDBRANCH  22  24
ENDBRANCH   1  22
TORSDOF 10
ENDMDL
MODEL 4
REMARK VINA RESULT:     -10.1      2.004      4.230
REMARK  Name = 42627769
REMARK  10 active torsions:
REMARK  status: ('A' for Active; 'I' for Inactive)
REMARK    1  A    between atoms: C_1  and  C_3
REMARK    2  A    between atoms: C_1  and  N_6
REMARK    3  A    between atoms: C_1  and  C_22
REMARK    4  A    between atoms: C_3  and  O_4
REMARK    5  A    between atoms: N_6  and  S_8
REMARK    6  A    between atoms: S_8  and  C_11
REMARK    7  A    between atoms: C_16  and  O_17
REMARK    8  A    between atoms: O_17  and  C_18
REMARK    9  A    between atoms: C_18  and  C_19
REMARK   10  A    between atoms: C_22  and  C_24
REMARK                            x       y       z     vdW  Elec       q    Type
REMARK                         _______ _______ _______ _____ _____    ______ ____
ROOT
ATOM      1  C   UNL     1      32.108 -22.877 -16.142  0.00  0.00    +0.178 C 
ENDROOT
BRANCH   1   3
ATOM      2  O   UNL     1      29.759 -22.409 -16.582  0.00  0.00    -0.249 OA
ATOM      3  C   UNL     1      30.621 -23.153 -16.133  0.00  0.00    +0.330 C 
BRANCH   3   4
ATOM      4  O   UNL     1      30.333 -24.352 -15.561  0.00  0.00    -0.479 OA
ATOM      5  H   UNL     1      30.624 -25.146 -15.965  0.00  0.00    +0.295 HD
ENDBRANCH   3   4
ENDBRANCH   1   3
BRANCH   1   6
ATOM      6  N   UNL     1      32.472 -22.514 -17.531  0.00  0.00    -0.170 NA
ATOM      7  H   UNL     1      31.783 -22.952 -18.142  0.00  0.00    +0.149 HD
BRANCH   6   8
ATOM      8  S   UNL     1      34.002 -22.929 -18.141  0.00  0.00    +0.061 S 
ATOM      9  O   UNL     1      33.884 -24.105 -18.983  0.00  0.00    -0.153 OA
ATOM     10  O   UNL     1      34.961 -22.905 -17.052  0.00  0.00    -0.153 OA
BRANCH   8  11
ATOM     11  C   UNL     1      34.368 -21.548 -19.181  0.00  0.00    +0.122 C 
ATOM     12  C   UNL     1      35.691 -21.160 -19.385  0.00  0.00    +0.023 C 
ATOM     13  C   UNL     1      33.332 -20.844 -19.796  0.00  0.00    +0.023 C 
ATOM     14  C   UNL     1      35.980 -20.069 -20.204  0.00  0.00    +0.038 C 
ATOM     15  C   UNL     1      33.621 -19.752 -20.615  0.00  0.00    +0.038 C 
ATOM     16  C   UNL     1      34.945 -19.365 -20.819  0.00  0.00    +0.140 C 
BRANCH  16  17
ATOM     17  O   UNL     1      35.227 -18.300 -21.617  0.00  0.00    -0.461 OA
BRANCH  17  18
ATOM     18  C   UNL     1      35.307 -18.543 -23.021  0.00  0.00    +0.281 C 
BRANCH  18  19
ATOM     19  C   UNL     1      34.733 -17.413 -23.750  0.00  0.00    -0.044 C 
ATOM     20  C   UNL     1      34.263 -16.485 -24.351  0.00  0.00    -0.086 C 
ATOM     21  C   UNL     1      33.691 -15.356 -25.083  0.00  0.00    +0.090 C 
ENDBRANCH  18  19
ENDBRANCH  17  18
ENDBRANCH  16  17
ENDBRANCH   8  11
ENDBRANCH   6   8
ENDBRANCH   1   6
BRANCH   1  22
ATOM     22  C   UNL     1      32.926 -24.110 -15.702  0.00  0.00    +0.056 C 
BRANCH  22  24
ATOM     23  N   UNL     1      33.681 -23.497 -12.182  0.00  0.00    -0.312 N 
ATOM     24  C   UNL     1      33.467 -24.010 -14.331  0.00  0.00    -0.004 C 
ATOM     25  C   UNL     1      34.691 -24.564 -13.861  0.00  0.00    +0.010 C 
ATOM     26  C   UNL     1      34.800 -24.228 -12.510  0.00  0.00    +0.048 C 
ATOM     27  C   UNL     1      32.869 -23.361 -13.276  0.00  0.00    +0.058 C 
ATOM     28  C   UNL     1      35.718 -25.321 -14.457  0.00  0.00    -0.003 C 
ATOM     29  C   UNL     1      35.892 -24.611 -11.723  0.00  0.00    +0.014 C 
ATOM     30  C   UNL     1      36.816 -25.712 -13.682  0.00  0.00    -0.022 C 
ATOM     31  C   UNL     1      36.899 -25.362 -12.336  0.00  0.00    -0.003 C 
ATOM     32  C   UNL     1      37.908 -26.515 -14.307  0.00  0.00    +0.031 C 
ATOM     33  H   UNL     1      33.491 -23.127 -11.290  0.00  0.00    +0.152 HD
ENDBRANCH  22  24
ENDBRANCH   1  22
TORSDOF 10
ENDMDL
MODEL 5
REMARK VINA RESULT:      -9.8      8.003     15.084
REMARK  Name = 42627769
REMARK  10 active torsions:
REMARK  status: ('A' for Active; 'I' for Inactive)
REMARK    1  A    between atoms: C_1  and  C_3
REMARK    2  A    between atoms: C_1  and  N_6
REMARK    3  A    between atoms: C_1  and  C_22
REMARK    4  A    between atoms: C_3  and  O_4
REMARK    5  A    between atoms: N_6  and  S_8
REMARK    6  A    between atoms: S_8  and  C_11
REMARK    7  A    between atoms: C_16  and  O_17
REMARK    8  A    between atoms: O_17  and  C_18
REMARK    9  A    between atoms: C_18  and  C_19
REMARK   10  A    between atoms: C_22  and  C_24
REMARK                            x       y       z     vdW  Elec       q    Type
REMARK                         _______ _______ _______ _____ _____    ______ ____
ROOT
ATOM      1  C   UNL     1      31.787  -8.766 -20.553  0.00  0.00    +0.178 C 
ENDROOT
BRANCH   1   3
ATOM      2  O   UNL     1      32.665  -9.409 -18.375  0.00  0.00    -0.249 OA
ATOM      3  C   UNL     1      31.794  -9.500 -19.231  0.00  0.00    +0.330 C 
BRANCH   3   4
ATOM      4  O   UNL     1      30.698 -10.290 -19.085  0.00  0.00    -0.479 OA
ATOM      5  H   UNL     1      30.190 -10.247 -18.299  0.00  0.00    +0.295 HD
ENDBRANCH   3   4
ENDBRANCH   1   3
BRANCH   1   6
ATOM      6  N   UNL     1      32.654  -9.532 -21.478  0.00  0.00    -0.170 NA
ATOM      7  H   UNL     1      33.121  -8.852 -22.077  0.00  0.00    +0.149 HD
BRANCH   6   8
ATOM      8  S   UNL     1      31.971 -10.701 -22.504  0.00  0.00    +0.061 S 
ATOM      9  O   UNL     1      32.359 -10.427 -23.875  0.00  0.00    -0.153 OA
ATOM     10  O   UNL     1      30.571 -10.864 -22.160  0.00  0.00    -0.153 OA
BRANCH   8  11
ATOM     11  C   UNL     1      32.804 -12.171 -21.986  0.00  0.00    +0.122 C 
ATOM     12  C   UNL     1      32.433 -12.801 -20.798  0.00  0.00    +0.023 C 
ATOM     13  C   UNL     1      33.835 -12.700 -22.763  0.00  0.00    +0.023 C 
ATOM     14  C   UNL     1      33.092 -13.960 -20.387  0.00  0.00    +0.038 C 
ATOM     15  C   UNL     1      34.494 -13.859 -22.352  0.00  0.00    +0.038 C 
ATOM     16  C   UNL     1      34.122 -14.489 -21.165  0.00  0.00    +0.140 C 
BRANCH  16  17
ATOM     17  O   UNL     1      34.765 -15.619 -20.763  0.00  0.00    -0.461 OA
BRANCH  17  18
ATOM     18  C   UNL     1      35.245 -16.491 -21.785  0.00  0.00    +0.281 C 
BRANCH  18  19
ATOM     19  C   UNL     1      35.232 -17.871 -21.302  0.00  0.00    -0.044 C 
ATOM     20  C   UNL     1      35.223 -19.006 -20.908  0.00  0.00    -0.086 C 
ATOM     21  C   UNL     1      35.213 -20.386 -20.426  0.00  0.00    +0.090 C 
ENDBRANCH  18  19
ENDBRANCH  17  18
ENDBRANCH  16  17
ENDBRANCH   8  11
ENDBRANCH   6   8
ENDBRANCH   1   6
BRANCH   1  22
ATOM     22  C   UNL     1      32.326  -7.326 -20.417  0.00  0.00    +0.056 C 
BRANCH  22  24
ATOM     23  N   UNL     1      30.438  -4.979 -22.482  0.00  0.00    -0.312 N 
ATOM     24  C   UNL     1      31.788  -6.388 -21.423  0.00  0.00    -0.004 C 
ATOM     25  C   UNL     1      32.435  -5.964 -22.617  0.00  0.00    +0.010 C 
ATOM     26  C   UNL     1      31.567  -5.081 -23.262  0.00  0.00    +0.048 C 
ATOM     27  C   UNL     1      30.562  -5.765 -21.367  0.00  0.00    +0.058 C 
ATOM     28  C   UNL     1      33.679  -6.249 -23.213  0.00  0.00    -0.003 C 
ATOM     29  C   UNL     1      31.882  -4.466 -24.479  0.00  0.00    +0.014 C 
ATOM     30  C   UNL     1      34.008  -5.641 -24.430  0.00  0.00    -0.022 C 
ATOM     31  C   UNL     1      33.122  -4.763 -25.051  0.00  0.00    -0.003 C 
ATOM     32  C   UNL     1      35.326  -5.937 -25.067  0.00  0.00    +0.031 C 
ATOM     33  H   UNL     1      29.654  -4.422 -22.693  0.00  0.00    +0.152 HD
ENDBRANCH  22  24
ENDBRANCH   1  22
TORSDOF 10
ENDMDL
MODEL 6
REMARK VINA RESULT:      -9.8      3.546     10.049
REMARK  Name = 42627769
REMARK  10 active torsions:
REMARK  status: ('A' for Active; 'I' for Inactive)
REMARK    1  A    between atoms: C_1  and  C_3
REMARK    2  A    between atoms: C_1  and  N_6
REMARK    3  A    between atoms: C_1  and  C_22
REMARK    4  A    between atoms: C_3  and  O_4
REMARK    5  A    between atoms: N_6  and  S_8
REMARK    6  A    between atoms: S_8  and  C_11
REMARK    7  A    between atoms: C_16  and  O_17
REMARK    8  A    between atoms: O_17  and  C_18
REMARK    9  A    between atoms: C_18  and  C_19
REMARK   10  A    between atoms: C_22  and  C_24
REMARK                            x       y       z     vdW  Elec       q    Type
REMARK                         _______ _______ _______ _____ _____    ______ ____
ROOT
ATOM      1  C   UNL     1      35.306 -16.865 -23.351  0.00  0.00    +0.178 C 
ENDROOT
BRANCH   1   3
ATOM      2  O   UNL     1      33.752 -16.644 -25.212  0.00  0.00    -0.249 OA
ATOM      3  C   UNL     1      34.284 -17.341 -24.358  0.00  0.00    +0.330 C 
BRANCH   3   4
ATOM      4  O   UNL     1      34.011 -18.665 -24.214  0.00  0.00    -0.479 OA
ATOM      5  H   UNL     1      33.454 -19.099 -24.831  0.00  0.00    +0.295 HD
ENDBRANCH   3   4
ENDBRANCH   1   3
BRANCH   1   6
ATOM      6  N   UNL     1      35.043 -17.594 -22.088  0.00  0.00    -0.170 NA
ATOM      7  H   UNL     1      34.996 -16.896 -21.347  0.00  0.00    +0.149 HD
BRANCH   6   8
ATOM      8  S   UNL     1      36.125 -18.794 -21.564  0.00  0.00    +0.061 S 
ATOM      9  O   UNL     1      37.094 -18.208 -20.658  0.00  0.00    -0.153 OA
ATOM     10  O   UNL     1      36.569 -19.557 -22.715  0.00  0.00    -0.153 OA
BRANCH   8  11
ATOM     11  C   UNL     1      35.067 -19.851 -20.621  0.00  0.00    +0.122 C 
ATOM     12  C   UNL     1      35.615 -20.875 -19.849  0.00  0.00    +0.023 C 
ATOM     13  C   UNL     1      33.685 -19.663 -20.652  0.00  0.00    +0.023 C 
ATOM     14  C   UNL     1      34.781 -21.711 -19.107  0.00  0.00    +0.038 C 
ATOM     15  C   UNL     1      32.852 -20.499 -19.909  0.00  0.00    +0.038 C 
ATOM     16  C   UNL     1      33.399 -21.523 -19.137  0.00  0.00    +0.140 C 
BRANCH  16  17
ATOM     17  O   UNL     1      32.586 -22.339 -18.413  0.00  0.00    -0.461 OA
BRANCH  17  18
ATOM     18  C   UNL     1      33.161 -22.993 -17.282  0.00  0.00    +0.281 C 
BRANCH  18  19
ATOM     19  C   UNL     1      32.190 -23.033 -16.190  0.00  0.00    -0.044 C 
ATOM     20  C   UNL     1      31.395 -23.065 -15.290  0.00  0.00    -0.086 C 
ATOM     21  C   UNL     1      30.425 -23.103 -14.197  0.00  0.00    +0.090 C 
ENDBRANCH  18  19
ENDBRANCH  17  18
ENDBRANCH  16  17
ENDBRANCH   8  11
ENDBRANCH   6   8
ENDBRANCH   1   6
BRANCH   1  22
ATOM     22  C   UNL     1      35.203 -15.346 -23.098  0.00  0.00    +0.056 C 
BRANCH  22  24
ATOM     23  N   UNL     1      33.825 -15.035 -19.731  0.00  0.00    -0.312 N 
ATOM     24  C   UNL     1      34.512 -14.994 -21.842  0.00  0.00    -0.004 C 
ATOM     25  C   UNL     1      33.623 -13.900 -21.641  0.00  0.00    +0.010 C 
ATOM     26  C   UNL     1      33.208 -13.950 -20.309  0.00  0.00    +0.048 C 
ATOM     27  C   UNL     1      34.616 -15.673 -20.650  0.00  0.00    +0.058 C 
ATOM     28  C   UNL     1      33.131 -12.872 -22.468  0.00  0.00    -0.003 C 
ATOM     29  C   UNL     1      32.320 -13.017 -19.760  0.00  0.00    +0.014 C 
ATOM     30  C   UNL     1      32.243 -11.932 -21.933  0.00  0.00    -0.022 C 
ATOM     31  C   UNL     1      31.845 -12.005 -20.599  0.00  0.00    -0.003 C 
ATOM     32  C   UNL     1      31.718 -10.837 -22.802  0.00  0.00    +0.031 C 
ATOM     33  H   UNL     1      33.716 -15.313 -18.793  0.00  0.00    +0.152 HD
ENDBRANCH  22  24
ENDBRANCH   1  22
TORSDOF 10
ENDMDL
MODEL 7
REMARK VINA RESULT:      -9.5      9.288     16.073
REMARK  Name = 42627769
REMARK  10 active torsions:
REMARK  status: ('A' for Active; 'I' for Inactive)
REMARK    1  A    between atoms: C_1  and  C_3
REMARK    2  A    between atoms: C_1  and  N_6
REMARK    3  A    between atoms: C_1  and  C_22
REMARK    4  A    between atoms: C_3  and  O_4
REMARK    5  A    between atoms: N_6  and  S_8
REMARK    6  A    between atoms: S_8  and  C_11
REMARK    7  A    between atoms: C_16  and  O_17
REMARK    8  A    between atoms: O_17  and  C_18
REMARK    9  A    between atoms: C_18  and  C_19
REMARK   10  A    between atoms: C_22  and  C_24
REMARK                            x       y       z     vdW  Elec       q    Type
REMARK                         _______ _______ _______ _____ _____    ______ ____
ROOT
ATOM      1  C   UNL     1      32.324  -7.499 -21.032  0.00  0.00    +0.178 C 
ENDROOT
BRANCH   1   3
ATOM      2  O   UNL     1      32.248  -8.831 -18.995  0.00  0.00    -0.249 OA
ATOM      3  C   UNL     1      32.712  -7.889 -19.624  0.00  0.00    +0.330 C 
BRANCH   3   4
ATOM      4  O   UNL     1      33.663  -7.062 -19.114  0.00  0.00    -0.479 OA
ATOM      5  H   UNL     1      33.572  -6.722 -18.246  0.00  0.00    +0.295 HD
ENDBRANCH   3   4
ENDBRANCH   1   3
BRANCH   1   6
ATOM      6  N   UNL     1      32.938  -8.494 -21.942  0.00  0.00    -0.170 NA
ATOM      7  H   UNL     1      33.613  -7.992 -22.517  0.00  0.00    +0.149 HD
BRANCH   6   8
ATOM      8  S   UNL     1      31.958  -9.388 -23.003  0.00  0.00    +0.061 S 
ATOM      9  O   UNL     1      32.235  -8.988 -24.369  0.00  0.00    -0.153 OA
ATOM     10  O   UNL     1      30.596  -9.377 -22.502  0.00  0.00    -0.153 OA
BRANCH   8  11
ATOM     11  C   UNL     1      32.578 -11.027 -22.778  0.00  0.00    +0.122 C 
ATOM     12  C   UNL     1      32.048 -11.841 -21.777  0.00  0.00    +0.023 C 
ATOM     13  C   UNL     1      33.599 -11.506 -23.599  0.00  0.00    +0.023 C 
ATOM     14  C   UNL     1      32.539 -13.135 -21.598  0.00  0.00    +0.038 C 
ATOM     15  C   UNL     1      34.089 -12.800 -23.419  0.00  0.00    +0.038 C 
ATOM     16  C   UNL     1      33.559 -13.614 -22.419  0.00  0.00    +0.140 C 
BRANCH  16  17
ATOM     17  O   UNL     1      34.038 -14.875 -22.243  0.00  0.00    -0.461 OA
BRANCH  17  18
ATOM     18  C   UNL     1      34.920 -15.382 -23.244  0.00  0.00    +0.281 C 
BRANCH  18  19
ATOM     19  C   UNL     1      34.946 -16.842 -23.185  0.00  0.00    -0.044 C 
ATOM     20  C   UNL     1      34.965 -18.042 -23.138  0.00  0.00    -0.086 C 
ATOM     21  C   UNL     1      34.991 -19.503 -23.081  0.00  0.00    +0.090 C 
ENDBRANCH  18  19
ENDBRANCH  17  18
ENDBRANCH  16  17
ENDBRANCH   8  11
ENDBRANCH   6   8
ENDBRANCH   1   6
BRANCH   1  22
ATOM     22  C   UNL     1      32.827  -6.087 -21.400  0.00  0.00    +0.056 C 
BRANCH  22  24
ATOM     23  N   UNL     1      30.584  -4.535 -23.827  0.00  0.00    -0.312 N 
ATOM     24  C   UNL     1      32.137  -5.489 -22.561  0.00  0.00    -0.004 C 
ATOM     25  C   UNL     1      32.675  -5.311 -23.866  0.00  0.00    +0.010 C 
ATOM     26  C   UNL     1      31.680  -4.711 -24.640  0.00  0.00    +0.048 C 
ATOM     27  C   UNL     1      30.850  -5.002 -22.568  0.00  0.00    +0.058 C 
ATOM     28  C   UNL     1      33.916  -5.605 -24.465  0.00  0.00    -0.003 C 
ATOM     29  C   UNL     1      31.865  -4.388 -25.990  0.00  0.00    +0.014 C 
ATOM     30  C   UNL     1      34.115  -5.288 -25.813  0.00  0.00    -0.022 C 
ATOM     31  C   UNL     1      33.104  -4.688 -26.562  0.00  0.00    -0.003 C 
ATOM     32  C   UNL     1      35.428  -5.595 -26.454  0.00  0.00    +0.031 C 
ATOM     33  H   UNL     1      29.731  -4.131 -24.109  0.00  0.00    +0.152 HD
ENDBRANCH  22  24
ENDBRANCH   1  22
TORSDOF 10
ENDMDL
MODEL 8
REMARK VINA RESULT:      -9.5      6.608     13.572
REMARK  Name = 42627769
REMARK  10 active torsions:
REMARK  status: ('A' for Active; 'I' for Inactive)
REMARK    1  A    between atoms: C_1  and  C_3
REMARK    2  A    between atoms: C_1  and  N_6
REMARK    3  A    between atoms: C_1  and  C_22
REMARK    4  A    between atoms: C_3  and  O_4
REMARK    5  A    between atoms: N_6  and  S_8
REMARK    6  A    between atoms: S_8  and  C_11
REMARK    7  A    between atoms: C_16  and  O_17
REMARK    8  A    between atoms: O_17  and  C_18
REMARK    9  A    between atoms: C_18  and  C_19
REMARK   10  A    between atoms: C_22  and  C_24
REMARK                            x       y       z     vdW  Elec       q    Type
REMARK                         _______ _______ _______ _____ _____    ______ ____
ROOT
ATOM      1  C   UNL     1      32.786 -11.161 -22.293  0.00  0.00    +0.178 C 
ENDROOT
BRANCH   1   3
ATOM      2  O   UNL     1      32.364 -10.135 -24.461  0.00  0.00    -0.249 OA
ATOM      3  C   UNL     1      33.117 -10.337 -23.517  0.00  0.00    +0.330 C 
BRANCH   3   4
ATOM      4  O   UNL     1      34.375  -9.826 -23.457  0.00  0.00    -0.479 OA
ATOM      5  H   UNL     1      34.508  -8.938 -23.187  0.00  0.00    +0.295 HD
ENDBRANCH   3   4
ENDBRANCH   1   3
BRANCH   1   6
ATOM      6  N   UNL     1      32.455 -12.526 -22.767  0.00  0.00    -0.170 NA
ATOM      7  H   UNL     1      32.402 -13.121 -21.941  0.00  0.00    +0.149 HD
BRANCH   6   8
ATOM      8  S   UNL     1      33.481 -13.309 -23.870  0.00  0.00    +0.061 S 
ATOM      9  O   UNL     1      34.564 -12.418 -24.240  0.00  0.00    -0.153 OA
ATOM     10  O   UNL     1      32.671 -13.937 -24.897  0.00  0.00    -0.153 OA
BRANCH   8  11
ATOM     11  C   UNL     1      34.158 -14.607 -22.881  0.00  0.00    +0.122 C 
ATOM     12  C   UNL     1      34.171 -14.490 -21.492  0.00  0.00    +0.023 C 
ATOM     13  C   UNL     1      34.681 -15.748 -23.490  0.00  0.00    +0.023 C 
ATOM     14  C   UNL     1      34.708 -15.513 -20.710  0.00  0.00    +0.038 C 
ATOM     15  C   UNL     1      35.218 -16.772 -22.708  0.00  0.00    +0.038 C 
ATOM     16  C   UNL     1      35.230 -16.655 -21.318  0.00  0.00    +0.140 C 
BRANCH  16  17
ATOM     17  O   UNL     1      35.754 -17.652 -20.556  0.00  0.00    -0.461 OA
BRANCH  17  18
ATOM     18  C   UNL     1      35.792 -18.958 -21.130  0.00  0.00    +0.281 C 
BRANCH  18  19
ATOM     19  C   UNL     1      34.803 -19.813 -20.477  0.00  0.00    -0.044 C 
ATOM     20  C   UNL     1      33.993 -20.518 -19.938  0.00  0.00    -0.086 C 
ATOM     21  C   UNL     1      33.005 -21.374 -19.283  0.00  0.00    +0.090 C 
ENDBRANCH  18  19
ENDBRANCH  17  18
ENDBRANCH  16  17
ENDBRANCH   8  11
ENDBRANCH   6   8
ENDBRANCH   1   6
BRANCH   1  22
ATOM     22  C   UNL     1      31.584 -10.582 -21.516  0.00  0.00    +0.056 C 
BRANCH  22  24
ATOM     23  N   UNL     1      32.480  -7.830 -19.288  0.00  0.00    -0.312 N 
ATOM     24  C   UNL     1      31.874  -9.304 -20.834  0.00  0.00    -0.004 C 
ATOM     25  C   UNL     1      31.723  -7.999 -21.381  0.00  0.00    +0.010 C 
ATOM     26  C   UNL     1      32.110  -7.093 -20.391  0.00  0.00    +0.048 C 
ATOM     27  C   UNL     1      32.340  -9.168 -19.547  0.00  0.00    +0.058 C 
ATOM     28  C   UNL     1      31.293  -7.500 -22.626  0.00  0.00    -0.003 C 
ATOM     29  C   UNL     1      32.088  -5.707 -20.584  0.00  0.00    +0.014 C 
ATOM     30  C   UNL     1      31.266  -6.116 -22.834  0.00  0.00    -0.022 C 
ATOM     31  C   UNL     1      31.659  -5.236 -21.828  0.00  0.00    -0.003 C 
ATOM     32  C   UNL     1      30.813  -5.580 -24.152  0.00  0.00    +0.031 C 
ATOM     33  H   UNL     1      32.799  -7.451 -18.437  0.00  0.00    +0.152 HD
ENDBRANCH  22  24
ENDBRANCH   1  22
TORSDOF 10
ENDMDL
MODEL 9
REMARK VINA RESULT:      -9.2      2.660      4.721
REMARK  Name = 42627769
REMARK  10 active torsions:
REMARK  status: ('A' for Active; 'I' for Inactive)
REMARK    1  A    between atoms: C_1  and  C_3
REMARK    2  A    between atoms: C_1  and  N_6
REMARK    3  A    between atoms: C_1  and  C_22
REMARK    4  A    between atoms: C_3  and  O_4
REMARK    5  A    between atoms: N_6  and  S_8
REMARK    6  A    between atoms: S_8  and  C_11
REMARK    7  A    between atoms: C_16  and  O_17
REMARK    8  A    between atoms: O_17  and  C_18
REMARK    9  A    between atoms: C_18  and  C_19
REMARK   10  A    between atoms: C_22  and  C_24
REMARK                            x       y       z     vdW  Elec       q    Type
REMARK                         _______ _______ _______ _____ _____    ______ ____
ROOT
ATOM      1  C   UNL     1      34.353 -23.594 -14.943  0.00  0.00    +0.178 C 
ENDROOT
BRANCH   1   3
ATOM      2  O   UNL     1      32.193 -24.277 -14.052  0.00  0.00    -0.249 OA
ATOM      3  C   UNL     1      32.981 -23.387 -14.344  0.00  0.00    +0.330 C 
BRANCH   3   4
ATOM      4  O   UNL     1      32.706 -22.069 -14.153  0.00  0.00    -0.479 OA
ATOM      5  H   UNL     1      33.335 -21.419 -14.397  0.00  0.00    +0.295 HD
ENDBRANCH   3   4
ENDBRANCH   1   3
BRANCH   1   6
ATOM      6  N   UNL     1      34.413 -22.779 -16.179  0.00  0.00    -0.170 NA
ATOM      7  H   UNL     1      34.272 -21.808 -15.901  0.00  0.00    +0.149 HD
BRANCH   6   8
ATOM      8  S   UNL     1      33.328 -23.088 -17.449  0.00  0.00    +0.061 S 
ATOM      9  O   UNL     1      31.987 -22.717 -17.040  0.00  0.00    -0.153 OA
ATOM     10  O   UNL     1      33.590 -24.414 -17.975  0.00  0.00    -0.153 OA
BRANCH   8  11
ATOM     11  C   UNL     1      33.863 -21.932 -18.675  0.00  0.00    +0.122 C 
ATOM     12  C   UNL     1      35.219 -21.816 -18.979  0.00  0.00    +0.023 C 
ATOM     13  C   UNL     1      32.929 -21.133 -19.335  0.00  0.00    +0.023 C 
ATOM     14  C   UNL     1      35.642 -20.903 -19.944  0.00  0.00    +0.038 C 
ATOM     15  C   UNL     1      33.352 -20.220 -20.301  0.00  0.00    +0.038 C 
ATOM     16  C   UNL     1      34.708 -20.105 -20.606  0.00  0.00    +0.140 C 
BRANCH  16  17
ATOM     17  O   UNL     1      35.121 -19.213 -21.547  0.00  0.00    -0.461 OA
BRANCH  17  18
ATOM     18  C   UNL     1      36.065 -18.225 -21.136  0.00  0.00    +0.281 C 
BRANCH  18  19
ATOM     19  C   UNL     1      35.381 -16.954 -20.906  0.00  0.00    -0.044 C 
ATOM     20  C   UNL     1      34.821 -15.908 -20.716  0.00  0.00    -0.086 C 
ATOM     21  C   UNL     1      34.139 -14.636 -20.486  0.00  0.00    +0.090 C 
ENDBRANCH  18  19
ENDBRANCH  17  18
ENDBRANCH  16  17
ENDBRANCH   8  11
ENDBRANCH   6   8
ENDBRANCH   1   6
BRANCH   1  22
ATOM     22  C   UNL     1      34.613 -25.075 -15.291  0.00  0.00    +0.056 C 
BRANCH  22  24
ATOM     23  N   UNL     1      37.649 -26.884 -14.370  0.00  0.00    -0.312 N 
ATOM     24  C   UNL     1      35.859 -25.616 -14.710  0.00  0.00    -0.004 C 
ATOM     25  C   UNL     1      36.554 -25.109 -13.576  0.00  0.00    +0.010 C 
ATOM     26  C   UNL     1      37.673 -25.924 -13.385  0.00  0.00    +0.048 C 
ATOM     27  C   UNL     1      36.556 -26.706 -15.177  0.00  0.00    +0.058 C 
ATOM     28  C   UNL     1      36.338 -24.035 -12.692  0.00  0.00    -0.003 C 
ATOM     29  C   UNL     1      38.590 -25.716 -12.348  0.00  0.00    +0.014 C 
ATOM     30  C   UNL     1      37.247 -23.815 -11.650  0.00  0.00    -0.022 C 
ATOM     31  C   UNL     1      38.355 -24.643 -11.484  0.00  0.00    -0.003 C 
ATOM     32  C   UNL     1      37.025 -22.677 -10.710  0.00  0.00    +0.031 C 
ATOM     33  H   UNL     1      38.320 -27.596 -14.481  0.00  0.00    +0.152 HD
ENDBRANCH  22  24
ENDBRANCH   1  22
TORSDOF 10
ENDMDL
