MODEL 1
REMARK VINA RESULT:     -11.5      0.000      0.000
REMARK  Name = 16122642
REMARK  7 active torsions:
REMARK  status: ('A' for Active; 'I' for Inactive)
REMARK    1  A    between atoms: C_2  and  C_10
REMARK    2  A    between atoms: C_3  and  O_18
REMARK    3  A    between atoms: O_18  and  C_19
REMARK    4  A    between atoms: C_19  and  C_20
REMARK    5  A    between atoms: C_20  and  N_21
REMARK    6  A    between atoms: C_20  and  C_25
REMARK    7  A    between atoms: C_25  and  C_27
REMARK                            x       y       z     vdW  Elec       q    Type
REMARK                         _______ _______ _______ _____ _____    ______ ____
ROOT
ATOM      1  N   UNL     1      33.612 -15.331 -25.357  0.00  0.00    -0.239 NA
ATOM      2  C   UNL     1      33.450 -14.095 -23.293  0.00  0.00    +0.022 C 
ATOM      3  C   UNL     1      34.825 -16.059 -23.397  0.00  0.00    +0.158 C 
ATOM      4  C   UNL     1      34.310 -14.989 -22.673  0.00  0.00    +0.040 C 
ATOM      5  C   UNL     1      33.133 -14.303 -24.622  0.00  0.00    +0.099 C 
ATOM      6  C   UNL     1      34.448 -16.184 -24.724  0.00  0.00    +0.136 C 
ENDROOT
BRANCH   2  10
ATOM      7  N   UNL     1      31.577  -8.880 -21.581  0.00  0.00    -0.280 N 
ATOM      8  N   UNL     1      31.358  -9.749 -20.574  0.00  0.00    -0.173 NA
ATOM      9  C   UNL     1      32.322 -10.745 -22.374  0.00  0.00    +0.032 A 
ATOM     10  C   UNL     1      32.898 -12.969 -22.564  0.00  0.00    +0.002 C 
ATOM     11  C   UNL     1      31.812 -10.927 -21.036  0.00  0.00    +0.102 A 
ATOM     12  C   UNL     1      32.878 -11.712 -23.201  0.00  0.00    +0.003 C 
ATOM     13  C   UNL     1      32.155  -9.426 -22.690  0.00  0.00    +0.053 A 
ATOM     14  C   UNL     1      32.406 -13.201 -21.241  0.00  0.00    +0.002 C 
ATOM     15  C   UNL     1      31.845 -12.194 -20.425  0.00  0.00    +0.021 C 
ATOM     16  C   UNL     1      32.465  -8.623 -23.884  0.00  0.00    +0.051 C 
ATOM     17  H   UNL     1      31.340  -7.928 -21.521  0.00  0.00    +0.189 HD
ENDBRANCH   2  10
BRANCH   3  18
ATOM     18  O   UNL     1      35.669 -16.950 -22.822  0.00  0.00    -0.476 OA
BRANCH  18  19
ATOM     19  C   UNL     1      35.340 -17.412 -21.509  0.00  0.00    +0.184 C 
BRANCH  19  20
ATOM     20  C   UNL     1      34.950 -18.895 -21.549  0.00  0.00    -0.017 C 
BRANCH  20  21
ATOM     21  N   UNL     1      34.957 -19.336 -22.947  0.00  0.00    +0.384 N 
ATOM     22  H   UNL     1      34.000 -19.504 -23.255  0.00  0.00    -0.089 HD
ATOM     23  H   UNL     1      35.496 -20.198 -23.028  0.00  0.00    -0.089 HD
ATOM     24  H   UNL     1      35.381 -18.614 -23.530  0.00  0.00    -0.089 HD
ENDBRANCH  20  21
BRANCH  20  25
ATOM     25  C   UNL     1      35.915 -19.797 -20.751  0.00  0.00    +0.008 C 
BRANCH  25  27
ATOM     26 BR   UNL     1      33.179 -23.485 -16.629  0.00  0.00    -0.049 Br
ATOM     27  C   UNL     1      35.245 -20.700 -19.744  0.00  0.00    -0.024 C 
ATOM     28  C   UNL     1      33.869 -20.859 -19.783  0.00  0.00    -0.004 C 
ATOM     29  C   UNL     1      36.019 -21.351 -18.798  0.00  0.00    -0.004 C 
ATOM     30  C   UNL     1      33.251 -21.693 -18.851  0.00  0.00    +0.006 C 
ATOM     31  C   UNL     1      35.401 -22.184 -17.866  0.00  0.00    +0.006 C 
ATOM     32  C   UNL     1      34.017 -22.356 -17.893  0.00  0.00    +0.035 C 
ENDBRANCH  25  27
ENDBRANCH  20  25
ENDBRANCH  19  20
ENDBRANCH  18  19
ENDBRANCH   3  18
TORSDOF 7
ENDMDL
MODEL 2
REMARK VINA RESULT:     -11.2      5.760     12.228
REMARK  Name = 16122642
REMARK  7 active torsions:
REMARK  status: ('A' for Active; 'I' for Inactive)
REMARK    1  A    between atoms: C_2  and  C_10
REMARK    2  A    between atoms: C_3  and  O_18
REMARK    3  A    between atoms: O_18  and  C_19
REMARK    4  A    between atoms: C_19  and  C_20
REMARK    5  A    between atoms: C_20  and  N_21
REMARK    6  A    between atoms: C_20  and  C_25
REMARK    7  A    between atoms: C_25  and  C_27
REMARK                            x       y       z     vdW  Elec       q    Type
REMARK                         _______ _______ _______ _____ _____    ______ ____
ROOT
ATOM      1  N   UNL     1      31.479 -23.341 -14.990  0.00  0.00    -0.239 NA
ATOM      2  C   UNL     1      33.890 -23.390 -15.011  0.00  0.00    +0.022 C 
ATOM      3  C   UNL     1      32.696 -22.809 -17.010  0.00  0.00    +0.158 C 
ATOM      4  C   UNL     1      33.901 -23.020 -16.347  0.00  0.00    +0.040 C 
ATOM      5  C   UNL     1      32.669 -23.537 -14.380  0.00  0.00    +0.099 C 
ATOM      6  C   UNL     1      31.523 -22.981 -16.292  0.00  0.00    +0.136 C 
ENDROOT
BRANCH   2  10
ATOM      7  N   UNL     1      37.964 -24.410 -11.012  0.00  0.00    -0.280 N 
ATOM      8  N   UNL     1      38.581 -24.261 -12.201  0.00  0.00    -0.173 NA
ATOM      9  C   UNL     1      36.326 -24.042 -12.368  0.00  0.00    +0.032 A 
ATOM     10  C   UNL     1      35.130 -23.616 -14.292  0.00  0.00    +0.002 C 
ATOM     11  C   UNL     1      37.585 -24.029 -13.074  0.00  0.00    +0.102 A 
ATOM     12  C   UNL     1      35.059 -23.845 -12.904  0.00  0.00    +0.003 C 
ATOM     13  C   UNL     1      36.606 -24.289 -11.054  0.00  0.00    +0.053 A 
ATOM     14  C   UNL     1      36.351 -23.593 -15.037  0.00  0.00    +0.002 C 
ATOM     15  C   UNL     1      37.624 -23.798 -14.462  0.00  0.00    +0.021 C 
ATOM     16  C   UNL     1      35.772 -24.424  -9.848  0.00  0.00    +0.051 C 
ATOM     17  H   UNL     1      38.455 -24.592 -10.179  0.00  0.00    +0.189 HD
ENDBRANCH   2  10
BRANCH   3  18
ATOM     18  O   UNL     1      32.671 -22.446 -18.315  0.00  0.00    -0.476 OA
BRANCH  18  19
ATOM     19  C   UNL     1      33.929 -22.263 -18.969  0.00  0.00    +0.184 C 
BRANCH  19  20
ATOM     20  C   UNL     1      33.813 -21.184 -20.053  0.00  0.00    -0.017 C 
BRANCH  20  21
ATOM     21  N   UNL     1      32.726 -20.273 -19.683  0.00  0.00    +0.384 N 
ATOM     22  H   UNL     1      32.990 -19.317 -19.917  0.00  0.00    -0.089 HD
ATOM     23  H   UNL     1      32.552 -20.342 -18.680  0.00  0.00    -0.089 HD
ATOM     24  H   UNL     1      31.880 -20.528 -20.193  0.00  0.00    -0.089 HD
ENDBRANCH  20  21
BRANCH  20  25
ATOM     25  C   UNL     1      35.103 -20.354 -20.225  0.00  0.00    +0.008 C 
BRANCH  25  27
ATOM     26 BR   UNL     1      34.781 -15.969 -24.554  0.00  0.00    -0.049 Br
ATOM     27  C   UNL     1      35.025 -19.281 -21.283  0.00  0.00    -0.024 C 
ATOM     28  C   UNL     1      35.343 -17.974 -20.951  0.00  0.00    -0.004 C 
ATOM     29  C   UNL     1      34.636 -19.624 -22.568  0.00  0.00    -0.004 C 
ATOM     30  C   UNL     1      35.270 -16.983 -21.929  0.00  0.00    +0.006 C 
ATOM     31  C   UNL     1      34.563 -18.632 -23.546  0.00  0.00    +0.006 C 
ATOM     32  C   UNL     1      34.881 -17.312 -23.227  0.00  0.00    +0.035 C 
ENDBRANCH  25  27
ENDBRANCH  20  25
ENDBRANCH  19  20
ENDBRANCH  18  19
ENDBRANCH   3  18
TORSDOF 7
ENDMDL
MODEL 3
REMARK VINA RESULT:     -11.1      4.660     11.180
REMARK  Name = 16122642
REMARK  7 active torsions:
REMARK  status: ('A' for Active; 'I' for Inactive)
REMARK    1  A    between atoms: C_2  and  C_10
REMARK    2  A    between atoms: C_3  and  O_18
REMARK    3  A    between atoms: O_18  and  C_19
REMARK    4  A    between atoms: C_19  and  C_20
REMARK    5  A    between atoms: C_20  and  N_21
REMARK    6  A    between atoms: C_20  and  C_25
REMARK    7  A    between atoms: C_25  and  C_27
REMARK                            x       y       z     vdW  Elec       q    Type
REMARK                         _______ _______ _______ _____ _____    ______ ____
ROOT
ATOM      1  N   UNL     1      33.005 -22.046 -19.082  0.00  0.00    -0.239 NA
ATOM      2  C   UNL     1      35.034 -22.052 -17.779  0.00  0.00    +0.022 C 
ATOM      3  C   UNL     1      34.977 -20.902 -19.885  0.00  0.00    +0.158 C 
ATOM      4  C   UNL     1      35.674 -21.289 -18.745  0.00  0.00    +0.040 C 
ATOM      5  C   UNL     1      33.714 -22.403 -17.987  0.00  0.00    +0.099 C 
ATOM      6  C   UNL     1      33.656 -21.303 -20.004  0.00  0.00    +0.136 C 
ENDROOT
BRANCH   2  10
ATOM      7  N   UNL     1      36.511 -24.092 -12.555  0.00  0.00    -0.280 N 
ATOM      8  N   UNL     1      37.635 -23.672 -13.167  0.00  0.00    -0.173 NA
ATOM      9  C   UNL     1      35.791 -23.373 -14.459  0.00  0.00    +0.032 A 
ATOM     10  C   UNL     1      35.734 -22.471 -16.579  0.00  0.00    +0.002 C 
ATOM     11  C   UNL     1      37.222 -23.216 -14.363  0.00  0.00    +0.102 A 
ATOM     12  C   UNL     1      34.976 -23.027 -15.530  0.00  0.00    +0.003 C 
ATOM     13  C   UNL     1      35.370 -23.936 -13.287  0.00  0.00    +0.053 A 
ATOM     14  C   UNL     1      37.153 -22.293 -16.533  0.00  0.00    +0.002 C 
ATOM     15  C   UNL     1      37.953 -22.657 -15.428  0.00  0.00    +0.021 C 
ATOM     16  C   UNL     1      34.051 -24.341 -12.773  0.00  0.00    +0.051 C 
ATOM     17  H   UNL     1      36.512 -24.479 -11.651  0.00  0.00    +0.189 HD
ENDBRANCH   2  10
BRANCH   3  18
ATOM     18  O   UNL     1      35.572 -20.156 -20.847  0.00  0.00    -0.476 OA
BRANCH  18  19
ATOM     19  C   UNL     1      34.720 -19.412 -21.720  0.00  0.00    +0.184 C 
BRANCH  19  20
ATOM     20  C   UNL     1      35.384 -18.084 -22.107  0.00  0.00    -0.017 C 
BRANCH  20  21
ATOM     21  N   UNL     1      36.837 -18.274 -22.093  0.00  0.00    +0.384 N 
ATOM     22  H   UNL     1      37.282 -17.534 -22.635  0.00  0.00    -0.089 HD
ATOM     23  H   UNL     1      37.066 -19.179 -22.503  0.00  0.00    -0.089 HD
ATOM     24  H   UNL     1      37.175 -18.241 -21.131  0.00  0.00    -0.089 HD
ENDBRANCH  20  21
BRANCH  20  25
ATOM     25  C   UNL     1      34.974 -17.587 -23.510  0.00  0.00    +0.008 C 
BRANCH  25  27
ATOM     26 BR   UNL     1      33.287 -11.656 -23.749  0.00  0.00    -0.049 Br
ATOM     27  C   UNL     1      34.563 -16.136 -23.568  0.00  0.00    -0.024 C 
ATOM     28  C   UNL     1      34.880 -15.296 -22.512  0.00  0.00    -0.004 C 
ATOM     29  C   UNL     1      33.874 -15.671 -24.676  0.00  0.00    -0.004 C 
ATOM     30  C   UNL     1      34.499 -13.956 -22.566  0.00  0.00    +0.006 C 
ATOM     31  C   UNL     1      33.492 -14.330 -24.730  0.00  0.00    +0.006 C 
ATOM     32  C   UNL     1      33.805 -13.473 -23.676  0.00  0.00    +0.035 C 
ENDBRANCH  25  27
ENDBRANCH  20  25
ENDBRANCH  19  20
ENDBRANCH  18  19
ENDBRANCH   3  18
TORSDOF 7
ENDMDL
MODEL 4
REMARK VINA RESULT:     -11.0      3.842      9.655
REMARK  Name = 16122642
REMARK  7 active torsions:
REMARK  status: ('A' for Active; 'I' for Inactive)
REMARK    1  A    between atoms: C_2  and  C_10
REMARK    2  A    between atoms: C_3  and  O_18
REMARK    3  A    between atoms: O_18  and  C_19
REMARK    4  A    between atoms: C_19  and  C_20
REMARK    5  A    between atoms: C_20  and  N_21
REMARK    6  A    between atoms: C_20  and  C_25
REMARK    7  A    between atoms: C_25  and  C_27
REMARK                            x       y       z     vdW  Elec       q    Type
REMARK                         _______ _______ _______ _____ _____    ______ ____
ROOT
ATOM      1  N   UNL     1      34.246 -17.032 -24.882  0.00  0.00    -0.239 NA
ATOM      2  C   UNL     1      35.038 -17.513 -22.656  0.00  0.00    +0.022 C 
ATOM      3  C   UNL     1      34.593 -15.243 -23.293  0.00  0.00    +0.158 C 
ATOM      4  C   UNL     1      35.007 -16.164 -22.336  0.00  0.00    +0.040 C 
ATOM      5  C   UNL     1      34.653 -17.897 -23.926  0.00  0.00    +0.099 C 
ATOM      6  C   UNL     1      34.226 -15.724 -24.539  0.00  0.00    +0.136 C 
ENDROOT
BRANCH   2  10
ATOM      7  N   UNL     1      35.342 -21.770 -18.728  0.00  0.00    -0.280 N 
ATOM      8  N   UNL     1      36.589 -21.295 -18.920  0.00  0.00    -0.173 NA
ATOM      9  C   UNL     1      35.052 -20.215 -20.197  0.00  0.00    +0.032 A 
ATOM     10  C   UNL     1      35.465 -18.498 -21.679  0.00  0.00    +0.002 C 
ATOM     11  C   UNL     1      36.444 -20.320 -19.834  0.00  0.00    +0.102 A 
ATOM     12  C   UNL     1      34.484 -19.333 -21.108  0.00  0.00    +0.003 C 
ATOM     13  C   UNL     1      34.377 -21.156 -19.472  0.00  0.00    +0.053 A 
ATOM     14  C   UNL     1      36.856 -18.562 -21.353  0.00  0.00    +0.002 C 
ATOM     15  C   UNL     1      37.402 -19.472 -20.421  0.00  0.00    +0.021 C 
ATOM     16  C   UNL     1      32.960 -21.548 -19.389  0.00  0.00    +0.051 C 
ATOM     17  H   UNL     1      35.144 -22.501 -18.101  0.00  0.00    +0.189 HD
ENDBRANCH   2  10
BRANCH   3  18
ATOM     18  O   UNL     1      34.550 -13.918 -23.014  0.00  0.00    -0.476 OA
BRANCH  18  19
ATOM     19  C   UNL     1      34.219 -13.540 -21.676  0.00  0.00    +0.184 C 
BRANCH  19  20
ATOM     20  C   UNL     1      32.702 -13.613 -21.463  0.00  0.00    -0.017 C 
BRANCH  20  21
ATOM     21  N   UNL     1      32.407 -13.196 -20.089  0.00  0.00    +0.384 N 
ATOM     22  H   UNL     1      33.060 -13.648 -19.450  0.00  0.00    -0.089 HD
ATOM     23  H   UNL     1      31.454 -13.467 -19.848  0.00  0.00    -0.089 HD
ATOM     24  H   UNL     1      32.503 -12.183 -20.013  0.00  0.00    -0.089 HD
ENDBRANCH  20  21
BRANCH  20  25
ATOM     25  C   UNL     1      31.909 -12.703 -22.425  0.00  0.00    +0.008 C 
BRANCH  25  27
ATOM     26 BR   UNL     1      33.556  -6.758 -22.281  0.00  0.00    -0.049 Br
ATOM     27  C   UNL     1      32.312 -11.248 -22.391  0.00  0.00    -0.024 C 
ATOM     28  C   UNL     1      33.179 -10.760 -23.355  0.00  0.00    -0.004 C 
ATOM     29  C   UNL     1      31.807 -10.429 -21.395  0.00  0.00    -0.004 C 
ATOM     30  C   UNL     1      33.552  -9.416 -23.322  0.00  0.00    +0.006 C 
ATOM     31  C   UNL     1      32.179  -9.085 -21.362  0.00  0.00    +0.006 C 
ATOM     32  C   UNL     1      33.051  -8.579 -22.326  0.00  0.00    +0.035 C 
ENDBRANCH  25  27
ENDBRANCH  20  25
ENDBRANCH  19  20
ENDBRANCH  18  19
ENDBRANCH   3  18
TORSDOF 7
ENDMDL
MODEL 5
REMARK VINA RESULT:     -11.0      5.091     11.163
REMARK  Name = 16122642
REMARK  7 active torsions:
REMARK  status: ('A' for Active; 'I' for Inactive)
REMARK    1  A    between atoms: C_2  and  C_10
REMARK    2  A    between atoms: C_3  and  O_18
REMARK    3  A    between atoms: O_18  and  C_19
REMARK    4  A    between atoms: C_19  and  C_20
REMARK    5  A    between atoms: C_20  and  N_21
REMARK    6  A    between atoms: C_20  and  C_25
REMARK    7  A    between atoms: C_25  and  C_27
REMARK                            x       y       z     vdW  Elec       q    Type
REMARK                         _______ _______ _______ _____ _____    ______ ____
ROOT
ATOM      1  N   UNL     1      36.538 -22.208 -16.002  0.00  0.00    -0.239 NA
ATOM      2  C   UNL     1      34.248 -22.954 -16.114  0.00  0.00    +0.022 C 
ATOM      3  C   UNL     1      35.316 -22.099 -18.085  0.00  0.00    +0.158 C 
ATOM      4  C   UNL     1      34.193 -22.634 -17.462  0.00  0.00    +0.040 C 
ATOM      5  C   UNL     1      35.428 -22.728 -15.432  0.00  0.00    +0.099 C 
ATOM      6  C   UNL     1      36.453 -21.908 -17.317  0.00  0.00    +0.136 C 
ENDROOT
BRANCH   2  10
ATOM      7  N   UNL     1      28.920 -24.561 -14.480  0.00  0.00    -0.280 N 
ATOM      8  N   UNL     1      29.794 -25.060 -13.585  0.00  0.00    -0.173 NA
ATOM      9  C   UNL     1      30.826 -23.878 -15.228  0.00  0.00    +0.032 A 
ATOM     10  C   UNL     1      33.093 -23.515 -15.436  0.00  0.00    +0.002 C 
ATOM     11  C   UNL     1      30.999 -24.653 -14.022  0.00  0.00    +0.102 A 
ATOM     12  C   UNL     1      31.820 -23.278 -15.991  0.00  0.00    +0.003 C 
ATOM     13  C   UNL     1      29.486 -23.840 -15.491  0.00  0.00    +0.053 A 
ATOM     14  C   UNL     1      33.317 -24.274 -14.245  0.00  0.00    +0.002 C 
ATOM     15  C   UNL     1      32.284 -24.873 -13.491  0.00  0.00    +0.021 C 
ATOM     16  C   UNL     1      28.680 -23.223 -16.557  0.00  0.00    +0.051 C 
ATOM     17  H   UNL     1      27.949 -24.703 -14.410  0.00  0.00    +0.189 HD
ENDBRANCH   2  10
BRANCH   3  18
ATOM     18  O   UNL     1      35.297 -21.775 -19.401  0.00  0.00    -0.476 OA
BRANCH  18  19
ATOM     19  C   UNL     1      36.154 -20.714 -19.827  0.00  0.00    +0.184 C 
BRANCH  19  20
ATOM     20  C   UNL     1      35.435 -19.830 -20.854  0.00  0.00    -0.017 C 
BRANCH  20  21
ATOM     21  N   UNL     1      34.122 -19.466 -20.312  0.00  0.00    +0.384 N 
ATOM     22  H   UNL     1      34.211 -19.263 -19.317  0.00  0.00    -0.089 HD
ATOM     23  H   UNL     1      33.473 -20.242 -20.444  0.00  0.00    -0.089 HD
ATOM     24  H   UNL     1      33.770 -18.641 -20.798  0.00  0.00    -0.089 HD
ENDBRANCH  20  21
BRANCH  20  25
ATOM     25  C   UNL     1      36.201 -18.530 -21.179  0.00  0.00    +0.008 C 
BRANCH  25  27
ATOM     26 BR   UNL     1      33.382 -14.814 -25.218  0.00  0.00    -0.049 Br
ATOM     27  C   UNL     1      35.511 -17.622 -22.167  0.00  0.00    -0.024 C 
ATOM     28  C   UNL     1      35.098 -18.134 -23.387  0.00  0.00    -0.004 C 
ATOM     29  C   UNL     1      35.304 -16.293 -21.836  0.00  0.00    -0.004 C 
ATOM     30  C   UNL     1      34.461 -17.293 -24.300  0.00  0.00    +0.006 C 
ATOM     31  C   UNL     1      34.667 -15.453 -22.749  0.00  0.00    +0.006 C 
ATOM     32  C   UNL     1      34.245 -15.953 -23.981  0.00  0.00    +0.035 C 
ENDBRANCH  25  27
ENDBRANCH  20  25
ENDBRANCH  19  20
ENDBRANCH  18  19
ENDBRANCH   3  18
TORSDOF 7
ENDMDL
MODEL 6
REMARK VINA RESULT:     -10.9      5.791     12.411
REMARK  Name = 16122642
REMARK  7 active torsions:
REMARK  status: ('A' for Active; 'I' for Inactive)
REMARK    1  A    between atoms: C_2  and  C_10
REMARK    2  A    between atoms: C_3  and  O_18
REMARK    3  A    between atoms: O_18  and  C_19
REMARK    4  A    between atoms: C_19  and  C_20
REMARK    5  A    between atoms: C_20  and  N_21
REMARK    6  A    between atoms: C_20  and  C_25
REMARK    7  A    between atoms: C_25  and  C_27
REMARK                            x       y       z     vdW  Elec       q    Type
REMARK                         _______ _______ _______ _____ _____    ______ ____
ROOT
ATOM      1  N   UNL     1      31.565 -22.855 -15.264  0.00  0.00    -0.239 NA
ATOM      2  C   UNL     1      33.805 -23.646 -14.848  0.00  0.00    +0.022 C 
ATOM      3  C   UNL     1      33.143 -23.074 -17.082  0.00  0.00    +0.158 C 
ATOM      4  C   UNL     1      34.112 -23.530 -16.195  0.00  0.00    +0.040 C 
ATOM      5  C   UNL     1      32.534 -23.301 -14.432  0.00  0.00    +0.099 C 
ATOM      6  C   UNL     1      31.896 -22.752 -16.570  0.00  0.00    +0.136 C 
ENDROOT
BRANCH   2  10
ATOM      7  N   UNL     1      38.578 -25.647 -12.232  0.00  0.00    -0.280 N 
ATOM      8  N   UNL     1      37.638 -25.457 -11.286  0.00  0.00    -0.173 NA
ATOM      9  C   UNL     1      36.892 -24.912 -13.361  0.00  0.00    +0.032 A 
ATOM     10  C   UNL     1      34.796 -24.118 -13.898  0.00  0.00    +0.002 C 
ATOM     11  C   UNL     1      36.568 -24.996 -11.957  0.00  0.00    +0.102 A 
ATOM     12  C   UNL     1      36.064 -24.484 -14.391  0.00  0.00    +0.003 C 
ATOM     13  C   UNL     1      38.183 -25.336 -13.500  0.00  0.00    +0.053 A 
ATOM     14  C   UNL     1      34.426 -24.183 -12.518  0.00  0.00    +0.002 C 
ATOM     15  C   UNL     1      35.292 -24.623 -11.494  0.00  0.00    +0.021 C 
ATOM     16  C   UNL     1      39.083 -25.482 -14.656  0.00  0.00    +0.051 C 
ATOM     17  H   UNL     1      39.478 -25.986 -12.024  0.00  0.00    +0.189 HD
ENDBRANCH   2  10
BRANCH   3  18
ATOM     18  O   UNL     1      33.410 -22.948 -18.405  0.00  0.00    -0.476 OA
BRANCH  18  19
ATOM     19  C   UNL     1      34.623 -22.287 -18.769  0.00  0.00    +0.184 C 
BRANCH  19  20
ATOM     20  C   UNL     1      34.363 -21.284 -19.900  0.00  0.00    -0.017 C 
BRANCH  20  21
ATOM     21  N   UNL     1      33.179 -20.493 -19.552  0.00  0.00    +0.384 N 
ATOM     22  H   UNL     1      32.679 -20.948 -18.789  0.00  0.00    -0.089 HD
ATOM     23  H   UNL     1      32.566 -20.423 -20.365  0.00  0.00    -0.089 HD
ATOM     24  H   UNL     1      33.467 -19.559 -19.262  0.00  0.00    -0.089 HD
ENDBRANCH  20  21
BRANCH  20  25
ATOM     25  C   UNL     1      35.541 -20.314 -20.133  0.00  0.00    +0.008 C 
BRANCH  25  27
ATOM     26 BR   UNL     1      34.594 -16.126 -24.565  0.00  0.00    -0.049 Br
ATOM     27  C   UNL     1      35.308 -19.290 -21.218  0.00  0.00    -0.024 C 
ATOM     28  C   UNL     1      34.801 -19.699 -22.441  0.00  0.00    -0.004 C 
ATOM     29  C   UNL     1      35.608 -17.961 -20.970  0.00  0.00    -0.004 C 
ATOM     30  C   UNL     1      34.587 -18.752 -23.443  0.00  0.00    +0.006 C 
ATOM     31  C   UNL     1      35.394 -17.014 -21.971  0.00  0.00    +0.006 C 
ATOM     32  C   UNL     1      34.883 -17.409 -23.207  0.00  0.00    +0.035 C 
ENDBRANCH  25  27
ENDBRANCH  20  25
ENDBRANCH  19  20
ENDBRANCH  18  19
ENDBRANCH   3  18
TORSDOF 7
ENDMDL
MODEL 7
REMARK VINA RESULT:     -10.8      5.288     11.936
REMARK  Name = 16122642
REMARK  7 active torsions:
REMARK  status: ('A' for Active; 'I' for Inactive)
REMARK    1  A    between atoms: C_2  and  C_10
REMARK    2  A    between atoms: C_3  and  O_18
REMARK    3  A    between atoms: O_18  and  C_19
REMARK    4  A    between atoms: C_19  and  C_20
REMARK    5  A    between atoms: C_20  and  N_21
REMARK    6  A    between atoms: C_20  and  C_25
REMARK    7  A    between atoms: C_25  and  C_27
REMARK                            x       y       z     vdW  Elec       q    Type
REMARK                         _______ _______ _______ _____ _____    ______ ____
ROOT
ATOM      1  N   UNL     1      32.697 -22.781 -17.889  0.00  0.00    -0.239 NA
ATOM      2  C   UNL     1      34.520 -23.116 -16.345  0.00  0.00    +0.022 C 
ATOM      3  C   UNL     1      34.891 -21.889 -18.374  0.00  0.00    +0.158 C 
ATOM      4  C   UNL     1      35.375 -22.412 -17.180  0.00  0.00    +0.040 C 
ATOM      5  C   UNL     1      33.203 -23.273 -16.735  0.00  0.00    +0.099 C 
ATOM      6  C   UNL     1      33.556 -22.099 -18.679  0.00  0.00    +0.136 C 
ENDROOT
BRANCH   2  10
ATOM      7  N   UNL     1      37.654 -25.458 -12.065  0.00  0.00    -0.280 N 
ATOM      8  N   UNL     1      36.407 -25.250 -11.598  0.00  0.00    -0.173 NA
ATOM      9  C   UNL     1      36.635 -24.595 -13.761  0.00  0.00    +0.032 A 
ATOM     10  C   UNL     1      34.995 -23.672 -15.092  0.00  0.00    +0.002 C 
ATOM     11  C   UNL     1      35.741 -24.710 -12.633  0.00  0.00    +0.102 A 
ATOM     12  C   UNL     1      36.339 -24.089 -15.020  0.00  0.00    +0.003 C 
ATOM     13  C   UNL     1      37.847 -25.082 -13.362  0.00  0.00    +0.053 A 
ATOM     14  C   UNL     1      34.071 -23.765 -14.005  0.00  0.00    +0.002 C 
ATOM     15  C   UNL     1      34.403 -24.286 -12.735  0.00  0.00    +0.021 C 
ATOM     16  C   UNL     1      39.149 -25.237 -14.034  0.00  0.00    +0.051 C 
ATOM     17  H   UNL     1      38.368 -25.851 -11.514  0.00  0.00    +0.189 HD
ENDBRANCH   2  10
BRANCH   3  18
ATOM     18  O   UNL     1      35.700 -21.197 -19.212  0.00  0.00    -0.476 OA
BRANCH  18  19
ATOM     19  C   UNL     1      35.083 -20.521 -20.310  0.00  0.00    +0.184 C 
BRANCH  19  20
ATOM     20  C   UNL     1      35.836 -19.223 -20.627  0.00  0.00    -0.017 C 
BRANCH  20  21
ATOM     21  N   UNL     1      37.234 -19.389 -20.219  0.00  0.00    +0.384 N 
ATOM     22  H   UNL     1      37.774 -19.761 -21.000  0.00  0.00    -0.089 HD
ATOM     23  H   UNL     1      37.284 -20.037 -19.433  0.00  0.00    -0.089 HD
ATOM     24  H   UNL     1      37.617 -18.486 -19.940  0.00  0.00    -0.089 HD
ENDBRANCH  20  21
BRANCH  20  25
ATOM     25  C   UNL     1      35.809 -18.856 -22.126  0.00  0.00    +0.008 C 
BRANCH  25  27
ATOM     26 BR   UNL     1      33.816 -13.146 -23.346  0.00  0.00    -0.049 Br
ATOM     27  C   UNL     1      35.323 -17.459 -22.424  0.00  0.00    -0.024 C 
ATOM     28  C   UNL     1      35.262 -16.527 -21.399  0.00  0.00    -0.004 C 
ATOM     29  C   UNL     1      34.944 -17.135 -23.716  0.00  0.00    -0.004 C 
ATOM     30  C   UNL     1      34.811 -15.236 -21.676  0.00  0.00    +0.006 C 
ATOM     31  C   UNL     1      34.493 -15.844 -23.992  0.00  0.00    +0.006 C 
ATOM     32  C   UNL     1      34.427 -14.895 -22.972  0.00  0.00    +0.035 C 
ENDBRANCH  25  27
ENDBRANCH  20  25
ENDBRANCH  19  20
ENDBRANCH  18  19
ENDBRANCH   3  18
TORSDOF 7
ENDMDL
MODEL 8
REMARK VINA RESULT:     -10.8      3.855     10.202
REMARK  Name = 16122642
REMARK  7 active torsions:
REMARK  status: ('A' for Active; 'I' for Inactive)
REMARK    1  A    between atoms: C_2  and  C_10
REMARK    2  A    between atoms: C_3  and  O_18
REMARK    3  A    between atoms: O_18  and  C_19
REMARK    4  A    between atoms: C_19  and  C_20
REMARK    5  A    between atoms: C_20  and  N_21
REMARK    6  A    between atoms: C_20  and  C_25
REMARK    7  A    between atoms: C_25  and  C_27
REMARK                            x       y       z     vdW  Elec       q    Type
REMARK                         _______ _______ _______ _____ _____    ______ ____
ROOT
ATOM      1  N   UNL     1      37.598 -18.701 -21.176  0.00  0.00    -0.239 NA
ATOM      2  C   UNL     1      35.794 -20.011 -20.260  0.00  0.00    +0.022 C 
ATOM      3  C   UNL     1      35.405 -18.642 -22.191  0.00  0.00    +0.158 C 
ATOM      4  C   UNL     1      34.933 -19.538 -21.238  0.00  0.00    +0.040 C 
ATOM      5  C   UNL     1      37.104 -19.571 -20.268  0.00  0.00    +0.099 C 
ATOM      6  C   UNL     1      36.735 -18.258 -22.117  0.00  0.00    +0.136 C 
ENDROOT
BRANCH   2  10
ATOM      7  N   UNL     1      35.256 -23.545 -15.693  0.00  0.00    -0.280 N 
ATOM      8  N   UNL     1      34.098 -23.579 -16.379  0.00  0.00    -0.173 NA
ATOM      9  C   UNL     1      35.624 -22.195 -17.336  0.00  0.00    +0.032 A 
ATOM     10  C   UNL     1      35.330 -20.948 -19.252  0.00  0.00    +0.002 C 
ATOM     11  C   UNL     1      34.292 -22.744 -17.415  0.00  0.00    +0.102 A 
ATOM     12  C   UNL     1      36.215 -21.294 -18.212  0.00  0.00    +0.003 C 
ATOM     13  C   UNL     1      36.211 -22.728 -16.224  0.00  0.00    +0.053 A 
ATOM     14  C   UNL     1      34.002 -21.464 -19.376  0.00  0.00    +0.002 C 
ATOM     15  C   UNL     1      33.429 -22.380 -18.466  0.00  0.00    +0.021 C 
ATOM     16  C   UNL     1      37.537 -22.569 -15.603  0.00  0.00    +0.051 C 
ATOM     17  H   UNL     1      35.403 -24.070 -14.873  0.00  0.00    +0.189 HD
ENDBRANCH   2  10
BRANCH   3  18
ATOM     18  O   UNL     1      34.590 -18.160 -23.161  0.00  0.00    -0.476 OA
BRANCH  18  19
ATOM     19  C   UNL     1      34.972 -16.933 -23.787  0.00  0.00    +0.184 C 
BRANCH  19  20
ATOM     20  C   UNL     1      34.184 -15.762 -23.186  0.00  0.00    -0.017 C 
BRANCH  20  21
ATOM     21  N   UNL     1      34.998 -15.152 -22.130  0.00  0.00    +0.384 N 
ATOM     22  H   UNL     1      35.986 -15.252 -22.363  0.00  0.00    -0.089 HD
ATOM     23  H   UNL     1      34.810 -15.619 -21.243  0.00  0.00    -0.089 HD
ATOM     24  H   UNL     1      34.766 -14.162 -22.050  0.00  0.00    -0.089 HD
ENDBRANCH  20  21
BRANCH  20  25
ATOM     25  C   UNL     1      33.836 -14.670 -24.220  0.00  0.00    +0.008 C 
BRANCH  25  27
ATOM     26 BR   UNL     1      31.818  -9.373 -21.782  0.00  0.00    -0.049 Br
ATOM     27  C   UNL     1      33.342 -13.374 -23.624  0.00  0.00    -0.024 C 
ATOM     28  C   UNL     1      33.913 -12.178 -24.032  0.00  0.00    -0.004 C 
ATOM     29  C   UNL     1      32.329 -13.404 -22.681  0.00  0.00    -0.004 C 
ATOM     30  C   UNL     1      33.456 -10.981 -23.480  0.00  0.00    +0.006 C 
ATOM     31  C   UNL     1      31.872 -12.207 -22.130  0.00  0.00    +0.006 C 
ATOM     32  C   UNL     1      32.436 -10.995 -22.530  0.00  0.00    +0.035 C 
ENDBRANCH  25  27
ENDBRANCH  20  25
ENDBRANCH  19  20
ENDBRANCH  18  19
ENDBRANCH   3  18
TORSDOF 7
ENDMDL
MODEL 9
REMARK VINA RESULT:     -10.8      3.900      7.108
REMARK  Name = 16122642
REMARK  7 active torsions:
REMARK  status: ('A' for Active; 'I' for Inactive)
REMARK    1  A    between atoms: C_2  and  C_10
REMARK    2  A    between atoms: C_3  and  O_18
REMARK    3  A    between atoms: O_18  and  C_19
REMARK    4  A    between atoms: C_19  and  C_20
REMARK    5  A    between atoms: C_20  and  N_21
REMARK    6  A    between atoms: C_20  and  C_25
REMARK    7  A    between atoms: C_25  and  C_27
REMARK                            x       y       z     vdW  Elec       q    Type
REMARK                         _______ _______ _______ _____ _____    ______ ____
ROOT
ATOM      1  N   UNL     1      33.058 -21.852 -19.088  0.00  0.00    -0.239 NA
ATOM      2  C   UNL     1      34.528 -20.334 -20.251  0.00  0.00    +0.022 C 
ATOM      3  C   UNL     1      35.424 -21.816 -18.591  0.00  0.00    +0.158 C 
ATOM      4  C   UNL     1      35.614 -20.813 -19.535  0.00  0.00    +0.040 C 
ATOM      5  C   UNL     1      33.283 -20.877 -19.998  0.00  0.00    +0.099 C 
ATOM      6  C   UNL     1      34.137 -22.297 -18.407  0.00  0.00    +0.136 C 
ENDROOT
BRANCH   2  10
ATOM      7  N   UNL     1      35.072 -15.296 -23.072  0.00  0.00    -0.280 N 
ATOM      8  N   UNL     1      35.160 -16.288 -23.979  0.00  0.00    -0.173 NA
ATOM      9  C   UNL     1      34.852 -17.075 -21.870  0.00  0.00    +0.032 A 
ATOM     10  C   UNL     1      34.696 -19.288 -21.244  0.00  0.00    +0.002 C 
ATOM     11  C   UNL     1      35.027 -17.418 -23.261  0.00  0.00    +0.102 A 
ATOM     12  C   UNL     1      34.681 -17.949 -20.804  0.00  0.00    +0.003 C 
ATOM     13  C   UNL     1      34.887 -15.712 -21.786  0.00  0.00    +0.053 A 
ATOM     14  C   UNL     1      34.865 -19.679 -22.609  0.00  0.00    +0.002 C 
ATOM     15  C   UNL     1      35.037 -18.764 -23.671  0.00  0.00    +0.021 C 
ATOM     16  C   UNL     1      34.770 -14.763 -20.667  0.00  0.00    +0.051 C 
ATOM     17  H   UNL     1      35.136 -14.345 -23.318  0.00  0.00    +0.189 HD
ENDBRANCH   2  10
BRANCH   3  18
ATOM     18  O   UNL     1      36.464 -22.307 -17.873  0.00  0.00    -0.476 OA
BRANCH  18  19
ATOM     19  C   UNL     1      36.517 -21.974 -16.484  0.00  0.00    +0.184 C 
BRANCH  19  20
ATOM     20  C   UNL     1      36.116 -23.184 -15.632  0.00  0.00    -0.017 C 
BRANCH  20  21
ATOM     21  N   UNL     1      37.339 -23.848 -15.169  0.00  0.00    +0.384 N 
ATOM     22  H   UNL     1      37.468 -23.667 -14.175  0.00  0.00    -0.089 HD
ATOM     23  H   UNL     1      38.139 -23.486 -15.688  0.00  0.00    -0.089 HD
ATOM     24  H   UNL     1      37.259 -24.853 -15.325  0.00  0.00    -0.089 HD
ENDBRANCH  20  21
BRANCH  20  25
ATOM     25  C   UNL     1      35.275 -22.803 -14.395  0.00  0.00    +0.008 C 
BRANCH  25  27
ATOM     26 BR   UNL     1      29.633 -25.297 -14.248  0.00  0.00    -0.049 Br
ATOM     27  C   UNL     1      33.895 -23.414 -14.360  0.00  0.00    -0.024 C 
ATOM     28  C   UNL     1      32.912 -22.921 -15.204  0.00  0.00    -0.004 C 
ATOM     29  C   UNL     1      33.636 -24.455 -13.484  0.00  0.00    -0.004 C 
ATOM     30  C   UNL     1      31.637 -23.484 -15.170  0.00  0.00    +0.006 C 
ATOM     31  C   UNL     1      32.361 -25.018 -13.450  0.00  0.00    +0.006 C 
ATOM     32  C   UNL     1      31.361 -24.534 -14.294  0.00  0.00    +0.035 C 
ENDBRANCH  25  27
ENDBRANCH  20  25
ENDBRANCH  19  20
ENDBRANCH  18  19
ENDBRANCH   3  18
TORSDOF 7
ENDMDL
