MODEL 1
REMARK VINA RESULT:     -10.9      0.000      0.000
REMARK  Name = 24875313
REMARK  5 active torsions:
REMARK  status: ('A' for Active; 'I' for Inactive)
REMARK    1  A    between atoms: N_3  and  C_13
REMARK    2  A    between atoms: C_6  and  C_22
REMARK    3  A    between atoms: C_14  and  C_21
REMARK    4  A    between atoms: C_22  and  C_23
REMARK    5  A    between atoms: C_23  and  N_24
REMARK                            x       y       z     vdW  Elec       q    Type
REMARK                         _______ _______ _______ _____ _____    ______ ____
ROOT
ATOM      1  S   UNL     1      33.579 -19.935 -20.630  0.00  0.00    -0.056 S 
ATOM      2  O   UNL     1      33.872 -22.790 -16.947  0.00  0.00    -0.252 OA
ATOM      3  N   UNL     1      31.553 -22.496 -17.000  0.00  0.00    -0.266 N 
ATOM      4  N   UNL     1      32.888 -21.427 -18.589  0.00  0.00    -0.248 N 
ATOM      5  N   UNL     1      35.227 -21.259 -19.142  0.00  0.00    -0.223 NA
ATOM      6  C   UNL     1      35.251 -19.832 -20.996  0.00  0.00    +0.031 C 
ATOM      7  C   UNL     1      35.969 -20.599 -20.103  0.00  0.00    +0.103 C 
ATOM      8  C   UNL     1      33.955 -20.982 -19.323  0.00  0.00    +0.166 C 
ATOM      9  C   UNL     1      32.868 -22.296 -17.450  0.00  0.00    +0.310 C 
ATOM     10  H   UNL     1      30.848 -22.031 -17.507  0.00  0.00    +0.157 HD
ATOM     11  H   UNL     1      32.007 -21.104 -18.886  0.00  0.00    +0.158 HD
ENDROOT
BRANCH   3  13
ATOM     12  O   UNL     1      29.750 -24.346 -14.474  0.00  0.00    -0.452 OA
ATOM     13  C   UNL     1      31.115 -23.282 -15.908  0.00  0.00    +0.093 C 
ATOM     14  C   UNL     1      29.809 -23.562 -15.582  0.00  0.00    +0.229 C 
ATOM     15  C   UNL     1      31.911 -23.936 -14.936  0.00  0.00    +0.051 C 
ATOM     16  C   UNL     1      31.034 -24.569 -14.088  0.00  0.00    +0.125 C 
ATOM     17  C   UNL     1      31.215 -25.403 -12.891  0.00  0.00    +0.073 C 
BRANCH  14  21
ATOM     18  F   UNL     1      27.471 -23.147 -15.285  0.00  0.00    -0.163 F 
ATOM     19  F   UNL     1      28.499 -21.958 -16.781  0.00  0.00    -0.163 F 
ATOM     20  F   UNL     1      28.098 -24.063 -17.155  0.00  0.00    -0.163 F 
ATOM     21  C   UNL     1      28.516 -23.194 -16.179  0.00  0.00    +0.452 C 
ENDBRANCH  14  21
ENDBRANCH   3  13
BRANCH   6  22
ATOM     22  C   UNL     1      35.734 -18.992 -22.154  0.00  0.00    +0.056 C 
BRANCH  22  23
ATOM     23  C   UNL     1      34.943 -17.696 -22.325  0.00  0.00    +0.093 C 
BRANCH  23  24
ATOM     24  N   UNL     1      34.805 -17.354 -23.721  0.00  0.00    -0.321 N 
ATOM     25  H   UNL     1      35.150 -17.988 -24.391  0.00  0.00    +0.148 HD
ATOM     26  N   UNL     1      34.137 -15.964 -25.500  0.00  0.00    -0.234 NA
ATOM     27  N   UNL     1      32.651 -13.228 -22.763  0.00  0.00    -0.274 N 
ATOM     28  N   UNL     1      33.045 -13.870 -25.022  0.00  0.00    -0.233 NA
ATOM     29  N   UNL     1      32.052 -12.179 -20.706  0.00  0.00    -0.206 N 
ATOM     30  N   UNL     1      33.045 -14.113 -20.488  0.00  0.00    -0.193 NA
ATOM     31  N   UNL     1      32.103 -12.351 -19.376  0.00  0.00    -0.156 NA
ATOM     32  C   UNL     1      34.215 -16.185 -24.172  0.00  0.00    +0.110 C 
ATOM     33  C   UNL     1      33.736 -15.307 -23.219  0.00  0.00    +0.121 C 
ATOM     34  C   UNL     1      33.155 -14.155 -23.708  0.00  0.00    +0.115 C 
ATOM     35  C   UNL     1      33.549 -14.805 -25.851  0.00  0.00    +0.252 C 
ATOM     36  C   UNL     1      32.614 -13.230 -21.359  0.00  0.00    +0.207 C 
ATOM     37  C   UNL     1      32.713 -13.535 -19.297  0.00  0.00    +0.219 C 
ATOM     38  H   UNL     1      32.250 -12.426 -23.170  0.00  0.00    +0.156 HD
ATOM     39  H   UNL     1      31.659 -11.393 -21.151  0.00  0.00    +0.177 HD
ENDBRANCH  23  24
ENDBRANCH  22  23
ENDBRANCH   6  22
TORSDOF 5
ENDMDL
MODEL 2
REMARK VINA RESULT:     -10.8      2.625      2.974
REMARK  Name = 24875313
REMARK  5 active torsions:
REMARK  status: ('A' for Active; 'I' for Inactive)
REMARK    1  A    between atoms: N_3  and  C_13
REMARK    2  A    between atoms: C_6  and  C_22
REMARK    3  A    between atoms: C_14  and  C_21
REMARK    4  A    between atoms: C_22  and  C_23
REMARK    5  A    between atoms: C_23  and  N_24
REMARK                            x       y       z     vdW  Elec       q    Type
REMARK                         _______ _______ _______ _____ _____    ______ ____
ROOT
ATOM      1  S   UNL     1      35.753 -20.636 -19.838  0.00  0.00    -0.056 S 
ATOM      2  O   UNL     1      31.947 -22.199 -17.631  0.00  0.00    -0.252 OA
ATOM      3  N   UNL     1      33.583 -23.197 -16.292  0.00  0.00    -0.266 N 
ATOM      4  N   UNL     1      34.225 -21.877 -18.107  0.00  0.00    -0.248 N 
ATOM      5  N   UNL     1      33.168 -20.592 -19.850  0.00  0.00    -0.223 NA
ATOM      6  C   UNL     1      34.971 -19.733 -21.069  0.00  0.00    +0.031 C 
ATOM      7  C   UNL     1      33.604 -19.826 -20.914  0.00  0.00    +0.103 C 
ATOM      8  C   UNL     1      34.214 -21.069 -19.213  0.00  0.00    +0.166 C 
ATOM      9  C   UNL     1      33.125 -22.410 -17.360  0.00  0.00    +0.310 C 
ATOM     10  H   UNL     1      34.561 -23.274 -16.201  0.00  0.00    +0.157 HD
ATOM     11  H   UNL     1      35.118 -22.128 -17.777  0.00  0.00    +0.158 HD
ENDROOT
BRANCH   3  13
ATOM     12  O   UNL     1      32.270 -25.011 -13.457  0.00  0.00    -0.452 OA
ATOM     13  C   UNL     1      32.815 -23.892 -15.328  0.00  0.00    +0.093 C 
ATOM     14  C   UNL     1      33.277 -24.406 -14.139  0.00  0.00    +0.229 C 
ATOM     15  C   UNL     1      31.434 -24.203 -15.381  0.00  0.00    +0.051 C 
ATOM     16  C   UNL     1      31.153 -24.882 -14.219  0.00  0.00    +0.125 C 
ATOM     17  C   UNL     1      29.923 -25.473 -13.672  0.00  0.00    +0.073 C 
BRANCH  14  21
ATOM     18  F   UNL     1      35.280 -23.233 -13.559  0.00  0.00    -0.163 F 
ATOM     19  F   UNL     1      34.564 -24.716 -12.147  0.00  0.00    -0.163 F 
ATOM     20  F   UNL     1      35.456 -25.350 -14.027  0.00  0.00    -0.163 F 
ATOM     21  C   UNL     1      34.596 -24.424 -13.489  0.00  0.00    +0.452 C 
ENDBRANCH  14  21
ENDBRANCH   3  13
BRANCH   6  22
ATOM     22  C   UNL     1      35.778 -18.991 -22.107  0.00  0.00    +0.056 C 
BRANCH  22  23
ATOM     23  C   UNL     1      35.322 -17.547 -22.301  0.00  0.00    +0.093 C 
BRANCH  23  24
ATOM     24  N   UNL     1      35.121 -17.251 -23.700  0.00  0.00    -0.321 N 
ATOM     25  H   UNL     1      35.507 -17.865 -24.366  0.00  0.00    +0.148 HD
ATOM     26  N   UNL     1      34.289 -15.968 -25.491  0.00  0.00    -0.234 NA
ATOM     27  N   UNL     1      32.622 -13.316 -22.775  0.00  0.00    -0.274 N 
ATOM     28  N   UNL     1      33.021 -13.972 -25.029  0.00  0.00    -0.233 NA
ATOM     29  N   UNL     1      31.977 -12.279 -20.725  0.00  0.00    -0.206 N 
ATOM     30  N   UNL     1      33.147 -14.109 -20.492  0.00  0.00    -0.193 NA
ATOM     31  N   UNL     1      32.074 -12.415 -19.394  0.00  0.00    -0.156 NA
ATOM     32  C   UNL     1      34.416 -16.150 -24.160  0.00  0.00    +0.110 C 
ATOM     33  C   UNL     1      33.881 -15.299 -23.215  0.00  0.00    +0.121 C 
ATOM     34  C   UNL     1      33.186 -14.215 -23.712  0.00  0.00    +0.115 C 
ATOM     35  C   UNL     1      33.589 -14.875 -25.851  0.00  0.00    +0.252 C 
ATOM     36  C   UNL     1      32.618 -13.289 -21.371  0.00  0.00    +0.207 C 
ATOM     37  C   UNL     1      32.791 -13.537 -19.305  0.00  0.00    +0.219 C 
ATOM     38  H   UNL     1      32.140 -12.564 -23.188  0.00  0.00    +0.156 HD
ATOM     39  H   UNL     1      31.504 -11.543 -21.176  0.00  0.00    +0.177 HD
ENDBRANCH  23  24
ENDBRANCH  22  23
ENDBRANCH   6  22
TORSDOF 5
ENDMDL
MODEL 3
REMARK VINA RESULT:     -10.3      3.144      3.620
REMARK  Name = 24875313
REMARK  5 active torsions:
REMARK  status: ('A' for Active; 'I' for Inactive)
REMARK    1  A    between atoms: N_3  and  C_13
REMARK    2  A    between atoms: C_6  and  C_22
REMARK    3  A    between atoms: C_14  and  C_21
REMARK    4  A    between atoms: C_22  and  C_23
REMARK    5  A    between atoms: C_23  and  N_24
REMARK                            x       y       z     vdW  Elec       q    Type
REMARK                         _______ _______ _______ _____ _____    ______ ____
ROOT
ATOM      1  S   UNL     1      34.307 -20.762 -20.310  0.00  0.00    -0.056 S 
ATOM      2  O   UNL     1      37.310 -21.611 -16.838  0.00  0.00    -0.252 OA
ATOM      3  N   UNL     1      35.569 -23.022 -16.171  0.00  0.00    -0.266 N 
ATOM      4  N   UNL     1      35.347 -21.760 -18.121  0.00  0.00    -0.248 N 
ATOM      5  N   UNL     1      36.644 -20.167 -19.381  0.00  0.00    -0.223 NA
ATOM      6  C   UNL     1      35.252 -19.627 -21.182  0.00  0.00    +0.031 C 
ATOM      7  C   UNL     1      36.457 -19.438 -20.540  0.00  0.00    +0.103 C 
ATOM      8  C   UNL     1      35.575 -20.898 -19.162  0.00  0.00    +0.166 C 
ATOM      9  C   UNL     1      36.194 -22.089 -17.013  0.00  0.00    +0.310 C 
ATOM     10  H   UNL     1      34.669 -23.315 -16.443  0.00  0.00    +0.157 HD
ATOM     11  H   UNL     1      34.477 -22.218 -18.137  0.00  0.00    +0.158 HD
ENDROOT
BRANCH   3  13
ATOM     12  O   UNL     1      36.135 -24.486 -12.916  0.00  0.00    -0.452 OA
ATOM     13  C   UNL     1      36.073 -23.595 -14.979  0.00  0.00    +0.093 C 
ATOM     14  C   UNL     1      35.332 -23.972 -13.883  0.00  0.00    +0.229 C 
ATOM     15  C   UNL     1      37.420 -23.897 -14.664  0.00  0.00    +0.051 C 
ATOM     16  C   UNL     1      37.404 -24.437 -13.400  0.00  0.00    +0.125 C 
ATOM     17  C   UNL     1      38.458 -24.946 -12.511  0.00  0.00    +0.073 C 
BRANCH  14  21
ATOM     18  F   UNL     1      33.239 -25.123 -13.752  0.00  0.00    -0.163 F 
ATOM     19  F   UNL     1      33.607 -23.581 -12.272  0.00  0.00    -0.163 F 
ATOM     20  F   UNL     1      33.197 -23.029 -14.336  0.00  0.00    -0.163 F 
ATOM     21  C   UNL     1      33.895 -23.929 -13.570  0.00  0.00    +0.452 C 
ENDBRANCH  14  21
ENDBRANCH   3  13
BRANCH   6  22
ATOM     22  C   UNL     1      34.725 -19.003 -22.452  0.00  0.00    +0.056 C 
BRANCH  22  23
ATOM     23  C   UNL     1      35.163 -17.551 -22.633  0.00  0.00    +0.093 C 
BRANCH  23  24
ATOM     24  N   UNL     1      34.980 -17.121 -23.999  0.00  0.00    -0.321 N 
ATOM     25  H   UNL     1      35.357 -17.680 -24.717  0.00  0.00    +0.148 HD
ATOM     26  N   UNL     1      34.189 -15.659 -25.666  0.00  0.00    -0.234 NA
ATOM     27  N   UNL     1      32.562 -13.235 -22.723  0.00  0.00    -0.274 N 
ATOM     28  N   UNL     1      32.962 -13.686 -25.026  0.00  0.00    -0.233 NA
ATOM     29  N   UNL     1      31.925 -12.379 -20.589  0.00  0.00    -0.206 N 
ATOM     30  N   UNL     1      33.052 -14.249 -20.522  0.00  0.00    -0.193 NA
ATOM     31  N   UNL     1      32.009 -12.640 -19.276  0.00  0.00    -0.156 NA
ATOM     32  C   UNL     1      34.303 -15.967 -24.358  0.00  0.00    +0.110 C 
ATOM     33  C   UNL     1      33.780 -15.195 -23.339  0.00  0.00    +0.121 C 
ATOM     34  C   UNL     1      33.112 -14.055 -23.738  0.00  0.00    +0.115 C 
ATOM     35  C   UNL     1      33.516 -14.522 -25.926  0.00  0.00    +0.252 C 
ATOM     36  C   UNL     1      32.548 -13.339 -21.323  0.00  0.00    +0.207 C 
ATOM     37  C   UNL     1      32.700 -13.782 -19.289  0.00  0.00    +0.219 C 
ATOM     38  H   UNL     1      32.099 -12.436 -23.067  0.00  0.00    +0.156 HD
ATOM     39  H   UNL     1      31.471 -11.593 -20.972  0.00  0.00    +0.177 HD
ENDBRANCH  23  24
ENDBRANCH  22  23
ENDBRANCH   6  22
TORSDOF 5
ENDMDL
MODEL 4
REMARK VINA RESULT:     -10.3      5.019     11.188
REMARK  Name = 24875313
REMARK  5 active torsions:
REMARK  status: ('A' for Active; 'I' for Inactive)
REMARK    1  A    between atoms: N_3  and  C_13
REMARK    2  A    between atoms: C_6  and  C_22
REMARK    3  A    between atoms: C_14  and  C_21
REMARK    4  A    between atoms: C_22  and  C_23
REMARK    5  A    between atoms: C_23  and  N_24
REMARK                            x       y       z     vdW  Elec       q    Type
REMARK                         _______ _______ _______ _____ _____    ______ ____
ROOT
ATOM      1  S   UNL     1      34.674 -19.260 -21.871  0.00  0.00    -0.056 S 
ATOM      2  O   UNL     1      35.352 -14.704 -21.106  0.00  0.00    -0.252 OA
ATOM      3  N   UNL     1      33.622 -14.560 -22.673  0.00  0.00    -0.266 N 
ATOM      4  N   UNL     1      34.414 -16.656 -22.018  0.00  0.00    -0.248 N 
ATOM      5  N   UNL     1      36.083 -17.556 -20.532  0.00  0.00    -0.223 NA
ATOM      6  C   UNL     1      35.873 -19.870 -20.807  0.00  0.00    +0.031 C 
ATOM      7  C   UNL     1      36.517 -18.821 -20.185  0.00  0.00    +0.103 C 
ATOM      8  C   UNL     1      35.115 -17.666 -21.414  0.00  0.00    +0.166 C 
ATOM      9  C   UNL     1      34.542 -15.238 -21.858  0.00  0.00    +0.310 C 
ATOM     10  H   UNL     1      33.034 -15.127 -23.224  0.00  0.00    +0.157 HD
ATOM     11  H   UNL     1      33.722 -16.947 -22.655  0.00  0.00    +0.158 HD
ENDROOT
BRANCH   3  13
ATOM     12  O   UNL     1      32.736 -11.071 -22.371  0.00  0.00    -0.452 OA
ATOM     13  C   UNL     1      33.434 -13.164 -22.800  0.00  0.00    +0.093 C 
ATOM     14  C   UNL     1      32.707 -12.363 -21.951  0.00  0.00    +0.229 C 
ATOM     15  C   UNL     1      33.941 -12.309 -23.808  0.00  0.00    +0.051 C 
ATOM     16  C   UNL     1      33.489 -11.047 -23.501  0.00  0.00    +0.125 C 
ATOM     17  C   UNL     1      33.659  -9.734 -24.140  0.00  0.00    +0.073 C 
BRANCH  14  21
ATOM     18  F   UNL     1      31.577 -13.939 -20.549  0.00  0.00    -0.163 F 
ATOM     19  F   UNL     1      32.593 -12.296 -19.562  0.00  0.00    -0.163 F 
ATOM     20  F   UNL     1      30.755 -11.929 -20.666  0.00  0.00    -0.163 F 
ATOM     21  C   UNL     1      31.937 -12.623 -20.725  0.00  0.00    +0.452 C 
ENDBRANCH  14  21
ENDBRANCH   3  13
BRANCH   6  22
ATOM     22  C   UNL     1      36.090 -21.358 -20.666  0.00  0.00    +0.056 C 
BRANCH  22  23
ATOM     23  C   UNL     1      35.755 -21.882 -19.271  0.00  0.00    +0.093 C 
BRANCH  23  24
ATOM     24  N   UNL     1      34.327 -21.931 -19.065  0.00  0.00    -0.321 N 
ATOM     25  H   UNL     1      33.741 -21.616 -19.792  0.00  0.00    +0.148 HD
ATOM     26  N   UNL     1      32.386 -22.398 -17.817  0.00  0.00    -0.234 NA
ATOM     27  N   UNL     1      34.758 -23.748 -14.696  0.00  0.00    -0.274 N 
ATOM     28  N   UNL     1      32.597 -23.320 -15.600  0.00  0.00    -0.233 NA
ATOM     29  N   UNL     1      36.668 -24.337 -13.392  0.00  0.00    -0.206 N 
ATOM     30  N   UNL     1      37.127 -23.529 -15.370  0.00  0.00    -0.193 NA
ATOM     31  N   UNL     1      38.009 -24.357 -13.429  0.00  0.00    -0.156 NA
ATOM     32  C   UNL     1      33.732 -22.396 -17.904  0.00  0.00    +0.110 C 
ATOM     33  C   UNL     1      34.567 -22.834 -16.895  0.00  0.00    +0.121 C 
ATOM     34  C   UNL     1      33.937 -23.290 -15.755  0.00  0.00    +0.115 C 
ATOM     35  C   UNL     1      31.892 -22.866 -16.654  0.00  0.00    +0.252 C 
ATOM     36  C   UNL     1      36.151 -23.844 -14.549  0.00  0.00    +0.207 C 
ATOM     37  C   UNL     1      38.236 -23.859 -14.646  0.00  0.00    +0.219 C 
ATOM     38  H   UNL     1      34.253 -24.060 -13.910  0.00  0.00    +0.156 HD
ATOM     39  H   UNL     1      36.127 -24.640 -12.627  0.00  0.00    +0.177 HD
ENDBRANCH  23  24
ENDBRANCH  22  23
ENDBRANCH   6  22
TORSDOF 5
ENDMDL
MODEL 5
REMARK VINA RESULT:     -10.3      4.355      4.885
REMARK  Name = 24875313
REMARK  5 active torsions:
REMARK  status: ('A' for Active; 'I' for Inactive)
REMARK    1  A    between atoms: N_3  and  C_13
REMARK    2  A    between atoms: C_6  and  C_22
REMARK    3  A    between atoms: C_14  and  C_21
REMARK    4  A    between atoms: C_22  and  C_23
REMARK    5  A    between atoms: C_23  and  N_24
REMARK                            x       y       z     vdW  Elec       q    Type
REMARK                         _______ _______ _______ _____ _____    ______ ____
ROOT
ATOM      1  S   UNL     1      37.235 -19.774 -19.786  0.00  0.00    -0.056 S 
ATOM      2  O   UNL     1      34.892 -22.605 -16.906  0.00  0.00    -0.252 OA
ATOM      3  N   UNL     1      36.919 -22.497 -15.746  0.00  0.00    -0.266 N 
ATOM      4  N   UNL     1      36.670 -21.317 -17.744  0.00  0.00    -0.248 N 
ATOM      5  N   UNL     1      34.969 -20.961 -19.414  0.00  0.00    -0.223 NA
ATOM      6  C   UNL     1      36.006 -19.544 -20.960  0.00  0.00    +0.031 C 
ATOM      7  C   UNL     1      34.879 -20.248 -20.594  0.00  0.00    +0.103 C 
ATOM      8  C   UNL     1      36.167 -20.786 -18.903  0.00  0.00    +0.166 C 
ATOM      9  C   UNL     1      36.041 -22.190 -16.798  0.00  0.00    +0.310 C 
ATOM     10  H   UNL     1      37.814 -22.088 -15.796  0.00  0.00    +0.157 HD
ATOM     11  H   UNL     1      37.596 -21.064 -17.532  0.00  0.00    +0.158 HD
ENDROOT
BRANCH   3  13
ATOM     12  O   UNL     1      36.978 -24.887 -13.037  0.00  0.00    -0.452 OA
ATOM     13  C   UNL     1      36.678 -23.321 -14.622  0.00  0.00    +0.093 C 
ATOM     14  C   UNL     1      37.524 -24.286 -14.126  0.00  0.00    +0.229 C 
ATOM     15  C   UNL     1      35.537 -23.332 -13.783  0.00  0.00    +0.051 C 
ATOM     16  C   UNL     1      35.769 -24.300 -12.835  0.00  0.00    +0.125 C 
ATOM     17  C   UNL     1      34.987 -24.801 -11.696  0.00  0.00    +0.073 C 
BRANCH  14  21
ATOM     18  F   UNL     1      39.721 -24.984 -13.484  0.00  0.00    -0.163 F 
ATOM     19  F   UNL     1      38.840 -25.967 -15.206  0.00  0.00    -0.163 F 
ATOM     20  F   UNL     1      39.518 -23.906 -15.363  0.00  0.00    -0.163 F 
ATOM     21  C   UNL     1      38.853 -24.771 -14.529  0.00  0.00    +0.452 C 
ENDBRANCH  14  21
ENDBRANCH   3  13
BRANCH   6  22
ATOM     22  C   UNL     1      36.251 -18.672 -22.168  0.00  0.00    +0.056 C 
BRANCH  22  23
ATOM     23  C   UNL     1      35.202 -17.575 -22.339  0.00  0.00    +0.093 C 
BRANCH  23  24
ATOM     24  N   UNL     1      35.008 -17.258 -23.734  0.00  0.00    -0.321 N 
ATOM     25  H   UNL     1      35.374 -17.877 -24.407  0.00  0.00    +0.148 HD
ATOM     26  N   UNL     1      34.208 -15.933 -25.509  0.00  0.00    -0.234 NA
ATOM     27  N   UNL     1      32.625 -13.264 -22.760  0.00  0.00    -0.274 N 
ATOM     28  N   UNL     1      32.999 -13.906 -25.022  0.00  0.00    -0.233 NA
ATOM     29  N   UNL     1      32.015 -12.230 -20.698  0.00  0.00    -0.206 N 
ATOM     30  N   UNL     1      33.132 -14.096 -20.488  0.00  0.00    -0.193 NA
ATOM     31  N   UNL     1      32.111 -12.383 -19.368  0.00  0.00    -0.156 NA
ATOM     32  C   UNL     1      34.334 -16.133 -24.181  0.00  0.00    +0.110 C 
ATOM     33  C   UNL     1      33.826 -15.277 -23.224  0.00  0.00    +0.121 C 
ATOM     34  C   UNL     1      33.161 -14.168 -23.709  0.00  0.00    +0.115 C 
ATOM     35  C   UNL     1      33.540 -14.817 -25.855  0.00  0.00    +0.252 C 
ATOM     36  C   UNL     1      32.625 -13.252 -21.356  0.00  0.00    +0.207 C 
ATOM     37  C   UNL     1      32.796 -13.527 -19.294  0.00  0.00    +0.219 C 
ATOM     38  H   UNL     1      32.164 -12.493 -23.164  0.00  0.00    +0.156 HD
ATOM     39  H   UNL     1      31.562 -11.476 -21.140  0.00  0.00    +0.177 HD
ENDBRANCH  23  24
ENDBRANCH  22  23
ENDBRANCH   6  22
TORSDOF 5
ENDMDL
MODEL 6
REMARK VINA RESULT:     -10.1      6.777     10.153
REMARK  Name = 24875313
REMARK  5 active torsions:
REMARK  status: ('A' for Active; 'I' for Inactive)
REMARK    1  A    between atoms: N_3  and  C_13
REMARK    2  A    between atoms: C_6  and  C_22
REMARK    3  A    between atoms: C_14  and  C_21
REMARK    4  A    between atoms: C_22  and  C_23
REMARK    5  A    between atoms: C_23  and  N_24
REMARK                            x       y       z     vdW  Elec       q    Type
REMARK                         _______ _______ _______ _____ _____    ______ ____
ROOT
ATOM      1  S   UNL     1      34.117 -11.647 -23.987  0.00  0.00    -0.056 S 
ATOM      2  O   UNL     1      33.664 -15.318 -21.139  0.00  0.00    -0.252 OA
ATOM      3  N   UNL     1      35.214 -16.211 -22.645  0.00  0.00    -0.266 N 
ATOM      4  N   UNL     1      34.437 -14.031 -22.946  0.00  0.00    -0.248 N 
ATOM      5  N   UNL     1      32.916 -12.505 -21.866  0.00  0.00    -0.223 NA
ATOM      6  C   UNL     1      33.026 -10.586 -23.198  0.00  0.00    +0.031 C 
ATOM      7  C   UNL     1      32.486 -11.213 -22.095  0.00  0.00    +0.103 C 
ATOM      8  C   UNL     1      33.777 -12.839 -22.801  0.00  0.00    +0.166 C 
ATOM      9  C   UNL     1      34.370 -15.211 -22.137  0.00  0.00    +0.310 C 
ATOM     10  H   UNL     1      35.720 -15.978 -23.457  0.00  0.00    +0.157 HD
ATOM     11  H   UNL     1      35.045 -14.084 -23.718  0.00  0.00    +0.158 HD
ENDROOT
BRANCH   3  13
ATOM     12  O   UNL     1      35.421 -19.755 -21.974  0.00  0.00    -0.452 OA
ATOM     13  C   UNL     1      35.428 -17.513 -22.134  0.00  0.00    +0.093 C 
ATOM     14  C   UNL     1      35.063 -18.693 -22.741  0.00  0.00    +0.229 C 
ATOM     15  C   UNL     1      36.049 -17.875 -20.914  0.00  0.00    +0.051 C 
ATOM     16  C   UNL     1      36.021 -19.249 -20.865  0.00  0.00    +0.125 C 
ATOM     17  C   UNL     1      36.494 -20.230 -19.878  0.00  0.00    +0.073 C 
BRANCH  14  21
ATOM     18  F   UNL     1      34.841 -20.160 -24.617  0.00  0.00    -0.163 F 
ATOM     19  F   UNL     1      33.033 -19.201 -23.900  0.00  0.00    -0.163 F 
ATOM     20  F   UNL     1      34.530 -18.035 -24.962  0.00  0.00    -0.163 F 
ATOM     21  C   UNL     1      34.390 -19.013 -24.009  0.00  0.00    +0.452 C 
ENDBRANCH  14  21
ENDBRANCH   3  13
BRANCH   6  22
ATOM     22  C   UNL     1      32.782  -9.196 -23.735  0.00  0.00    +0.056 C 
BRANCH  22  23
ATOM     23  C   UNL     1      33.500  -8.110 -22.936  0.00  0.00    +0.093 C 
BRANCH  23  24
ATOM     24  N   UNL     1      32.615  -7.512 -21.964  0.00  0.00    -0.321 N 
ATOM     25  H   UNL     1      32.549  -7.930 -21.075  0.00  0.00    +0.148 HD
ATOM     26  N   UNL     1      31.059  -5.904 -21.231  0.00  0.00    -0.234 NA
ATOM     27  N   UNL     1      31.262  -4.062 -24.939  0.00  0.00    -0.274 N 
ATOM     28  N   UNL     1      30.368  -4.152 -22.734  0.00  0.00    -0.233 NA
ATOM     29  N   UNL     1      31.868  -3.568 -27.194  0.00  0.00    -0.206 N 
ATOM     30  N   UNL     1      32.851  -5.328 -26.349  0.00  0.00    -0.193 NA
ATOM     31  N   UNL     1      32.642  -4.001 -28.200  0.00  0.00    -0.156 NA
ATOM     32  C   UNL     1      31.853  -6.381 -22.211  0.00  0.00    +0.110 C 
ATOM     33  C   UNL     1      31.958  -5.806 -23.462  0.00  0.00    +0.121 C 
ATOM     34  C   UNL     1      31.184  -4.682 -23.668  0.00  0.00    +0.115 C 
ATOM     35  C   UNL     1      30.354  -4.804 -21.555  0.00  0.00    +0.252 C 
ATOM     36  C   UNL     1      31.997  -4.362 -26.097  0.00  0.00    +0.207 C 
ATOM     37  C   UNL     1      33.216  -5.067 -27.639  0.00  0.00    +0.219 C 
ATOM     38  H   UNL     1      30.688  -3.267 -25.028  0.00  0.00    +0.156 HD
ATOM     39  H   UNL     1      31.282  -2.778 -27.242  0.00  0.00    +0.177 HD
ENDBRANCH  23  24
ENDBRANCH  22  23
ENDBRANCH   6  22
TORSDOF 5
ENDMDL
MODEL 7
REMARK VINA RESULT:     -10.0      4.836     11.086
REMARK  Name = 24875313
REMARK  5 active torsions:
REMARK  status: ('A' for Active; 'I' for Inactive)
REMARK    1  A    between atoms: N_3  and  C_13
REMARK    2  A    between atoms: C_6  and  C_22
REMARK    3  A    between atoms: C_14  and  C_21
REMARK    4  A    between atoms: C_22  and  C_23
REMARK    5  A    between atoms: C_23  and  N_24
REMARK                            x       y       z     vdW  Elec       q    Type
REMARK                         _______ _______ _______ _____ _____    ______ ____
ROOT
ATOM      1  S   UNL     1      34.419 -19.498 -20.626  0.00  0.00    -0.056 S 
ATOM      2  O   UNL     1      35.818 -15.172 -21.689  0.00  0.00    -0.252 OA
ATOM      3  N   UNL     1      33.513 -14.890 -21.965  0.00  0.00    -0.266 N 
ATOM      4  N   UNL     1      34.352 -16.971 -21.320  0.00  0.00    -0.248 N 
ATOM      5  N   UNL     1      36.494 -17.975 -20.861  0.00  0.00    -0.223 NA
ATOM      6  C   UNL     1      35.958 -20.185 -20.310  0.00  0.00    +0.031 C 
ATOM      7  C   UNL     1      36.936 -19.229 -20.484  0.00  0.00    +0.103 C 
ATOM      8  C   UNL     1      35.185 -18.000 -20.966  0.00  0.00    +0.166 C 
ATOM      9  C   UNL     1      34.676 -15.618 -21.664  0.00  0.00    +0.310 C 
ATOM     10  H   UNL     1      32.665 -15.386 -21.901  0.00  0.00    +0.157 HD
ATOM     11  H   UNL     1      33.394 -17.193 -21.342  0.00  0.00    +0.158 HD
ENDROOT
BRANCH   3  13
ATOM     12  O   UNL     1      32.836 -11.359 -22.317  0.00  0.00    -0.452 OA
ATOM     13  C   UNL     1      33.410 -13.532 -22.347  0.00  0.00    +0.093 C 
ATOM     14  C   UNL     1      32.727 -12.549 -21.670  0.00  0.00    +0.229 C 
ATOM     15  C   UNL     1      33.975 -12.906 -23.485  0.00  0.00    +0.051 C 
ATOM     16  C   UNL     1      33.597 -11.586 -23.420  0.00  0.00    +0.125 C 
ATOM     17  C   UNL     1      33.849 -10.424 -24.284  0.00  0.00    +0.073 C 
BRANCH  14  21
ATOM     18  F   UNL     1      31.815 -13.763 -19.821  0.00  0.00    -0.163 F 
ATOM     19  F   UNL     1      32.434 -11.719 -19.446  0.00  0.00    -0.163 F 
ATOM     20  F   UNL     1      30.642 -12.112 -20.614  0.00  0.00    -0.163 F 
ATOM     21  C   UNL     1      31.935 -12.536 -20.431  0.00  0.00    +0.452 C 
ENDBRANCH  14  21
ENDBRANCH   3  13
BRANCH   6  22
ATOM     22  C   UNL     1      36.084 -21.634 -19.907  0.00  0.00    +0.056 C 
BRANCH  22  23
ATOM     23  C   UNL     1      35.549 -21.916 -18.505  0.00  0.00    +0.093 C 
BRANCH  23  24
ATOM     24  N   UNL     1      36.630 -22.104 -17.566  0.00  0.00    -0.321 N 
ATOM     25  H   UNL     1      37.551 -21.947 -17.880  0.00  0.00    +0.148 HD
ATOM     26  N   UNL     1      37.528 -22.638 -15.457  0.00  0.00    -0.234 NA
ATOM     27  N   UNL     1      33.696 -23.325 -14.034  0.00  0.00    -0.274 N 
ATOM     28  N   UNL     1      36.046 -23.258 -13.660  0.00  0.00    -0.233 NA
ATOM     29  N   UNL     1      31.320 -23.528 -13.929  0.00  0.00    -0.206 N 
ATOM     30  N   UNL     1      32.098 -22.917 -15.877  0.00  0.00    -0.193 NA
ATOM     31  N   UNL     1      30.213 -23.396 -14.675  0.00  0.00    -0.156 NA
ATOM     32  C   UNL     1      36.447 -22.492 -16.249  0.00  0.00    +0.110 C 
ATOM     33  C   UNL     1      35.151 -22.708 -15.826  0.00  0.00    +0.121 C 
ATOM     34  C   UNL     1      35.010 -23.093 -14.508  0.00  0.00    +0.115 C 
ATOM     35  C   UNL     1      37.260 -23.018 -14.193  0.00  0.00    +0.252 C 
ATOM     36  C   UNL     1      32.436 -23.242 -14.650  0.00  0.00    +0.207 C 
ATOM     37  C   UNL     1      30.738 -23.025 -15.844  0.00  0.00    +0.219 C 
ATOM     38  H   UNL     1      33.658 -23.597 -13.089  0.00  0.00    +0.156 HD
ATOM     39  H   UNL     1      31.325 -23.796 -12.981  0.00  0.00    +0.177 HD
ENDBRANCH  23  24
ENDBRANCH  22  23
ENDBRANCH   6  22
TORSDOF 5
ENDMDL
MODEL 8
REMARK VINA RESULT:      -9.9      5.146     11.676
REMARK  Name = 24875313
REMARK  5 active torsions:
REMARK  status: ('A' for Active; 'I' for Inactive)
REMARK    1  A    between atoms: N_3  and  C_13
REMARK    2  A    between atoms: C_6  and  C_22
REMARK    3  A    between atoms: C_14  and  C_21
REMARK    4  A    between atoms: C_22  and  C_23
REMARK    5  A    between atoms: C_23  and  N_24
REMARK                            x       y       z     vdW  Elec       q    Type
REMARK                         _______ _______ _______ _____ _____    ______ ____
ROOT
ATOM      1  S   UNL     1      37.182 -19.993 -18.714  0.00  0.00    -0.056 S 
ATOM      2  O   UNL     1      34.001 -18.705 -21.879  0.00  0.00    -0.252 OA
ATOM      3  N   UNL     1      35.349 -16.795 -21.916  0.00  0.00    -0.266 N 
ATOM      4  N   UNL     1      35.900 -18.569 -20.502  0.00  0.00    -0.248 N 
ATOM      5  N   UNL     1      35.037 -20.748 -19.941  0.00  0.00    -0.223 NA
ATOM      6  C   UNL     1      36.541 -21.537 -18.333  0.00  0.00    +0.031 C 
ATOM      7  C   UNL     1      35.405 -21.764 -19.082  0.00  0.00    +0.103 C 
ATOM      8  C   UNL     1      35.900 -19.764 -19.831  0.00  0.00    +0.166 C 
ATOM      9  C   UNL     1      34.978 -18.078 -21.483  0.00  0.00    +0.310 C 
ATOM     10  H   UNL     1      36.161 -16.419 -21.505  0.00  0.00    +0.157 HD
ATOM     11  H   UNL     1      36.639 -17.959 -20.277  0.00  0.00    +0.158 HD
ENDROOT
BRANCH   3  13
ATOM     12  O   UNL     1      33.555 -14.261 -23.764  0.00  0.00    -0.452 OA
ATOM     13  C   UNL     1      34.702 -15.976 -22.870  0.00  0.00    +0.093 C 
ATOM     14  C   UNL     1      34.068 -14.781 -22.618  0.00  0.00    +0.229 C 
ATOM     15  C   UNL     1      34.567 -16.206 -24.261  0.00  0.00    +0.051 C 
ATOM     16  C   UNL     1      33.863 -15.134 -24.758  0.00  0.00    +0.125 C 
ATOM     17  C   UNL     1      33.399 -14.773 -26.105  0.00  0.00    +0.073 C 
BRANCH  14  21
ATOM     18  F   UNL     1      32.950 -14.540 -20.517  0.00  0.00    -0.163 F 
ATOM     19  F   UNL     1      34.981 -13.787 -20.643  0.00  0.00    -0.163 F 
ATOM     20  F   UNL     1      33.367 -12.729 -21.646  0.00  0.00    -0.163 F 
ATOM     21  C   UNL     1      33.851 -13.989 -21.398  0.00  0.00    +0.452 C 
ENDBRANCH  14  21
ENDBRANCH   3  13
BRANCH   6  22
ATOM     22  C   UNL     1      37.218 -22.420 -17.312  0.00  0.00    +0.056 C 
BRANCH  22  23
ATOM     23  C   UNL     1      36.736 -22.163 -15.885  0.00  0.00    +0.093 C 
BRANCH  23  24
ATOM     24  N   UNL     1      37.615 -22.785 -14.923  0.00  0.00    -0.321 N 
ATOM     25  H   UNL     1      38.581 -22.605 -14.990  0.00  0.00    +0.148 HD
ATOM     26  N   UNL     1      38.084 -24.151 -13.063  0.00  0.00    -0.234 NA
ATOM     27  N   UNL     1      34.039 -24.977 -12.689  0.00  0.00    -0.274 N 
ATOM     28  N   UNL     1      36.275 -25.265 -11.925  0.00  0.00    -0.233 NA
ATOM     29  N   UNL     1      31.684 -24.992 -13.076  0.00  0.00    -0.206 N 
ATOM     30  N   UNL     1      32.830 -23.766 -14.475  0.00  0.00    -0.193 NA
ATOM     31  N   UNL     1      30.742 -24.491 -13.890  0.00  0.00    -0.156 NA
ATOM     32  C   UNL     1      37.177 -23.622 -13.909  0.00  0.00    +0.110 C 
ATOM     33  C   UNL     1      35.820 -23.864 -13.829  0.00  0.00    +0.121 C 
ATOM     34  C   UNL     1      35.423 -24.702 -12.806  0.00  0.00    +0.115 C 
ATOM     35  C   UNL     1      37.573 -24.952 -12.109  0.00  0.00    +0.252 C 
ATOM     36  C   UNL     1      32.922 -24.557 -13.431  0.00  0.00    +0.207 C 
ATOM     37  C   UNL     1      31.487 -23.757 -14.718  0.00  0.00    +0.219 C 
ATOM     38  H   UNL     1      33.816 -25.580 -11.943  0.00  0.00    +0.156 HD
ATOM     39  H   UNL     1      31.503 -25.596 -12.320  0.00  0.00    +0.177 HD
ENDBRANCH  23  24
ENDBRANCH  22  23
ENDBRANCH   6  22
TORSDOF 5
ENDMDL
MODEL 9
REMARK VINA RESULT:      -9.8      6.905      9.860
REMARK  Name = 24875313
REMARK  5 active torsions:
REMARK  status: ('A' for Active; 'I' for Inactive)
REMARK    1  A    between atoms: N_3  and  C_13
REMARK    2  A    between atoms: C_6  and  C_22
REMARK    3  A    between atoms: C_14  and  C_21
REMARK    4  A    between atoms: C_22  and  C_23
REMARK    5  A    between atoms: C_23  and  N_24
REMARK                            x       y       z     vdW  Elec       q    Type
REMARK                         _______ _______ _______ _____ _____    ______ ____
ROOT
ATOM      1  S   UNL     1      34.191 -11.591 -23.962  0.00  0.00    -0.056 S 
ATOM      2  O   UNL     1      33.663 -15.272 -21.138  0.00  0.00    -0.252 OA
ATOM      3  N   UNL     1      35.170 -16.196 -22.669  0.00  0.00    -0.266 N 
ATOM      4  N   UNL     1      34.453 -13.992 -22.943  0.00  0.00    -0.248 N 
ATOM      5  N   UNL     1      32.989 -12.433 -21.834  0.00  0.00    -0.223 NA
ATOM      6  C   UNL     1      33.139 -10.505 -23.152  0.00  0.00    +0.031 C 
ATOM      7  C   UNL     1      32.594 -11.126 -22.048  0.00  0.00    +0.103 C 
ATOM      8  C   UNL     1      33.830 -12.783 -22.781  0.00  0.00    +0.166 C 
ATOM      9  C   UNL     1      34.361 -15.176 -22.143  0.00  0.00    +0.310 C 
ATOM     10  H   UNL     1      35.674 -15.970 -23.484  0.00  0.00    +0.157 HD
ATOM     11  H   UNL     1      35.051 -14.056 -23.722  0.00  0.00    +0.158 HD
ENDROOT
BRANCH   3  13
ATOM     12  O   UNL     1      35.314 -19.752 -22.045  0.00  0.00    -0.452 OA
ATOM     13  C   UNL     1      35.352 -17.508 -22.171  0.00  0.00    +0.093 C 
ATOM     14  C   UNL     1      34.995 -18.674 -22.808  0.00  0.00    +0.229 C 
ATOM     15  C   UNL     1      35.928 -17.895 -20.937  0.00  0.00    +0.051 C 
ATOM     16  C   UNL     1      35.882 -19.269 -20.909  0.00  0.00    +0.125 C 
ATOM     17  C   UNL     1      36.311 -20.270 -19.922  0.00  0.00    +0.073 C 
BRANCH  14  21
ATOM     18  F   UNL     1      34.787 -20.134 -24.691  0.00  0.00    -0.163 F 
ATOM     19  F   UNL     1      32.994 -19.096 -24.049  0.00  0.00    -0.163 F 
ATOM     20  F   UNL     1      34.583 -17.998 -25.049  0.00  0.00    -0.163 F 
ATOM     21  C   UNL     1      34.361 -18.967 -24.102  0.00  0.00    +0.452 C 
ENDBRANCH  14  21
ENDBRANCH   3  13
BRANCH   6  22
ATOM     22  C   UNL     1      32.930  -9.105 -23.675  0.00  0.00    +0.056 C 
BRANCH  22  23
ATOM     23  C   UNL     1      34.009  -8.126 -23.216  0.00  0.00    +0.093 C 
BRANCH  23  24
ATOM     24  N   UNL     1      34.680  -7.529 -24.347  0.00  0.00    -0.321 N 
ATOM     25  H   UNL     1      35.395  -8.042 -24.789  0.00  0.00    +0.148 HD
ATOM     26  N   UNL     1      35.063  -5.810 -25.910  0.00  0.00    -0.234 NA
ATOM     27  N   UNL     1      32.071  -3.563 -24.126  0.00  0.00    -0.274 N 
ATOM     28  N   UNL     1      33.744  -3.796 -25.804  0.00  0.00    -0.233 NA
ATOM     29  N   UNL     1      30.316  -2.885 -22.658  0.00  0.00    -0.206 N 
ATOM     30  N   UNL     1      31.140  -4.865 -22.242  0.00  0.00    -0.193 NA
ATOM     31  N   UNL     1      29.601  -3.300 -21.601  0.00  0.00    -0.156 NA
ATOM     32  C   UNL     1      34.374  -6.273 -24.847  0.00  0.00    +0.110 C 
ATOM     33  C   UNL     1      33.370  -5.566 -24.217  0.00  0.00    +0.121 C 
ATOM     34  C   UNL     1      33.095  -4.321 -24.745  0.00  0.00    +0.115 C 
ATOM     35  C   UNL     1      34.703  -4.583 -26.331  0.00  0.00    +0.252 C 
ATOM     36  C   UNL     1      31.229  -3.821 -23.032  0.00  0.00    +0.207 C 
ATOM     37  C   UNL     1      30.138  -4.503 -21.388  0.00  0.00    +0.219 C 
ATOM     38  H   UNL     1      31.921  -2.685 -24.545  0.00  0.00    +0.156 HD
ATOM     39  H   UNL     1      30.196  -2.016 -23.105  0.00  0.00    +0.177 HD
ENDBRANCH  23  24
ENDBRANCH  22  23
ENDBRANCH   6  22
TORSDOF 5
ENDMDL
