MODEL 1
REMARK VINA RESULT:     -11.3      0.000      0.000
REMARK  Name = 4470566
REMARK  6 active torsions:
REMARK  status: ('A' for Active; 'I' for Inactive)
REMARK    1  A    between atoms: N_4  and  C_23
REMARK    2  A    between atoms: C_13  and  C_14
REMARK    3  A    between atoms: C_17  and  N_22
REMARK    4  A    between atoms: C_23  and  C_24
REMARK    5  A    between atoms: C_24  and  C_25
REMARK    6  A    between atoms: C_25  and  N_27
REMARK                            x       y       z     vdW  Elec       q    Type
REMARK                         _______ _______ _______ _____ _____    ______ ____
ROOT
ATOM      1  S   UNL     1      34.241 -23.661 -15.323  0.00  0.00    -0.086 S 
ATOM      2  S   UNL     1      37.150 -20.509 -19.536  0.00  0.00    -0.017 S 
ATOM      3  O   UNL     1      32.127 -20.869 -20.385  0.00  0.00    -0.268 OA
ATOM      4  N   UNL     1      34.471 -20.522 -20.275  0.00  0.00    -0.237 N 
ATOM      5  N   UNL     1      34.868 -21.595 -18.447  0.00  0.00    -0.244 N 
ATOM      6  C   UNL     1      33.532 -21.700 -18.661  0.00  0.00    +0.112 C 
ATOM      7  C   UNL     1      35.173 -22.265 -17.292  0.00  0.00    +0.064 C 
ATOM      8  C   UNL     1      35.534 -20.868 -19.422  0.00  0.00    +0.152 C 
ATOM      9  C   UNL     1      33.222 -21.003 -19.862  0.00  0.00    +0.268 C 
ATOM     10  C   UNL     1      33.998 -22.782 -16.798  0.00  0.00    +0.045 C 
ATOM     11  C   UNL     1      32.923 -22.423 -17.676  0.00  0.00    +0.028 C 
ATOM     12  C   UNL     1      36.306 -22.564 -16.489  0.00  0.00    +0.022 C 
ATOM     13  C   UNL     1      35.924 -23.315 -15.397  0.00  0.00    +0.031 C 
ENDROOT
BRANCH  13  14
ATOM     14  C   UNL     1      36.764 -23.828 -14.338  0.00  0.00    +0.008 C 
ATOM     15  C   UNL     1      37.958 -24.473 -14.648  0.00  0.00    +0.025 C 
ATOM     16  C   UNL     1      36.374 -23.673 -13.009  0.00  0.00    +0.001 C 
ATOM     17  C   UNL     1      38.769 -24.965 -13.625  0.00  0.00    +0.143 C 
ATOM     18  C   UNL     1      37.184 -24.167 -11.986  0.00  0.00    +0.002 C 
ATOM     19  C   UNL     1      38.381 -24.812 -12.295  0.00  0.00    +0.024 C 
BRANCH  17  22
ATOM     20  O   UNL     1      41.047 -24.955 -13.979  0.00  0.00    -0.126 OA
ATOM     21  O   UNL     1      39.968 -26.858 -14.171  0.00  0.00    -0.126 OA
ATOM     22  N   UNL     1      39.986 -25.624 -13.940  0.00  0.00    +0.058 N 
ENDBRANCH  17  22
ENDBRANCH  13  14
BRANCH   4  23
ATOM     23  C   UNL     1      34.618 -19.735 -21.492  0.00  0.00    +0.098 C 
BRANCH  23  24
ATOM     24  C   UNL     1      34.996 -18.283 -21.208  0.00  0.00    -0.001 C 
BRANCH  24  25
ATOM     25  C   UNL     1      36.056 -17.709 -22.153  0.00  0.00    -0.075 C 
BRANCH  25  27
ATOM     26  O   UNL     1      33.507 -14.773 -23.734  0.00  0.00    -0.358 OA
ATOM     27  N   UNL     1      35.575 -16.520 -22.854  0.00  0.00    +0.390 N 
ATOM     28  C   UNL     1      34.896 -15.605 -21.927  0.00  0.00    -0.045 C 
ATOM     29  C   UNL     1      34.667 -16.892 -23.949  0.00  0.00    -0.045 C 
ATOM     30  C   UNL     1      34.392 -14.380 -22.684  0.00  0.00    +0.119 C 
ATOM     31  C   UNL     1      34.170 -15.636 -24.659  0.00  0.00    +0.119 C 
ATOM     32  H   UNL     1      36.384 -16.043 -23.251  0.00  0.00    -0.079 HD
ENDBRANCH  25  27
ENDBRANCH  24  25
ENDBRANCH  23  24
ENDBRANCH   4  23
TORSDOF 6
ENDMDL
MODEL 2
REMARK VINA RESULT:     -11.2      1.981      2.160
REMARK  Name = 4470566
REMARK  6 active torsions:
REMARK  status: ('A' for Active; 'I' for Inactive)
REMARK    1  A    between atoms: N_4  and  C_23
REMARK    2  A    between atoms: C_13  and  C_14
REMARK    3  A    between atoms: C_17  and  N_22
REMARK    4  A    between atoms: C_23  and  C_24
REMARK    5  A    between atoms: C_24  and  C_25
REMARK    6  A    between atoms: C_25  and  N_27
REMARK                            x       y       z     vdW  Elec       q    Type
REMARK                         _______ _______ _______ _____ _____    ______ ____
ROOT
ATOM      1  S   UNL     1      34.037 -23.915 -15.005  0.00  0.00    -0.086 S 
ATOM      2  S   UNL     1      37.182 -20.872 -19.128  0.00  0.00    -0.017 S 
ATOM      3  O   UNL     1      32.208 -21.226 -20.232  0.00  0.00    -0.268 OA
ATOM      4  N   UNL     1      34.545 -20.888 -20.007  0.00  0.00    -0.237 N 
ATOM      5  N   UNL     1      34.839 -21.923 -18.137  0.00  0.00    -0.244 N 
ATOM      6  C   UNL     1      33.516 -22.025 -18.419  0.00  0.00    +0.112 C 
ATOM      7  C   UNL     1      35.079 -22.567 -16.954  0.00  0.00    +0.064 C 
ATOM      8  C   UNL     1      35.560 -21.220 -19.091  0.00  0.00    +0.152 C 
ATOM      9  C   UNL     1      33.273 -21.354 -19.650  0.00  0.00    +0.268 C 
ATOM     10  C   UNL     1      33.876 -23.068 -16.510  0.00  0.00    +0.045 C 
ATOM     11  C   UNL     1      32.851 -22.724 -17.452  0.00  0.00    +0.028 C 
ATOM     12  C   UNL     1      36.166 -22.855 -16.086  0.00  0.00    +0.022 C 
ATOM     13  C   UNL     1      35.723 -23.579 -14.999  0.00  0.00    +0.031 C 
ENDROOT
BRANCH  13  14
ATOM     14  C   UNL     1      36.503 -24.072 -13.886  0.00  0.00    +0.008 C 
ATOM     15  C   UNL     1      35.959 -24.077 -12.604  0.00  0.00    +0.025 C 
ATOM     16  C   UNL     1      37.797 -24.543 -14.101  0.00  0.00    +0.001 C 
ATOM     17  C   UNL     1      36.711 -24.555 -11.531  0.00  0.00    +0.143 C 
ATOM     18  C   UNL     1      38.549 -25.020 -13.027  0.00  0.00    +0.002 C 
ATOM     19  C   UNL     1      38.006 -25.026 -11.743  0.00  0.00    +0.024 C 
BRANCH  17  22
ATOM     20  O   UNL     1      36.507 -23.666  -9.413  0.00  0.00    -0.126 OA
ATOM     21  O   UNL     1      35.338 -25.455  -9.912  0.00  0.00    -0.126 OA
ATOM     22  N   UNL     1      36.158 -24.559 -10.223  0.00  0.00    +0.058 N 
ENDBRANCH  17  22
ENDBRANCH  13  14
BRANCH   4  23
ATOM     23  C   UNL     1      34.761 -20.129 -21.231  0.00  0.00    +0.098 C 
BRANCH  23  24
ATOM     24  C   UNL     1      34.942 -18.636 -20.970  0.00  0.00    -0.001 C 
BRANCH  24  25
ATOM     25  C   UNL     1      36.120 -18.001 -21.715  0.00  0.00    -0.075 C 
BRANCH  25  27
ATOM     26  O   UNL     1      33.727 -15.134 -23.630  0.00  0.00    -0.358 OA
ATOM     27  N   UNL     1      35.705 -16.847 -22.510  0.00  0.00    +0.390 N 
ATOM     28  C   UNL     1      34.966 -15.882 -21.683  0.00  0.00    -0.045 C 
ATOM     29  C   UNL     1      34.880 -17.268 -23.651  0.00  0.00    -0.045 C 
ATOM     30  C   UNL     1      34.532 -14.693 -22.536  0.00  0.00    +0.119 C 
ATOM     31  C   UNL     1      34.449 -16.046 -24.458  0.00  0.00    +0.119 C 
ATOM     32  H   UNL     1      36.546 -16.394 -22.866  0.00  0.00    -0.079 HD
ENDBRANCH  25  27
ENDBRANCH  24  25
ENDBRANCH  23  24
ENDBRANCH   4  23
TORSDOF 6
ENDMDL
MODEL 3
REMARK VINA RESULT:     -10.9      4.323      7.792
REMARK  Name = 4470566
REMARK  6 active torsions:
REMARK  status: ('A' for Active; 'I' for Inactive)
REMARK    1  A    between atoms: N_4  and  C_23
REMARK    2  A    between atoms: C_13  and  C_14
REMARK    3  A    between atoms: C_17  and  N_22
REMARK    4  A    between atoms: C_23  and  C_24
REMARK    5  A    between atoms: C_24  and  C_25
REMARK    6  A    between atoms: C_25  and  N_27
REMARK                            x       y       z     vdW  Elec       q    Type
REMARK                         _______ _______ _______ _____ _____    ______ ____
ROOT
ATOM      1  S   UNL     1      34.974 -19.470 -22.905  0.00  0.00    -0.086 S 
ATOM      2  S   UNL     1      34.528 -13.884 -20.727  0.00  0.00    -0.017 S 
ATOM      3  O   UNL     1      33.854 -14.145 -25.783  0.00  0.00    -0.268 OA
ATOM      4  N   UNL     1      34.117 -13.692 -23.469  0.00  0.00    -0.237 N 
ATOM      5  N   UNL     1      34.483 -15.706 -22.789  0.00  0.00    -0.244 N 
ATOM      6  C   UNL     1      34.307 -15.789 -24.131  0.00  0.00    +0.112 C 
ATOM      7  C   UNL     1      34.721 -16.965 -22.306  0.00  0.00    +0.064 C 
ATOM      8  C   UNL     1      34.380 -14.415 -22.292  0.00  0.00    +0.152 C 
ATOM      9  C   UNL     1      34.061 -14.479 -24.627  0.00  0.00    +0.268 C 
ATOM     10  C   UNL     1      34.686 -17.827 -23.379  0.00  0.00    +0.045 C 
ATOM     11  C   UNL     1      34.419 -17.078 -24.571  0.00  0.00    +0.028 C 
ATOM     12  C   UNL     1      34.980 -17.612 -21.068  0.00  0.00    +0.022 C 
ATOM     13  C   UNL     1      35.134 -18.967 -21.268  0.00  0.00    +0.031 C 
ENDROOT
BRANCH  13  14
ATOM     14  C   UNL     1      35.409 -19.983 -20.277  0.00  0.00    +0.008 C 
ATOM     15  C   UNL     1      34.398 -20.851 -19.872  0.00  0.00    +0.025 C 
ATOM     16  C   UNL     1      36.686 -20.091 -19.731  0.00  0.00    +0.001 C 
ATOM     17  C   UNL     1      34.664 -21.832 -18.917  0.00  0.00    +0.143 C 
ATOM     18  C   UNL     1      36.953 -21.072 -18.775  0.00  0.00    +0.002 C 
ATOM     19  C   UNL     1      35.942 -21.942 -18.369  0.00  0.00    +0.024 C 
BRANCH  17  22
ATOM     20  O   UNL     1      33.841 -23.954 -18.546  0.00  0.00    -0.126 OA
ATOM     21  O   UNL     1      32.545 -22.237 -18.103  0.00  0.00    -0.126 OA
ATOM     22  N   UNL     1      33.634 -22.716 -18.502  0.00  0.00    +0.058 N 
ENDBRANCH  17  22
ENDBRANCH  13  14
BRANCH   4  23
ATOM     23  C   UNL     1      33.916 -12.251 -23.519  0.00  0.00    +0.098 C 
BRANCH  23  24
ATOM     24  C   UNL     1      32.567 -11.827 -22.943  0.00  0.00    -0.001 C 
BRANCH  24  25
ATOM     25  C   UNL     1      32.300 -10.320 -22.998  0.00  0.00    -0.075 C 
BRANCH  25  27
ATOM     26  O   UNL     1      32.206  -9.146 -18.970  0.00  0.00    -0.358 OA
ATOM     27  N   UNL     1      31.832  -9.801 -21.715  0.00  0.00    +0.390 N 
ATOM     28  C   UNL     1      32.623  -8.632 -21.304  0.00  0.00    -0.045 C 
ATOM     29  C   UNL     1      31.895 -10.840 -20.677  0.00  0.00    -0.045 C 
ATOM     30  C   UNL     1      32.125  -8.117 -19.957  0.00  0.00    +0.119 C 
ATOM     31  C   UNL     1      31.413 -10.273 -19.345  0.00  0.00    +0.119 C 
ATOM     32  H   UNL     1      30.861  -9.514 -21.829  0.00  0.00    -0.079 HD
ENDBRANCH  25  27
ENDBRANCH  24  25
ENDBRANCH  23  24
ENDBRANCH   4  23
TORSDOF 6
ENDMDL
MODEL 4
REMARK VINA RESULT:     -10.1      3.911      5.704
REMARK  Name = 4470566
REMARK  6 active torsions:
REMARK  status: ('A' for Active; 'I' for Inactive)
REMARK    1  A    between atoms: N_4  and  C_23
REMARK    2  A    between atoms: C_13  and  C_14
REMARK    3  A    between atoms: C_17  and  N_22
REMARK    4  A    between atoms: C_23  and  C_24
REMARK    5  A    between atoms: C_24  and  C_25
REMARK    6  A    between atoms: C_25  and  N_27
REMARK                            x       y       z     vdW  Elec       q    Type
REMARK                         _______ _______ _______ _____ _____    ______ ____
ROOT
ATOM      1  S   UNL     1      34.304 -23.318 -15.895  0.00  0.00    -0.086 S 
ATOM      2  S   UNL     1      32.668 -20.170 -20.749  0.00  0.00    -0.017 S 
ATOM      3  O   UNL     1      37.723 -20.304 -20.033  0.00  0.00    -0.268 OA
ATOM      4  N   UNL     1      35.443 -20.055 -20.637  0.00  0.00    -0.237 N 
ATOM      5  N   UNL     1      34.560 -21.193 -19.032  0.00  0.00    -0.244 N 
ATOM      6  C   UNL     1      35.901 -21.236 -18.830  0.00  0.00    +0.112 C 
ATOM      7  C   UNL     1      33.950 -21.904 -18.034  0.00  0.00    +0.064 C 
ATOM      8  C   UNL     1      34.188 -20.466 -20.153  0.00  0.00    +0.152 C 
ATOM      9  C   UNL     1      36.528 -20.495 -19.869  0.00  0.00    +0.268 C 
ATOM     10  C   UNL     1      34.943 -22.388 -17.213  0.00  0.00    +0.045 C 
ATOM     11  C   UNL     1      36.215 -21.962 -17.717  0.00  0.00    +0.028 C 
ATOM     12  C   UNL     1      32.643 -22.274 -17.620  0.00  0.00    +0.022 C 
ATOM     13  C   UNL     1      32.709 -23.039 -16.475  0.00  0.00    +0.031 C 
ENDROOT
BRANCH  13  14
ATOM     14  C   UNL     1      31.613 -23.616 -15.730  0.00  0.00    +0.008 C 
ATOM     15  C   UNL     1      30.304 -23.449 -16.177  0.00  0.00    +0.025 C 
ATOM     16  C   UNL     1      31.870 -24.339 -14.566  0.00  0.00    +0.001 C 
ATOM     17  C   UNL     1      29.247 -24.008 -15.459  0.00  0.00    +0.143 C 
ATOM     18  C   UNL     1      30.812 -24.896 -13.848  0.00  0.00    +0.002 C 
ATOM     19  C   UNL     1      29.502 -24.731 -14.294  0.00  0.00    +0.024 C 
BRANCH  17  22
ATOM     20  O   UNL     1      27.556 -24.399 -16.977  0.00  0.00    -0.126 OA
ATOM     21  O   UNL     1      27.127 -23.129 -15.237  0.00  0.00    -0.126 OA
ATOM     22  N   UNL     1      27.913 -23.837 -15.912  0.00  0.00    +0.058 N 
ENDBRANCH  17  22
ENDBRANCH  13  14
BRANCH   4  23
ATOM     23  C   UNL     1      35.635 -19.240 -21.829  0.00  0.00    +0.098 C 
BRANCH  23  24
ATOM     24  C   UNL     1      35.585 -17.743 -21.531  0.00  0.00    -0.001 C 
BRANCH  24  25
ATOM     25  C   UNL     1      35.241 -16.868 -22.740  0.00  0.00    -0.075 C 
BRANCH  25  27
ATOM     26  O   UNL     1      33.416 -13.315 -21.450  0.00  0.00    -0.358 OA
ATOM     27  N   UNL     1      35.036 -15.472 -22.361  0.00  0.00    +0.390 N 
ATOM     28  C   UNL     1      34.613 -15.367 -20.957  0.00  0.00    -0.045 C 
ATOM     29  C   UNL     1      34.041 -14.835 -23.235  0.00  0.00    -0.045 C 
ATOM     30  C   UNL     1      34.393 -13.903 -20.590  0.00  0.00    +0.119 C 
ATOM     31  C   UNL     1      33.835 -13.382 -22.814  0.00  0.00    +0.119 C 
ATOM     32  H   UNL     1      35.925 -14.984 -22.471  0.00  0.00    -0.079 HD
ENDBRANCH  25  27
ENDBRANCH  24  25
ENDBRANCH  23  24
ENDBRANCH   4  23
TORSDOF 6
ENDMDL
MODEL 5
REMARK VINA RESULT:     -10.0      4.824     12.486
REMARK  Name = 4470566
REMARK  6 active torsions:
REMARK  status: ('A' for Active; 'I' for Inactive)
REMARK    1  A    between atoms: N_4  and  C_23
REMARK    2  A    between atoms: C_13  and  C_14
REMARK    3  A    between atoms: C_17  and  N_22
REMARK    4  A    between atoms: C_23  and  C_24
REMARK    5  A    between atoms: C_24  and  C_25
REMARK    6  A    between atoms: C_25  and  N_27
REMARK                            x       y       z     vdW  Elec       q    Type
REMARK                         _______ _______ _______ _____ _____    ______ ____
ROOT
ATOM      1  S   UNL     1      32.290 -11.530 -23.237  0.00  0.00    -0.086 S 
ATOM      2  S   UNL     1      35.011 -15.980 -20.247  0.00  0.00    -0.017 S 
ATOM      3  O   UNL     1      34.685 -16.822 -25.275  0.00  0.00    -0.268 OA
ATOM      4  N   UNL     1      34.992 -16.730 -22.924  0.00  0.00    -0.237 N 
ATOM      5  N   UNL     1      34.069 -14.815 -22.556  0.00  0.00    -0.244 N 
ATOM      6  C   UNL     1      33.975 -15.026 -23.893  0.00  0.00    +0.112 C 
ATOM      7  C   UNL     1      33.494 -13.606 -22.269  0.00  0.00    +0.064 C 
ATOM      8  C   UNL     1      34.698 -15.844 -21.871  0.00  0.00    +0.152 C 
ATOM      9  C   UNL     1      34.574 -16.284 -24.185  0.00  0.00    +0.268 C 
ATOM     10  C   UNL     1      33.045 -13.075 -23.457  0.00  0.00    +0.045 C 
ATOM     11  C   UNL     1      33.350 -13.987 -24.521  0.00  0.00    +0.028 C 
ATOM     12  C   UNL     1      33.240 -12.775 -21.146  0.00  0.00    +0.022 C 
ATOM     13  C   UNL     1      32.593 -11.625 -21.547  0.00  0.00    +0.031 C 
ENDROOT
BRANCH  13  14
ATOM     14  C   UNL     1      32.155 -10.521 -20.722  0.00  0.00    +0.008 C 
ATOM     15  C   UNL     1      32.183  -9.223 -21.225  0.00  0.00    +0.025 C 
ATOM     16  C   UNL     1      31.704 -10.762 -19.426  0.00  0.00    +0.001 C 
ATOM     17  C   UNL     1      31.758  -8.160 -20.429  0.00  0.00    +0.143 C 
ATOM     18  C   UNL     1      31.280  -9.698 -18.630  0.00  0.00    +0.002 C 
ATOM     19  C   UNL     1      31.306  -8.398 -19.132  0.00  0.00    +0.024 C 
BRANCH  17  22
ATOM     20  O   UNL     1      31.001  -6.524 -21.868  0.00  0.00    -0.126 OA
ATOM     21  O   UNL     1      32.599  -6.013 -20.451  0.00  0.00    -0.126 OA
ATOM     22  N   UNL     1      31.787  -6.835 -20.940  0.00  0.00    +0.058 N 
ENDBRANCH  17  22
ENDBRANCH  13  14
BRANCH   4  23
ATOM     23  C   UNL     1      35.669 -18.008 -22.756  0.00  0.00    +0.098 C 
BRANCH  23  24
ATOM     24  C   UNL     1      34.883 -18.976 -21.875  0.00  0.00    -0.001 C 
BRANCH  24  25
ATOM     25  C   UNL     1      35.719 -19.673 -20.798  0.00  0.00    -0.075 C 
BRANCH  25  27
ATOM     26  O   UNL     1      33.130 -22.383 -18.911  0.00  0.00    -0.358 OA
ATOM     27  N   UNL     1      34.881 -20.319 -19.790  0.00  0.00    +0.390 N 
ATOM     28  C   UNL     1      35.375 -21.670 -19.487  0.00  0.00    -0.045 C 
ATOM     29  C   UNL     1      33.483 -20.384 -20.237  0.00  0.00    -0.045 C 
ATOM     30  C   UNL     1      34.478 -22.329 -18.443  0.00  0.00    +0.119 C 
ATOM     31  C   UNL     1      32.630 -21.072 -19.175  0.00  0.00    +0.119 C 
ATOM     32  H   UNL     1      34.925 -19.758 -18.940  0.00  0.00    -0.079 HD
ENDBRANCH  25  27
ENDBRANCH  24  25
ENDBRANCH  23  24
ENDBRANCH   4  23
TORSDOF 6
ENDMDL
MODEL 6
REMARK VINA RESULT:      -9.8      3.064      9.789
REMARK  Name = 4470566
REMARK  6 active torsions:
REMARK  status: ('A' for Active; 'I' for Inactive)
REMARK    1  A    between atoms: N_4  and  C_23
REMARK    2  A    between atoms: C_13  and  C_14
REMARK    3  A    between atoms: C_17  and  N_22
REMARK    4  A    between atoms: C_23  and  C_24
REMARK    5  A    between atoms: C_24  and  C_25
REMARK    6  A    between atoms: C_25  and  N_27
REMARK                            x       y       z     vdW  Elec       q    Type
REMARK                         _______ _______ _______ _____ _____    ______ ____
ROOT
ATOM      1  S   UNL     1      37.164 -20.227 -19.307  0.00  0.00    -0.086 S 
ATOM      2  S   UNL     1      32.411 -23.157 -17.076  0.00  0.00    -0.017 S 
ATOM      3  O   UNL     1      36.683 -23.869 -14.368  0.00  0.00    -0.268 OA
ATOM      4  N   UNL     1      34.551 -23.740 -15.400  0.00  0.00    -0.237 N 
ATOM      5  N   UNL     1      35.066 -22.433 -17.036  0.00  0.00    -0.244 N 
ATOM      6  C   UNL     1      36.208 -22.615 -16.327  0.00  0.00    +0.112 C 
ATOM      7  C   UNL     1      35.342 -21.606 -18.092  0.00  0.00    +0.064 C 
ATOM      8  C   UNL     1      33.973 -23.111 -16.518  0.00  0.00    +0.152 C 
ATOM      9  C   UNL     1      35.916 -23.474 -15.232  0.00  0.00    +0.268 C 
ATOM     10  C   UNL     1      36.677 -21.280 -18.019  0.00  0.00    +0.045 C 
ATOM     11  C   UNL     1      37.253 -21.928 -16.877  0.00  0.00    +0.028 C 
ATOM     12  C   UNL     1      34.674 -21.011 -19.196  0.00  0.00    +0.022 C 
ATOM     13  C   UNL     1      35.558 -20.243 -19.923  0.00  0.00    +0.031 C 
ENDROOT
BRANCH  13  14
ATOM     14  C   UNL     1      35.288 -19.472 -21.116  0.00  0.00    +0.008 C 
ATOM     15  C   UNL     1      35.330 -18.080 -21.069  0.00  0.00    +0.025 C 
ATOM     16  C   UNL     1      34.987 -20.124 -22.310  0.00  0.00    +0.001 C 
ATOM     17  C   UNL     1      35.072 -17.337 -22.221  0.00  0.00    +0.143 C 
ATOM     18  C   UNL     1      34.728 -19.381 -23.462  0.00  0.00    +0.002 C 
ATOM     19  C   UNL     1      34.770 -17.988 -23.416  0.00  0.00    +0.024 C 
BRANCH  17  22
ATOM     20  O   UNL     1      35.381 -15.284 -23.223  0.00  0.00    -0.126 OA
ATOM     21  O   UNL     1      34.881 -15.339 -21.085  0.00  0.00    -0.126 OA
ATOM     22  N   UNL     1      35.113 -15.919 -22.174  0.00  0.00    +0.058 N 
ENDBRANCH  17  22
ENDBRANCH  13  14
BRANCH   4  23
ATOM     23  C   UNL     1      33.824 -24.601 -14.477  0.00  0.00    +0.098 C 
BRANCH  23  24
ATOM     24  C   UNL     1      32.806 -23.833 -13.637  0.00  0.00    -0.001 C 
BRANCH  24  25
ATOM     25  C   UNL     1      31.627 -24.677 -13.145  0.00  0.00    -0.075 C 
BRANCH  25  27
ATOM     26  O   UNL     1      28.869 -23.323 -16.004  0.00  0.00    -0.358 OA
ATOM     27  N   UNL     1      30.374 -24.291 -13.791  0.00  0.00    +0.390 N 
ATOM     28  C   UNL     1      30.114 -25.130 -14.970  0.00  0.00    -0.045 C 
ATOM     29  C   UNL     1      30.400 -22.874 -14.178  0.00  0.00    -0.045 C 
ATOM     30  C   UNL     1      28.809 -24.701 -15.633  0.00  0.00    +0.119 C 
ATOM     31  C   UNL     1      29.087 -22.498 -14.859  0.00  0.00    +0.119 C 
ATOM     32  H   UNL     1      29.620 -24.431 -13.119  0.00  0.00    -0.079 HD
ENDBRANCH  25  27
ENDBRANCH  24  25
ENDBRANCH  23  24
ENDBRANCH   4  23
TORSDOF 6
ENDMDL
MODEL 7
REMARK VINA RESULT:      -9.4      2.428     10.052
REMARK  Name = 4470566
REMARK  6 active torsions:
REMARK  status: ('A' for Active; 'I' for Inactive)
REMARK    1  A    between atoms: N_4  and  C_23
REMARK    2  A    between atoms: C_13  and  C_14
REMARK    3  A    between atoms: C_17  and  N_22
REMARK    4  A    between atoms: C_23  and  C_24
REMARK    5  A    between atoms: C_24  and  C_25
REMARK    6  A    between atoms: C_25  and  N_27
REMARK                            x       y       z     vdW  Elec       q    Type
REMARK                         _______ _______ _______ _____ _____    ______ ____
ROOT
ATOM      1  S   UNL     1      33.079 -21.088 -19.496  0.00  0.00    -0.086 S 
ATOM      2  S   UNL     1      36.823 -23.193 -15.288  0.00  0.00    -0.017 S 
ATOM      3  O   UNL     1      31.960 -24.567 -14.542  0.00  0.00    -0.268 OA
ATOM      4  N   UNL     1      34.285 -24.103 -14.608  0.00  0.00    -0.237 N 
ATOM      5  N   UNL     1      34.322 -22.908 -16.403  0.00  0.00    -0.244 N 
ATOM      6  C   UNL     1      33.027 -23.265 -16.216  0.00  0.00    +0.112 C 
ATOM      7  C   UNL     1      34.400 -22.144 -17.536  0.00  0.00    +0.064 C 
ATOM      8  C   UNL     1      35.182 -23.396 -15.430  0.00  0.00    +0.152 C 
ATOM      9  C   UNL     1      32.953 -24.059 -15.038  0.00  0.00    +0.268 C 
ATOM     10  C   UNL     1      33.126 -22.038 -18.046  0.00  0.00    +0.045 C 
ATOM     11  C   UNL     1      32.223 -22.761 -17.199  0.00  0.00    +0.028 C 
ATOM     12  C   UNL     1      35.376 -21.459 -18.308  0.00  0.00    +0.022 C 
ATOM     13  C   UNL     1      34.779 -20.850 -19.392  0.00  0.00    +0.031 C 
ENDROOT
BRANCH  13  14
ATOM     14  C   UNL     1      35.411 -20.056 -20.422  0.00  0.00    +0.008 C 
ATOM     15  C   UNL     1      34.675 -19.641 -21.529  0.00  0.00    +0.025 C 
ATOM     16  C   UNL     1      36.754 -19.708 -20.301  0.00  0.00    +0.001 C 
ATOM     17  C   UNL     1      35.286 -18.873 -22.521  0.00  0.00    +0.143 C 
ATOM     18  C   UNL     1      37.365 -18.940 -21.293  0.00  0.00    +0.002 C 
ATOM     19  C   UNL     1      36.630 -18.523 -22.402  0.00  0.00    +0.024 C 
BRANCH  17  22
ATOM     20  O   UNL     1      33.897 -19.305 -24.310  0.00  0.00    -0.126 OA
ATOM     21  O   UNL     1      34.540 -17.235 -23.962  0.00  0.00    -0.126 OA
ATOM     22  N   UNL     1      34.538 -18.451 -23.651  0.00  0.00    +0.058 N 
ENDBRANCH  17  22
ENDBRANCH  13  14
BRANCH   4  23
ATOM     23  C   UNL     1      34.673 -24.827 -13.405  0.00  0.00    +0.098 C 
BRANCH  23  24
ATOM     24  C   UNL     1      35.445 -23.955 -12.419  0.00  0.00    -0.001 C 
BRANCH  24  25
ATOM     25  C   UNL     1      36.741 -24.583 -11.898  0.00  0.00    -0.075 C 
BRANCH  25  27
ATOM     26  O   UNL     1      39.536 -26.899 -14.005  0.00  0.00    -0.358 OA
ATOM     27  N   UNL     1      37.558 -25.127 -12.981  0.00  0.00    +0.390 N 
ATOM     28  C   UNL     1      37.281 -26.557 -13.177  0.00  0.00    -0.045 C 
ATOM     29  C   UNL     1      38.988 -24.924 -12.708  0.00  0.00    -0.045 C 
ATOM     30  C   UNL     1      38.154 -27.104 -14.303  0.00  0.00    +0.119 C 
ATOM     31  C   UNL     1      39.820 -25.509 -13.846  0.00  0.00    +0.119 C 
ATOM     32  H   UNL     1      37.316 -24.627 -13.836  0.00  0.00    -0.079 HD
ENDBRANCH  25  27
ENDBRANCH  24  25
ENDBRANCH  23  24
ENDBRANCH   4  23
TORSDOF 6
ENDMDL
MODEL 8
REMARK VINA RESULT:      -9.3      7.498     15.278
REMARK  Name = 4470566
REMARK  6 active torsions:
REMARK  status: ('A' for Active; 'I' for Inactive)
REMARK    1  A    between atoms: N_4  and  C_23
REMARK    2  A    between atoms: C_13  and  C_14
REMARK    3  A    between atoms: C_17  and  N_22
REMARK    4  A    between atoms: C_23  and  C_24
REMARK    5  A    between atoms: C_24  and  C_25
REMARK    6  A    between atoms: C_25  and  N_27
REMARK                            x       y       z     vdW  Elec       q    Type
REMARK                         _______ _______ _______ _____ _____    ______ ____
ROOT
ATOM      1  S   UNL     1      31.626  -7.737 -20.277  0.00  0.00    -0.086 S 
ATOM      2  S   UNL     1      33.389 -12.062 -24.064  0.00  0.00    -0.017 S 
ATOM      3  O   UNL     1      32.274 -13.794 -19.391  0.00  0.00    -0.268 OA
ATOM      4  N   UNL     1      32.862 -13.310 -21.637  0.00  0.00    -0.237 N 
ATOM      5  N   UNL     1      32.532 -11.179 -21.602  0.00  0.00    -0.244 N 
ATOM      6  C   UNL     1      32.234 -11.626 -20.356  0.00  0.00    +0.112 C 
ATOM      7  C   UNL     1      32.339  -9.824 -21.632  0.00  0.00    +0.064 C 
ATOM      8  C   UNL     1      32.938 -12.180 -22.472  0.00  0.00    +0.152 C 
ATOM      9  C   UNL     1      32.437 -13.034 -20.331  0.00  0.00    +0.268 C 
ATOM     10  C   UNL     1      31.913  -9.445 -20.380  0.00  0.00    +0.045 C 
ATOM     11  C   UNL     1      31.840 -10.604 -19.540  0.00  0.00    +0.028 C 
ATOM     12  C   UNL     1      32.444  -8.742 -22.546  0.00  0.00    +0.022 C 
ATOM     13  C   UNL     1      32.084  -7.564 -21.926  0.00  0.00    +0.031 C 
ENDROOT
BRANCH  13  14
ATOM     14  C   UNL     1      32.052  -6.236 -22.497  0.00  0.00    +0.008 C 
ATOM     15  C   UNL     1      31.311  -5.231 -21.878  0.00  0.00    +0.025 C 
ATOM     16  C   UNL     1      32.764  -5.966 -23.663  0.00  0.00    +0.001 C 
ATOM     17  C   UNL     1      31.283  -3.950 -22.429  0.00  0.00    +0.143 C 
ATOM     18  C   UNL     1      32.735  -4.685 -24.214  0.00  0.00    +0.002 C 
ATOM     19  C   UNL     1      31.994  -3.677 -23.596  0.00  0.00    +0.024 C 
BRANCH  17  22
ATOM     20  O   UNL     1      29.369  -3.187 -21.393  0.00  0.00    -0.126 OA
ATOM     21  O   UNL     1      31.037  -1.786 -21.673  0.00  0.00    -0.126 OA
ATOM     22  N   UNL     1      30.527  -2.925 -21.801  0.00  0.00    +0.058 N 
ENDBRANCH  17  22
ENDBRANCH  13  14
BRANCH   4  23
ATOM     23  C   UNL     1      33.189 -14.665 -22.059  0.00  0.00    +0.098 C 
BRANCH  23  24
ATOM     24  C   UNL     1      34.672 -14.990 -21.888  0.00  0.00    -0.001 C 
BRANCH  24  25
ATOM     25  C   UNL     1      35.300 -15.725 -23.075  0.00  0.00    -0.075 C 
BRANCH  25  27
ATOM     26  O   UNL     1      34.666 -19.694 -21.867  0.00  0.00    -0.358 OA
ATOM     27  N   UNL     1      35.524 -17.140 -22.785  0.00  0.00    +0.390 N 
ATOM     28  C   UNL     1      34.631 -17.986 -23.589  0.00  0.00    -0.045 C 
ATOM     29  C   UNL     1      35.326 -17.416 -21.355  0.00  0.00    -0.045 C 
ATOM     30  C   UNL     1      34.873 -19.456 -23.259  0.00  0.00    +0.119 C 
ATOM     31  C   UNL     1      35.554 -18.900 -21.078  0.00  0.00    +0.119 C 
ATOM     32  H   UNL     1      36.489 -17.360 -23.029  0.00  0.00    -0.079 HD
ENDBRANCH  25  27
ENDBRANCH  24  25
ENDBRANCH  23  24
ENDBRANCH   4  23
TORSDOF 6
ENDMDL
MODEL 9
REMARK VINA RESULT:      -9.3      2.369     10.654
REMARK  Name = 4470566
REMARK  6 active torsions:
REMARK  status: ('A' for Active; 'I' for Inactive)
REMARK    1  A    between atoms: N_4  and  C_23
REMARK    2  A    between atoms: C_13  and  C_14
REMARK    3  A    between atoms: C_17  and  N_22
REMARK    4  A    between atoms: C_23  and  C_24
REMARK    5  A    between atoms: C_24  and  C_25
REMARK    6  A    between atoms: C_25  and  N_27
REMARK                            x       y       z     vdW  Elec       q    Type
REMARK                         _______ _______ _______ _____ _____    ______ ____
ROOT
ATOM      1  S   UNL     1      36.978 -19.561 -20.519  0.00  0.00    -0.086 S 
ATOM      2  S   UNL     1      32.359 -22.446 -17.971  0.00  0.00    -0.017 S 
ATOM      3  O   UNL     1      36.811 -23.261 -15.602  0.00  0.00    -0.268 OA
ATOM      4  N   UNL     1      34.609 -23.086 -16.469  0.00  0.00    -0.237 N 
ATOM      5  N   UNL     1      35.021 -21.765 -18.123  0.00  0.00    -0.244 N 
ATOM      6  C   UNL     1      36.210 -21.973 -17.504  0.00  0.00    +0.112 C 
ATOM      7  C   UNL     1      35.230 -20.928 -19.186  0.00  0.00    +0.064 C 
ATOM      8  C   UNL     1      33.959 -22.432 -17.532  0.00  0.00    +0.152 C 
ATOM      9  C   UNL     1      35.987 -22.843 -16.400  0.00  0.00    +0.268 C 
ATOM     10  C   UNL     1      36.572 -20.624 -19.210  0.00  0.00    +0.045 C 
ATOM     11  C   UNL     1      37.222 -21.295 -18.123  0.00  0.00    +0.028 C 
ATOM     12  C   UNL     1      34.491 -20.307 -20.229  0.00  0.00    +0.022 C 
ATOM     13  C   UNL     1      35.330 -19.543 -21.012  0.00  0.00    +0.031 C 
ENDROOT
BRANCH  13  14
ATOM     14  C   UNL     1      34.984 -18.752 -22.171  0.00  0.00    +0.008 C 
ATOM     15  C   UNL     1      35.014 -17.361 -22.098  0.00  0.00    +0.025 C 
ATOM     16  C   UNL     1      34.621 -19.384 -23.359  0.00  0.00    +0.001 C 
ATOM     17  C   UNL     1      34.682 -16.599 -23.218  0.00  0.00    +0.143 C 
ATOM     18  C   UNL     1      34.288 -18.622 -24.478  0.00  0.00    +0.002 C 
ATOM     19  C   UNL     1      34.319 -17.229 -24.407  0.00  0.00    +0.024 C 
BRANCH  17  22
ATOM     20  O   UNL     1      35.209 -14.635 -22.130  0.00  0.00    -0.126 OA
ATOM     21  O   UNL     1      34.237 -14.514 -24.096  0.00  0.00    -0.126 OA
ATOM     22  N   UNL     1      34.711 -15.181 -23.145  0.00  0.00    +0.058 N 
ENDBRANCH  17  22
ENDBRANCH  13  14
BRANCH   4  23
ATOM     23  C   UNL     1      33.940 -23.948 -15.504  0.00  0.00    +0.098 C 
BRANCH  23  24
ATOM     24  C   UNL     1      33.865 -23.322 -14.113  0.00  0.00    -0.001 C 
BRANCH  24  25
ATOM     25  C   UNL     1      34.318 -24.246 -12.978  0.00  0.00    -0.075 C 
BRANCH  25  27
ATOM     26  O   UNL     1      38.025 -24.521 -11.031  0.00  0.00    -0.358 OA
ATOM     27  N   UNL     1      35.720 -24.032 -12.627  0.00  0.00    +0.390 N 
ATOM     28  C   UNL     1      36.485 -25.281 -12.743  0.00  0.00    -0.045 C 
ATOM     29  C   UNL     1      35.840 -23.493 -11.265  0.00  0.00    -0.045 C 
ATOM     30  C   UNL     1      37.941 -25.036 -12.360  0.00  0.00    +0.119 C 
ATOM     31  C   UNL     1      37.312 -23.288 -10.918  0.00  0.00    +0.119 C 
ATOM     32  H   UNL     1      36.106 -23.351 -13.282  0.00  0.00    -0.079 HD
ENDBRANCH  25  27
ENDBRANCH  24  25
ENDBRANCH  23  24
ENDBRANCH   4  23
TORSDOF 6
ENDMDL
