MODEL 1
REMARK VINA RESULT:     -11.9      0.000      0.000
REMARK  Name = 447736
REMARK  4 active torsions:
REMARK  status: ('A' for Active; 'I' for Inactive)
REMARK    1  A    between atoms: N_2  and  C_13
REMARK    2  A    between atoms: C_3  and  C_20
REMARK    3  A    between atoms: C_6  and  C_17
REMARK    4  A    between atoms: C_28  and  C_32
REMARK                            x       y       z     vdW  Elec       q    Type
REMARK                         _______ _______ _______ _____ _____    ______ ____
ROOT
ATOM      1  O   UNL     1      34.145 -23.999 -17.708  0.00  0.00    -0.270 OA
ATOM      2  N   UNL     1      34.943 -22.340 -16.246  0.00  0.00    -0.280 N 
ATOM      3  C   UNL     1      34.467 -22.841 -17.465  0.00  0.00    +0.249 C 
ATOM      4  H   UNL     1      35.155 -21.378 -16.228  0.00  0.00    +0.155 HD
ENDROOT
BRANCH   2  13
ATOM      5  N   UNL     1      38.073 -25.685 -12.079  0.00  0.00    +0.388 N 
ATOM      6  C   UNL     1      38.059 -24.720 -13.196  0.00  0.00    -0.039 C 
ATOM      7  C   UNL     1      36.664 -24.223 -13.555  0.00  0.00    -0.045 C 
ATOM      8  C   UNL     1      35.594 -24.400 -12.655  0.00  0.00    -0.030 C 
ATOM      9  C   UNL     1      35.798 -25.137 -11.355  0.00  0.00    +0.003 C 
ATOM     10  C   UNL     1      37.270 -25.199 -10.958  0.00  0.00    -0.076 C 
ATOM     11  C   UNL     1      36.430 -23.513 -14.744  0.00  0.00    +0.008 C 
ATOM     12  C   UNL     1      34.315 -23.928 -12.982  0.00  0.00    -0.003 C 
ATOM     13  C   UNL     1      35.155 -23.035 -15.055  0.00  0.00    +0.050 C 
ATOM     14  C   UNL     1      34.097 -23.248 -14.178  0.00  0.00    +0.014 C 
ATOM     15  H   UNL     1      39.035 -25.819 -11.766  0.00  0.00    -0.084 HD
ATOM     16  H   UNL     1      37.677 -26.566 -12.405  0.00  0.00    -0.084 HD
BRANCH   6  17
ATOM     17  C   UNL     1      38.782 -25.396 -14.368  0.00  0.00    -0.015 C 
ATOM     18  C   UNL     1      40.264 -25.564 -14.052  0.00  0.00    -0.002 C 
ATOM     19  C   UNL     1      38.138 -26.742 -14.683  0.00  0.00    -0.002 C 
ENDBRANCH   6  17
ENDBRANCH   2  13
BRANCH   3  20
ATOM     20  C   UNL     1      34.376 -21.850 -18.568  0.00  0.00    +0.054 C 
ATOM     21  C   UNL     1      35.458 -20.269 -20.023  0.00  0.00    +0.000 C 
ATOM     22  C   UNL     1      35.527 -21.210 -18.982  0.00  0.00    +0.005 C 
ATOM     23  C   UNL     1      34.208 -19.996 -20.629  0.00  0.00    +0.000 C 
ATOM     24  C   UNL     1      33.150 -21.602 -19.139  0.00  0.00    +0.005 C 
ATOM     25  C   UNL     1      33.063 -20.671 -20.175  0.00  0.00    +0.000 C 
ATOM     26  C   UNL     1      34.140 -19.056 -21.669  0.00  0.00    +0.003 C 
ATOM     27  C   UNL     1      36.603 -19.595 -20.477  0.00  0.00    +0.000 C 
ATOM     28  C   UNL     1      35.287 -18.395 -22.108  0.00  0.00    +0.031 C 
ATOM     29  C   UNL     1      36.517 -18.664 -21.512  0.00  0.00    +0.003 C 
BRANCH  28  32
ATOM     30  N   UNL     1      34.601 -17.743 -24.403  0.00  0.00    -0.343 N 
ATOM     31  N   UNL     1      35.697 -16.210 -23.021  0.00  0.00    -0.285 NA
ATOM     32  C   UNL     1      35.200 -17.423 -23.186  0.00  0.00    +0.117 C 
ATOM     33  H   UNL     1      34.552 -17.069 -25.120  0.00  0.00    +0.144 HD
ATOM     34  H   UNL     1      34.227 -18.642 -24.546  0.00  0.00    +0.144 HD
ATOM     35  H   UNL     1      35.638 -15.551 -23.750  0.00  0.00    +0.188 HD
ENDBRANCH  28  32
ENDBRANCH   3  20
TORSDOF 4
ENDMDL
MODEL 2
REMARK VINA RESULT:     -11.3      2.210     10.561
REMARK  Name = 447736
REMARK  4 active torsions:
REMARK  status: ('A' for Active; 'I' for Inactive)
REMARK    1  A    between atoms: N_2  and  C_13
REMARK    2  A    between atoms: C_3  and  C_20
REMARK    3  A    between atoms: C_6  and  C_17
REMARK    4  A    between atoms: C_28  and  C_32
REMARK                            x       y       z     vdW  Elec       q    Type
REMARK                         _______ _______ _______ _____ _____    ______ ____
ROOT
ATOM      1  O   UNL     1      33.533 -21.250 -19.877  0.00  0.00    -0.270 OA
ATOM      2  N   UNL     1      35.475 -19.952 -20.136  0.00  0.00    -0.280 N 
ATOM      3  C   UNL     1      34.658 -20.912 -19.526  0.00  0.00    +0.249 C 
ATOM      4  H   UNL     1      36.355 -19.804 -19.719  0.00  0.00    +0.155 HD
ENDROOT
BRANCH   2  13
ATOM      5  N   UNL     1      34.236 -14.805 -23.350  0.00  0.00    +0.388 N 
ATOM      6  C   UNL     1      34.835 -15.467 -22.174  0.00  0.00    -0.039 C 
ATOM      7  C   UNL     1      34.860 -16.987 -22.276  0.00  0.00    -0.045 C 
ATOM      8  C   UNL     1      34.670 -17.617 -23.523  0.00  0.00    -0.030 C 
ATOM      9  C   UNL     1      34.379 -16.804 -24.758  0.00  0.00    +0.003 C 
ATOM     10  C   UNL     1      34.789 -15.343 -24.591  0.00  0.00    -0.076 C 
ATOM     11  C   UNL     1      35.148 -17.785 -21.157  0.00  0.00    +0.008 C 
ATOM     12  C   UNL     1      34.709 -19.016 -23.616  0.00  0.00    -0.003 C 
ATOM     13  C   UNL     1      35.196 -19.177 -21.263  0.00  0.00    +0.050 C 
ATOM     14  C   UNL     1      34.970 -19.792 -22.490  0.00  0.00    +0.014 C 
ATOM     15  H   UNL     1      34.431 -13.804 -23.305  0.00  0.00    -0.084 HD
ATOM     16  H   UNL     1      33.230 -14.974 -23.342  0.00  0.00    -0.084 HD
BRANCH   6  17
ATOM     17  C   UNL     1      34.071 -14.954 -20.946  0.00  0.00    -0.015 C 
ATOM     18  C   UNL     1      35.000 -14.152 -20.041  0.00  0.00    -0.002 C 
ATOM     19  C   UNL     1      32.876 -14.113 -21.379  0.00  0.00    -0.002 C 
ENDBRANCH   6  17
ENDBRANCH   2  13
BRANCH   3  20
ATOM     20  C   UNL     1      35.228 -21.554 -18.313  0.00  0.00    +0.054 C 
ATOM     21  C   UNL     1      34.941 -22.982 -16.399  0.00  0.00    +0.000 C 
ATOM     22  C   UNL     1      34.418 -22.369 -17.550  0.00  0.00    +0.005 C 
ATOM     23  C   UNL     1      36.292 -22.751 -16.044  0.00  0.00    +0.000 C 
ATOM     24  C   UNL     1      36.543 -21.312 -17.990  0.00  0.00    +0.005 C 
ATOM     25  C   UNL     1      37.080 -21.912 -16.851  0.00  0.00    +0.000 C 
ATOM     26  C   UNL     1      36.815 -23.364 -14.894  0.00  0.00    +0.003 C 
ATOM     27  C   UNL     1      34.154 -23.820 -15.593  0.00  0.00    +0.000 C 
ATOM     28  C   UNL     1      36.018 -24.193 -14.105  0.00  0.00    +0.031 C 
ATOM     29  C   UNL     1      34.690 -24.421 -14.454  0.00  0.00    +0.003 C 
BRANCH  28  32
ATOM     30  N   UNL     1      37.951 -24.888 -12.710  0.00  0.00    -0.343 N 
ATOM     31  N   UNL     1      35.768 -25.341 -12.009  0.00  0.00    -0.285 NA
ATOM     32  C   UNL     1      36.575 -24.820 -12.917  0.00  0.00    +0.117 C 
ATOM     33  H   UNL     1      38.306 -25.316 -11.897  0.00  0.00    +0.144 HD
ATOM     34  H   UNL     1      38.568 -24.508 -13.376  0.00  0.00    +0.144 HD
ATOM     35  H   UNL     1      36.143 -25.765 -11.204  0.00  0.00    +0.188 HD
ENDBRANCH  28  32
ENDBRANCH   3  20
TORSDOF 4
ENDMDL
MODEL 3
REMARK VINA RESULT:     -11.0      8.848     15.786
REMARK  Name = 447736
REMARK  4 active torsions:
REMARK  status: ('A' for Active; 'I' for Inactive)
REMARK    1  A    between atoms: N_2  and  C_13
REMARK    2  A    between atoms: C_3  and  C_20
REMARK    3  A    between atoms: C_6  and  C_17
REMARK    4  A    between atoms: C_28  and  C_32
REMARK                            x       y       z     vdW  Elec       q    Type
REMARK                         _______ _______ _______ _____ _____    ______ ____
ROOT
ATOM      1  O   UNL     1      31.045 -11.143 -22.147  0.00  0.00    -0.270 OA
ATOM      2  N   UNL     1      33.095 -10.031 -22.447  0.00  0.00    -0.280 N 
ATOM      3  C   UNL     1      32.249 -11.146 -22.379  0.00  0.00    +0.249 C 
ATOM      4  H   UNL     1      34.041 -10.217 -22.645  0.00  0.00    +0.155 HD
ENDROOT
BRANCH   2  13
ATOM      5  N   UNL     1      31.978  -4.167 -24.098  0.00  0.00    +0.388 N 
ATOM      6  C   UNL     1      32.023  -5.605 -24.431  0.00  0.00    -0.039 C 
ATOM      7  C   UNL     1      32.251  -6.505 -23.223  0.00  0.00    -0.045 C 
ATOM      8  C   UNL     1      32.056  -6.005 -21.919  0.00  0.00    -0.030 C 
ATOM      9  C   UNL     1      31.682  -4.561 -21.698  0.00  0.00    +0.003 C 
ATOM     10  C   UNL     1      31.099  -3.922 -22.956  0.00  0.00    -0.076 C 
ATOM     11  C   UNL     1      32.579  -7.861 -23.379  0.00  0.00    +0.008 C 
ATOM     12  C   UNL     1      32.252  -6.840 -20.810  0.00  0.00    -0.003 C 
ATOM     13  C   UNL     1      32.760  -8.688 -22.268  0.00  0.00    +0.050 C 
ATOM     14  C   UNL     1      32.603  -8.176 -20.985  0.00  0.00    +0.014 C 
ATOM     15  H   UNL     1      31.629  -3.648 -24.904  0.00  0.00    -0.084 HD
ATOM     16  H   UNL     1      32.920  -3.860 -23.855  0.00  0.00    -0.084 HD
BRANCH   6  17
ATOM     17  C   UNL     1      33.091  -5.769 -25.520  0.00  0.00    -0.015 C 
ATOM     18  C   UNL     1      32.832  -4.800 -26.668  0.00  0.00    -0.002 C 
ATOM     19  C   UNL     1      34.482  -5.555 -24.934  0.00  0.00    -0.002 C 
ENDBRANCH   6  17
ENDBRANCH   2  13
BRANCH   3  20
ATOM     20  C   UNL     1      32.912 -12.460 -22.588  0.00  0.00    +0.054 C 
ATOM     21  C   UNL     1      33.980 -14.409 -21.667  0.00  0.00    +0.000 C 
ATOM     22  C   UNL     1      33.350 -13.165 -21.486  0.00  0.00    +0.005 C 
ATOM     23  C   UNL     1      34.153 -14.913 -22.978  0.00  0.00    +0.000 C 
ATOM     24  C   UNL     1      33.069 -12.927 -23.872  0.00  0.00    +0.005 C 
ATOM     25  C   UNL     1      33.693 -14.159 -24.070  0.00  0.00    +0.000 C 
ATOM     26  C   UNL     1      34.783 -16.155 -23.158  0.00  0.00    +0.003 C 
ATOM     27  C   UNL     1      34.440 -15.161 -20.575  0.00  0.00    +0.000 C 
ATOM     28  C   UNL     1      35.234 -16.890 -22.062  0.00  0.00    +0.031 C 
ATOM     29  C   UNL     1      35.063 -16.394 -20.772  0.00  0.00    +0.003 C 
BRANCH  28  32
ATOM     30  N   UNL     1      35.198 -19.256 -22.814  0.00  0.00    -0.343 N 
ATOM     31  N   UNL     1      37.152 -18.331 -21.925  0.00  0.00    -0.285 NA
ATOM     32  C   UNL     1      35.885 -18.174 -22.265  0.00  0.00    +0.117 C 
ATOM     33  H   UNL     1      35.659 -20.117 -22.944  0.00  0.00    +0.144 HD
ATOM     34  H   UNL     1      34.253 -19.160 -23.072  0.00  0.00    +0.144 HD
ATOM     35  H   UNL     1      37.594 -19.200 -22.062  0.00  0.00    +0.188 HD
ENDBRANCH  28  32
ENDBRANCH   3  20
TORSDOF 4
ENDMDL
MODEL 4
REMARK VINA RESULT:     -11.0      8.871     15.694
REMARK  Name = 447736
REMARK  4 active torsions:
REMARK  status: ('A' for Active; 'I' for Inactive)
REMARK    1  A    between atoms: N_2  and  C_13
REMARK    2  A    between atoms: C_3  and  C_20
REMARK    3  A    between atoms: C_6  and  C_17
REMARK    4  A    between atoms: C_28  and  C_32
REMARK                            x       y       z     vdW  Elec       q    Type
REMARK                         _______ _______ _______ _____ _____    ______ ____
ROOT
ATOM      1  O   UNL     1      30.780 -11.118 -22.163  0.00  0.00    -0.270 OA
ATOM      2  N   UNL     1      32.726  -9.943 -21.566  0.00  0.00    -0.280 N 
ATOM      3  C   UNL     1      31.946 -11.086 -21.785  0.00  0.00    +0.249 C 
ATOM      4  H   UNL     1      33.649 -10.102 -21.260  0.00  0.00    +0.155 HD
ENDROOT
BRANCH   2  13
ATOM      5  N   UNL     1      31.963  -4.554 -24.521  0.00  0.00    +0.388 N 
ATOM      6  C   UNL     1      32.083  -6.026 -24.551  0.00  0.00    -0.039 C 
ATOM      7  C   UNL     1      32.053  -6.669 -23.171  0.00  0.00    -0.045 C 
ATOM      8  C   UNL     1      31.583  -5.941 -22.059  0.00  0.00    -0.030 C 
ATOM      9  C   UNL     1      31.165  -4.500 -22.205  0.00  0.00    +0.003 C 
ATOM     10  C   UNL     1      30.861  -4.138 -23.656  0.00  0.00    -0.076 C 
ATOM     11  C   UNL     1      32.412  -8.014 -22.989  0.00  0.00    +0.008 C 
ATOM     12  C   UNL     1      31.542  -6.541 -20.792  0.00  0.00    -0.003 C 
ATOM     13  C   UNL     1      32.356  -8.607 -21.725  0.00  0.00    +0.050 C 
ATOM     14  C   UNL     1      31.928  -7.869 -20.627  0.00  0.00    +0.014 C 
ATOM     15  H   UNL     1      31.791  -4.214 -25.467  0.00  0.00    -0.084 HD
ATOM     16  H   UNL     1      32.830  -4.164 -24.152  0.00  0.00    -0.084 HD
BRANCH   6  17
ATOM     17  C   UNL     1      33.359  -6.344 -25.341  0.00  0.00    -0.015 C 
ATOM     18  C   UNL     1      33.295  -5.718 -26.729  0.00  0.00    -0.002 C 
ATOM     19  C   UNL     1      34.588  -5.856 -24.582  0.00  0.00    -0.002 C 
ENDBRANCH   6  17
ENDBRANCH   2  13
BRANCH   3  20
ATOM     20  C   UNL     1      32.619 -12.380 -21.498  0.00  0.00    +0.054 C 
ATOM     21  C   UNL     1      33.928 -14.246 -22.264  0.00  0.00    +0.000 C 
ATOM     22  C   UNL     1      33.288 -13.021 -22.519  0.00  0.00    +0.005 C 
ATOM     23  C   UNL     1      33.873 -14.798 -20.961  0.00  0.00    +0.000 C 
ATOM     24  C   UNL     1      32.550 -12.895 -20.225  0.00  0.00    +0.005 C 
ATOM     25  C   UNL     1      33.179 -14.110 -19.953  0.00  0.00    +0.000 C 
ATOM     26  C   UNL     1      34.513 -16.022 -20.707  0.00  0.00    +0.003 C 
ATOM     27  C   UNL     1      34.622 -14.934 -23.272  0.00  0.00    +0.000 C 
ATOM     28  C   UNL     1      35.198 -16.691 -21.721  0.00  0.00    +0.031 C 
ATOM     29  C   UNL     1      35.252 -16.148 -23.001  0.00  0.00    +0.003 C 
BRANCH  28  32
ATOM     30  N   UNL     1      37.097 -18.268 -21.990  0.00  0.00    -0.343 N 
ATOM     31  N   UNL     1      35.268 -18.843 -20.653  0.00  0.00    -0.285 NA
ATOM     32  C   UNL     1      35.854 -17.959 -21.441  0.00  0.00    +0.117 C 
ATOM     33  H   UNL     1      37.524 -19.132 -21.787  0.00  0.00    +0.144 HD
ATOM     34  H   UNL     1      37.548 -17.623 -22.581  0.00  0.00    +0.144 HD
ATOM     35  H   UNL     1      35.712 -19.701 -20.463  0.00  0.00    +0.188 HD
ENDBRANCH  28  32
ENDBRANCH   3  20
TORSDOF 4
ENDMDL
MODEL 5
REMARK VINA RESULT:     -10.9      3.276     11.085
REMARK  Name = 447736
REMARK  4 active torsions:
REMARK  status: ('A' for Active; 'I' for Inactive)
REMARK    1  A    between atoms: N_2  and  C_13
REMARK    2  A    between atoms: C_3  and  C_20
REMARK    3  A    between atoms: C_6  and  C_17
REMARK    4  A    between atoms: C_28  and  C_32
REMARK                            x       y       z     vdW  Elec       q    Type
REMARK                         _______ _______ _______ _____ _____    ______ ____
ROOT
ATOM      1  O   UNL     1      34.683 -19.885 -22.303  0.00  0.00    -0.270 OA
ATOM      2  N   UNL     1      34.963 -17.996 -20.931  0.00  0.00    -0.280 N 
ATOM      3  C   UNL     1      34.909 -19.368 -21.214  0.00  0.00    +0.249 C 
ATOM      4  H   UNL     1      35.158 -17.756 -19.996  0.00  0.00    +0.155 HD
ENDROOT
BRANCH   2  13
ATOM      5  N   UNL     1      32.980 -12.436 -22.803  0.00  0.00    +0.388 N 
ATOM      6  C   UNL     1      33.397 -13.349 -21.720  0.00  0.00    -0.039 C 
ATOM      7  C   UNL     1      33.993 -14.658 -22.221  0.00  0.00    -0.045 C 
ATOM      8  C   UNL     1      34.423 -14.776 -23.558  0.00  0.00    -0.030 C 
ATOM      9  C   UNL     1      34.243 -13.635 -24.527  0.00  0.00    +0.003 C 
ATOM     10  C   UNL     1      34.032 -12.304 -23.809  0.00  0.00    -0.076 C 
ATOM     11  C   UNL     1      34.201 -15.741 -21.351  0.00  0.00    +0.008 C 
ATOM     12  C   UNL     1      34.986 -15.977 -24.013  0.00  0.00    -0.003 C 
ATOM     13  C   UNL     1      34.774 -16.930 -21.811  0.00  0.00    +0.050 C 
ATOM     14  C   UNL     1      35.160 -17.050 -23.141  0.00  0.00    +0.014 C 
ATOM     15  H   UNL     1      32.781 -11.517 -22.407  0.00  0.00    -0.084 HD
ATOM     16  H   UNL     1      32.148 -12.820 -23.251  0.00  0.00    -0.084 HD
BRANCH   6  17
ATOM     17  C   UNL     1      32.172 -13.547 -20.818  0.00  0.00    -0.015 C 
ATOM     18  C   UNL     1      32.589 -14.144 -19.479  0.00  0.00    -0.002 C 
ATOM     19  C   UNL     1      31.441 -12.224 -20.618  0.00  0.00    -0.002 C 
ENDBRANCH   6  17
ENDBRANCH   2  13
BRANCH   3  20
ATOM     20  C   UNL     1      35.127 -20.266 -20.051  0.00  0.00    +0.054 C 
ATOM     21  C   UNL     1      34.235 -21.794 -18.421  0.00  0.00    +0.000 C 
ATOM     22  C   UNL     1      34.046 -20.942 -19.522  0.00  0.00    +0.005 C 
ATOM     23  C   UNL     1      35.533 -21.944 -17.876  0.00  0.00    +0.000 C 
ATOM     24  C   UNL     1      36.397 -20.394 -19.539  0.00  0.00    +0.005 C 
ATOM     25  C   UNL     1      36.603 -21.236 -18.446  0.00  0.00    +0.000 C 
ATOM     26  C   UNL     1      35.721 -22.796 -16.776  0.00  0.00    +0.003 C 
ATOM     27  C   UNL     1      33.165 -22.502 -17.851  0.00  0.00    +0.000 C 
ATOM     28  C   UNL     1      34.646 -23.491 -16.222  0.00  0.00    +0.031 C 
ATOM     29  C   UNL     1      33.370 -23.344 -16.759  0.00  0.00    +0.003 C 
BRANCH  28  32
ATOM     30  N   UNL     1      33.959 -24.404 -14.017  0.00  0.00    -0.343 N 
ATOM     31  N   UNL     1      35.921 -25.153 -15.043  0.00  0.00    -0.285 NA
ATOM     32  C   UNL     1      34.857 -24.369 -15.082  0.00  0.00    +0.117 C 
ATOM     33  H   UNL     1      34.121 -25.007 -13.255  0.00  0.00    +0.144 HD
ATOM     34  H   UNL     1      33.162 -23.826 -14.027  0.00  0.00    +0.144 HD
ATOM     35  H   UNL     1      36.065 -25.748 -14.272  0.00  0.00    +0.188 HD
ENDBRANCH  28  32
ENDBRANCH   3  20
TORSDOF 4
ENDMDL
MODEL 6
REMARK VINA RESULT:     -10.9      1.109      2.670
REMARK  Name = 447736
REMARK  4 active torsions:
REMARK  status: ('A' for Active; 'I' for Inactive)
REMARK    1  A    between atoms: N_2  and  C_13
REMARK    2  A    between atoms: C_3  and  C_20
REMARK    3  A    between atoms: C_6  and  C_17
REMARK    4  A    between atoms: C_28  and  C_32
REMARK                            x       y       z     vdW  Elec       q    Type
REMARK                         _______ _______ _______ _____ _____    ______ ____
ROOT
ATOM      1  O   UNL     1      34.383 -23.277 -17.446  0.00  0.00    -0.270 OA
ATOM      2  N   UNL     1      36.439 -22.217 -17.028  0.00  0.00    -0.280 N 
ATOM      3  C   UNL     1      35.220 -22.414 -17.689  0.00  0.00    +0.249 C 
ATOM      4  H   UNL     1      36.993 -21.472 -17.356  0.00  0.00    +0.155 HD
ENDROOT
BRANCH   2  13
ATOM      5  N   UNL     1      36.367 -25.444 -11.743  0.00  0.00    +0.388 N 
ATOM      6  C   UNL     1      35.686 -24.975 -12.966  0.00  0.00    -0.039 C 
ATOM      7  C   UNL     1      36.616 -24.287 -13.956  0.00  0.00    -0.045 C 
ATOM      8  C   UNL     1      38.013 -24.442 -13.843  0.00  0.00    -0.030 C 
ATOM      9  C   UNL     1      38.609 -25.236 -12.709  0.00  0.00    +0.003 C 
ATOM     10  C   UNL     1      37.589 -26.176 -12.072  0.00  0.00    -0.076 C 
ATOM     11  C   UNL     1      36.109 -23.554 -15.041  0.00  0.00    +0.008 C 
ATOM     12  C   UNL     1      38.867 -23.819 -14.766  0.00  0.00    -0.003 C 
ATOM     13  C   UNL     1      36.966 -22.947 -15.962  0.00  0.00    +0.050 C 
ATOM     14  C   UNL     1      38.344 -23.074 -15.821  0.00  0.00    +0.014 C 
ATOM     15  H   UNL     1      35.739 -26.060 -11.226  0.00  0.00    -0.084 HD
ATOM     16  H   UNL     1      36.617 -24.633 -11.177  0.00  0.00    -0.084 HD
BRANCH   6  17
ATOM     17  C   UNL     1      34.524 -24.085 -12.506  0.00  0.00    -0.015 C 
ATOM     18  C   UNL     1      33.191 -24.702 -12.914  0.00  0.00    -0.002 C 
ATOM     19  C   UNL     1      34.585 -23.872 -10.998  0.00  0.00    -0.002 C 
ENDBRANCH   6  17
ENDBRANCH   2  13
BRANCH   3  20
ATOM     20  C   UNL     1      34.949 -21.482 -18.815  0.00  0.00    +0.054 C 
ATOM     21  C   UNL     1      35.761 -19.885 -20.419  0.00  0.00    +0.000 C 
ATOM     22  C   UNL     1      36.000 -20.771 -19.355  0.00  0.00    +0.005 C 
ATOM     23  C   UNL     1      34.444 -19.739 -20.916  0.00  0.00    +0.000 C 
ATOM     24  C   UNL     1      33.660 -21.359 -19.278  0.00  0.00    +0.005 C 
ATOM     25  C   UNL     1      33.404 -20.483 -20.334  0.00  0.00    +0.000 C 
ATOM     26  C   UNL     1      34.205 -18.854 -21.980  0.00  0.00    +0.003 C 
ATOM     27  C   UNL     1      36.800 -19.142 -21.001  0.00  0.00    +0.000 C 
ATOM     28  C   UNL     1      35.250 -18.124 -22.546  0.00  0.00    +0.031 C 
ATOM     29  C   UNL     1      36.545 -18.267 -22.057  0.00  0.00    +0.003 C 
BRANCH  28  32
ATOM     30  N   UNL     1      35.438 -15.892 -23.619  0.00  0.00    -0.343 N 
ATOM     31  N   UNL     1      34.302 -17.626 -24.697  0.00  0.00    -0.285 NA
ATOM     32  C   UNL     1      34.986 -17.210 -23.646  0.00  0.00    +0.117 C 
ATOM     33  H   UNL     1      35.248 -15.291 -24.375  0.00  0.00    +0.144 HD
ATOM     34  H   UNL     1      35.947 -15.563 -22.843  0.00  0.00    +0.144 HD
ATOM     35  H   UNL     1      34.123 -17.009 -25.443  0.00  0.00    +0.188 HD
ENDBRANCH  28  32
ENDBRANCH   3  20
TORSDOF 4
ENDMDL
MODEL 7
REMARK VINA RESULT:     -10.5      9.919     16.849
REMARK  Name = 447736
REMARK  4 active torsions:
REMARK  status: ('A' for Active; 'I' for Inactive)
REMARK    1  A    between atoms: N_2  and  C_13
REMARK    2  A    between atoms: C_3  and  C_20
REMARK    3  A    between atoms: C_6  and  C_17
REMARK    4  A    between atoms: C_28  and  C_32
REMARK                            x       y       z     vdW  Elec       q    Type
REMARK                         _______ _______ _______ _____ _____    ______ ____
ROOT
ATOM      1  O   UNL     1      30.884  -9.762 -22.773  0.00  0.00    -0.270 OA
ATOM      2  N   UNL     1      32.959  -8.695 -22.491  0.00  0.00    -0.280 N 
ATOM      3  C   UNL     1      32.105  -9.791 -22.673  0.00  0.00    +0.249 C 
ATOM      4  H   UNL     1      33.920  -8.901 -22.430  0.00  0.00    +0.155 HD
ENDROOT
BRANCH   2  13
ATOM      5  N   UNL     1      32.148  -2.853 -24.380  0.00  0.00    +0.388 N 
ATOM      6  C   UNL     1      32.227  -4.296 -24.680  0.00  0.00    -0.039 C 
ATOM      7  C   UNL     1      32.269  -5.177 -23.438  0.00  0.00    -0.045 C 
ATOM      8  C   UNL     1      31.893  -4.653 -22.184  0.00  0.00    -0.030 C 
ATOM      9  C   UNL     1      31.504  -3.204 -22.042  0.00  0.00    +0.003 C 
ATOM     10  C   UNL     1      31.116  -2.582 -23.381  0.00  0.00    -0.076 C 
ATOM     11  C   UNL     1      32.604  -6.538 -23.523  0.00  0.00    +0.008 C 
ATOM     12  C   UNL     1      31.918  -5.470 -21.044  0.00  0.00    -0.003 C 
ATOM     13  C   UNL     1      32.615  -7.347 -22.384  0.00  0.00    +0.050 C 
ATOM     14  C   UNL     1      32.279  -6.812 -21.145  0.00  0.00    +0.014 C 
ATOM     15  H   UNL     1      31.924  -2.346 -25.236  0.00  0.00    -0.084 HD
ATOM     16  H   UNL     1      33.047  -2.548 -24.008  0.00  0.00    -0.084 HD
BRANCH   6  17
ATOM     17  C   UNL     1      33.440  -4.487 -25.600  0.00  0.00    -0.015 C 
ATOM     18  C   UNL     1      33.074  -5.377 -26.782  0.00  0.00    -0.002 C 
ATOM     19  C   UNL     1      33.959  -3.136 -26.078  0.00  0.00    -0.002 C 
ENDBRANCH   6  17
ENDBRANCH   2  13
BRANCH   3  20
ATOM     20  C   UNL     1      32.774 -11.117 -22.721  0.00  0.00    +0.054 C 
ATOM     21  C   UNL     1      33.444 -13.138 -21.601  0.00  0.00    +0.000 C 
ATOM     22  C   UNL     1      32.814 -11.882 -21.573  0.00  0.00    +0.005 C 
ATOM     23  C   UNL     1      34.027 -13.594 -22.808  0.00  0.00    +0.000 C 
ATOM     24  C   UNL     1      33.333 -11.537 -23.905  0.00  0.00    +0.005 C 
ATOM     25  C   UNL     1      33.963 -12.780 -23.951  0.00  0.00    +0.000 C 
ATOM     26  C   UNL     1      34.656 -14.849 -22.835  0.00  0.00    +0.003 C 
ATOM     27  C   UNL     1      33.507 -13.951 -20.458  0.00  0.00    +0.000 C 
ATOM     28  C   UNL     1      34.710 -15.643 -21.690  0.00  0.00    +0.031 C 
ATOM     29  C   UNL     1      34.136 -15.195 -20.503  0.00  0.00    +0.003 C 
BRANCH  28  32
ATOM     30  N   UNL     1      35.810 -17.487 -22.937  0.00  0.00    -0.343 N 
ATOM     31  N   UNL     1      35.549 -17.624 -20.618  0.00  0.00    -0.285 NA
ATOM     32  C   UNL     1      35.366 -16.940 -21.734  0.00  0.00    +0.117 C 
ATOM     33  H   UNL     1      36.253 -18.367 -22.944  0.00  0.00    +0.144 HD
ATOM     34  H   UNL     1      35.681 -16.994 -23.779  0.00  0.00    +0.144 HD
ATOM     35  H   UNL     1      35.993 -18.502 -20.647  0.00  0.00    +0.188 HD
ENDBRANCH  28  32
ENDBRANCH   3  20
TORSDOF 4
ENDMDL
MODEL 8
REMARK VINA RESULT:     -10.3      2.625      4.614
REMARK  Name = 447736
REMARK  4 active torsions:
REMARK  status: ('A' for Active; 'I' for Inactive)
REMARK    1  A    between atoms: N_2  and  C_13
REMARK    2  A    between atoms: C_3  and  C_20
REMARK    3  A    between atoms: C_6  and  C_17
REMARK    4  A    between atoms: C_28  and  C_32
REMARK                            x       y       z     vdW  Elec       q    Type
REMARK                         _______ _______ _______ _____ _____    ______ ____
ROOT
ATOM      1  O   UNL     1      37.528 -20.332 -19.944  0.00  0.00    -0.270 OA
ATOM      2  N   UNL     1      35.368 -20.691 -19.089  0.00  0.00    -0.280 N 
ATOM      3  C   UNL     1      36.314 -20.169 -19.981  0.00  0.00    +0.249 C 
ATOM      4  H   UNL     1      34.428 -20.457 -19.269  0.00  0.00    +0.155 HD
ENDROOT
BRANCH   2  13
ATOM      5  N   UNL     1      33.912 -24.448 -14.385  0.00  0.00    +0.388 N 
ATOM      6  C   UNL     1      33.610 -23.888 -15.717  0.00  0.00    -0.039 C 
ATOM      7  C   UNL     1      34.744 -23.057 -16.302  0.00  0.00    -0.045 C 
ATOM      8  C   UNL     1      36.045 -23.156 -15.767  0.00  0.00    -0.030 C 
ATOM      9  C   UNL     1      36.320 -24.034 -14.573  0.00  0.00    +0.003 C 
ATOM     10  C   UNL     1      35.229 -25.083 -14.372  0.00  0.00    -0.076 C 
ATOM     11  C   UNL     1      34.542 -22.241 -17.427  0.00  0.00    +0.008 C 
ATOM     12  C   UNL     1      37.091 -22.401 -16.318  0.00  0.00    -0.003 C 
ATOM     13  C   UNL     1      35.593 -21.502 -17.976  0.00  0.00    +0.050 C 
ATOM     14  C   UNL     1      36.865 -21.577 -17.418  0.00  0.00    +0.014 C 
ATOM     15  H   UNL     1      33.205 -25.143 -14.147  0.00  0.00    -0.084 HD
ATOM     16  H   UNL     1      33.911 -23.688 -13.704  0.00  0.00    -0.084 HD
BRANCH   6  17
ATOM     17  C   UNL     1      32.297 -23.106 -15.576  0.00  0.00    -0.015 C 
ATOM     18  C   UNL     1      31.103 -24.034 -15.774  0.00  0.00    -0.002 C 
ATOM     19  C   UNL     1      32.232 -22.421 -14.216  0.00  0.00    -0.002 C 
ENDBRANCH   6  17
ENDBRANCH   2  13
BRANCH   3  20
ATOM     20  C   UNL     1      35.762 -19.308 -21.060  0.00  0.00    +0.054 C 
ATOM     21  C   UNL     1      35.156 -17.121 -21.855  0.00  0.00    +0.000 C 
ATOM     22  C   UNL     1      35.676 -17.948 -20.846  0.00  0.00    +0.005 C 
ATOM     23  C   UNL     1      34.730 -17.700 -23.075  0.00  0.00    +0.000 C 
ATOM     24  C   UNL     1      35.355 -19.896 -22.235  0.00  0.00    +0.005 C 
ATOM     25  C   UNL     1      34.836 -19.090 -23.248  0.00  0.00    +0.000 C 
ATOM     26  C   UNL     1      34.210 -16.873 -24.083  0.00  0.00    +0.003 C 
ATOM     27  C   UNL     1      35.050 -15.732 -21.682  0.00  0.00    +0.000 C 
ATOM     28  C   UNL     1      34.113 -15.495 -23.894  0.00  0.00    +0.031 C 
ATOM     29  C   UNL     1      34.532 -14.925 -22.695  0.00  0.00    +0.003 C 
BRANCH  28  32
ATOM     30  N   UNL     1      33.520 -13.266 -24.814  0.00  0.00    -0.343 N 
ATOM     31  N   UNL     1      33.113 -15.201 -26.059  0.00  0.00    -0.285 NA
ATOM     32  C   UNL     1      33.571 -14.652 -24.948  0.00  0.00    +0.117 C 
ATOM     33  H   UNL     1      33.151 -12.714 -25.541  0.00  0.00    +0.144 HD
ATOM     34  H   UNL     1      33.855 -12.838 -23.993  0.00  0.00    +0.144 HD
ATOM     35  H   UNL     1      32.746 -14.632 -26.774  0.00  0.00    +0.188 HD
ENDBRANCH  28  32
ENDBRANCH   3  20
TORSDOF 4
ENDMDL
MODEL 9
REMARK VINA RESULT:     -10.2      8.440     15.339
REMARK  Name = 447736
REMARK  4 active torsions:
REMARK  status: ('A' for Active; 'I' for Inactive)
REMARK    1  A    between atoms: N_2  and  C_13
REMARK    2  A    between atoms: C_3  and  C_20
REMARK    3  A    between atoms: C_6  and  C_17
REMARK    4  A    between atoms: C_28  and  C_32
REMARK                            x       y       z     vdW  Elec       q    Type
REMARK                         _______ _______ _______ _____ _____    ______ ____
ROOT
ATOM      1  O   UNL     1      31.066 -11.486 -22.190  0.00  0.00    -0.270 OA
ATOM      2  N   UNL     1      33.107 -10.593 -22.939  0.00  0.00    -0.280 N 
ATOM      3  C   UNL     1      32.276 -11.567 -22.371  0.00  0.00    +0.249 C 
ATOM      4  H   UNL     1      34.062 -10.826 -23.008  0.00  0.00    +0.155 HD
ENDROOT
BRANCH   2  13
ATOM      5  N   UNL     1      32.123  -4.482 -22.729  0.00  0.00    +0.388 N 
ATOM      6  C   UNL     1      32.818  -5.685 -22.229  0.00  0.00    -0.039 C 
ATOM      7  C   UNL     1      32.582  -6.925 -23.082  0.00  0.00    -0.045 C 
ATOM      8  C   UNL     1      32.066  -6.800 -24.388  0.00  0.00    -0.030 C 
ATOM      9  C   UNL     1      31.683  -5.449 -24.937  0.00  0.00    +0.003 C 
ATOM     10  C   UNL     1      32.343  -4.311 -24.164  0.00  0.00    -0.076 C 
ATOM     11  C   UNL     1      32.943  -8.202 -22.622  0.00  0.00    +0.008 C 
ATOM     12  C   UNL     1      31.865  -7.943 -25.177  0.00  0.00    -0.003 C 
ATOM     13  C   UNL     1      32.749  -9.332 -23.420  0.00  0.00    +0.050 C 
ATOM     14  C   UNL     1      32.205  -9.204 -24.693  0.00  0.00    +0.014 C 
ATOM     15  H   UNL     1      32.479  -3.663 -22.238  0.00  0.00    -0.084 HD
ATOM     16  H   UNL     1      31.122  -4.592 -22.565  0.00  0.00    -0.084 HD
BRANCH   6  17
ATOM     17  C   UNL     1      32.387  -5.864 -20.768  0.00  0.00    -0.015 C 
ATOM     18  C   UNL     1      30.936  -6.327 -20.695  0.00  0.00    -0.002 C 
ATOM     19  C   UNL     1      33.307  -6.852 -20.060  0.00  0.00    -0.002 C 
ENDBRANCH   6  17
ENDBRANCH   2  13
BRANCH   3  20
ATOM     20  C   UNL     1      32.963 -12.807 -21.925  0.00  0.00    +0.054 C 
ATOM     21  C   UNL     1      34.252 -14.766 -22.462  0.00  0.00    +0.000 C 
ATOM     22  C   UNL     1      33.599 -13.589 -22.867  0.00  0.00    +0.005 C 
ATOM     23  C   UNL     1      34.244 -15.126 -21.093  0.00  0.00    +0.000 C 
ATOM     24  C   UNL     1      32.940 -13.135 -20.590  0.00  0.00    +0.005 C 
ATOM     25  C   UNL     1      33.582 -14.300 -20.169  0.00  0.00    +0.000 C 
ATOM     26  C   UNL     1      34.896 -16.302 -20.689  0.00  0.00    +0.003 C 
ATOM     27  C   UNL     1      34.913 -15.591 -23.385  0.00  0.00    +0.000 C 
ATOM     28  C   UNL     1      35.548 -17.110 -21.619  0.00  0.00    +0.031 C 
ATOM     29  C   UNL     1      35.556 -16.755 -22.966  0.00  0.00    +0.003 C 
BRANCH  28  32
ATOM     30  N   UNL     1      35.528 -19.336 -20.519  0.00  0.00    -0.343 N 
ATOM     31  N   UNL     1      37.509 -18.484 -21.418  0.00  0.00    -0.285 NA
ATOM     32  C   UNL     1      36.219 -18.325 -21.185  0.00  0.00    +0.117 C 
ATOM     33  H   UNL     1      36.001 -20.151 -20.234  0.00  0.00    +0.144 HD
ATOM     34  H   UNL     1      34.566 -19.235 -20.334  0.00  0.00    +0.144 HD
ATOM     35  H   UNL     1      37.965 -19.306 -21.124  0.00  0.00    +0.188 HD
ENDBRANCH  28  32
ENDBRANCH   3  20
TORSDOF 4
ENDMDL
