MODEL 1
REMARK VINA RESULT:     -11.5      0.000      0.000
REMARK  Name = 8969
REMARK  3 active torsions:
REMARK  status: ('A' for Active; 'I' for Inactive)
REMARK    1  A    between atoms: C_7  and  C_27
REMARK    2  A    between atoms: C_10  and  O_24
REMARK    3  A    between atoms: C_27  and  O_28
REMARK                            x       y       z     vdW  Elec       q    Type
REMARK                         _______ _______ _______ _____ _____    ______ ____
ROOT
ATOM      1  N   UNL     1      34.200 -23.244 -15.738  0.00  0.00    +0.392 N 
ATOM      2  N   UNL     1      33.170 -21.793 -19.031  0.00  0.00    -0.358 N 
ATOM      3  C   UNL     1      31.356 -23.866 -15.420  0.00  0.00    +0.009 C 
ATOM      4  C   UNL     1      32.360 -23.916 -14.247  0.00  0.00    -0.020 C 
ATOM      5  C   UNL     1      31.868 -22.873 -16.480  0.00  0.00    -0.015 C 
ATOM      6  C   UNL     1      33.295 -23.239 -16.921  0.00  0.00    -0.019 C 
ATOM      7  C   UNL     1      29.950 -23.512 -14.899  0.00  0.00    +0.126 C 
ATOM      8  C   UNL     1      33.774 -24.245 -14.751  0.00  0.00    -0.077 C 
ATOM      9  C   UNL     1      31.905 -24.911 -13.173  0.00  0.00    +0.000 C 
ATOM     10  C   UNL     1      29.486 -24.497 -13.812  0.00  0.00    +0.121 C 
ATOM     11  C   UNL     1      30.499 -24.576 -12.668  0.00  0.00    +0.030 C 
ATOM     12  C   UNL     1      33.839 -22.296 -17.951  0.00  0.00    +0.010 A 
ATOM     13  C   UNL     1      35.614 -23.434 -16.127  0.00  0.00    -0.072 C 
ATOM     14  C   UNL     1      35.142 -21.846 -18.000  0.00  0.00    -0.013 A 
ATOM     15  C   UNL     1      36.131 -22.237 -16.960  0.00  0.00    +0.005 C 
ATOM     16  C   UNL     1      35.267 -21.006 -19.140  0.00  0.00    +0.013 A 
ATOM     17  C   UNL     1      34.016 -20.990 -19.768  0.00  0.00    +0.056 A 
ATOM     18  C   UNL     1      36.319 -20.260 -19.705  0.00  0.00    +0.001 C 
ATOM     19  C   UNL     1      33.771 -20.261 -20.938  0.00  0.00    +0.017 C 
ATOM     20  C   UNL     1      36.086 -19.525 -20.874  0.00  0.00    +0.000 C 
ATOM     21  C   UNL     1      34.831 -19.528 -21.479  0.00  0.00    +0.001 C 
ATOM     22  H   UNL     1      34.132 -22.325 -15.300  0.00  0.00    -0.079 HD
ATOM     23  H   UNL     1      32.228 -21.974 -19.250  0.00  0.00    +0.166 HD
ENDROOT
BRANCH  10  24
ATOM     24  O   UNL     1      29.330 -25.799 -14.378  0.00  0.00    -0.384 OA
ATOM     25  H   UNL     1      28.416 -26.099 -14.254  0.00  0.00    +0.210 HD
ENDBRANCH  10  24
BRANCH   7  27
ATOM     26  O   UNL     1      28.612 -24.497 -16.645  0.00  0.00    -0.250 OA
ATOM     27  C   UNL     1      28.939 -23.504 -16.009  0.00  0.00    +0.319 C 
BRANCH  27  28
ATOM     28  O   UNL     1      28.462 -22.239 -16.182  0.00  0.00    -0.444 OA
ATOM     29  C   UNL     1      27.050 -22.136 -16.388  0.00  0.00    +0.256 C 
ENDBRANCH  27  28
ENDBRANCH   7  27
TORSDOF 3
ENDMDL
MODEL 2
REMARK VINA RESULT:      -9.2     12.076     15.262
REMARK  Name = 8969
REMARK  3 active torsions:
REMARK  status: ('A' for Active; 'I' for Inactive)
REMARK    1  A    between atoms: C_7  and  C_27
REMARK    2  A    between atoms: C_10  and  O_24
REMARK    3  A    between atoms: C_27  and  O_28
REMARK                            x       y       z     vdW  Elec       q    Type
REMARK                         _______ _______ _______ _____ _____    ______ ____
ROOT
ATOM      1  N   UNL     1      31.812  -8.664 -20.918  0.00  0.00    +0.392 N 
ATOM      2  N   UNL     1      32.763  -7.344 -24.289  0.00  0.00    -0.358 N 
ATOM      3  C   UNL     1      32.759 -11.236 -21.948  0.00  0.00    +0.009 C 
ATOM      4  C   UNL     1      31.908 -11.111 -20.665  0.00  0.00    -0.020 C 
ATOM      5  C   UNL     1      32.461 -10.040 -22.871  0.00  0.00    -0.015 C 
ATOM      6  C   UNL     1      32.682  -8.712 -22.126  0.00  0.00    -0.019 C 
ATOM      7  C   UNL     1      32.496 -12.595 -22.627  0.00  0.00    +0.126 C 
ATOM      8  C   UNL     1      32.138  -9.751 -19.987  0.00  0.00    -0.077 C 
ATOM      9  C   UNL     1      32.186 -12.270 -19.702  0.00  0.00    +0.000 C 
ATOM     10  C   UNL     1      32.762 -13.767 -21.667  0.00  0.00    +0.121 C 
ATOM     11  C   UNL     1      31.949 -13.623 -20.379  0.00  0.00    +0.030 C 
ATOM     12  C   UNL     1      32.398  -7.517 -22.983  0.00  0.00    +0.010 A 
ATOM     13  C   UNL     1      31.867  -7.345 -20.252  0.00  0.00    -0.072 C 
ATOM     14  C   UNL     1      31.779  -6.363 -22.550  0.00  0.00    -0.013 A 
ATOM     15  C   UNL     1      31.277  -6.236 -21.155  0.00  0.00    +0.005 C 
ATOM     16  C   UNL     1      31.734  -5.459 -23.645  0.00  0.00    +0.013 A 
ATOM     17  C   UNL     1      32.358  -6.099 -24.723  0.00  0.00    +0.056 A 
ATOM     18  C   UNL     1      31.229  -4.157 -23.831  0.00  0.00    +0.001 C 
ATOM     19  C   UNL     1      32.500  -5.495 -25.978  0.00  0.00    +0.017 C 
ATOM     20  C   UNL     1      31.364  -3.543 -25.081  0.00  0.00    +0.000 C 
ATOM     21  C   UNL     1      31.989  -4.203 -26.136  0.00  0.00    +0.001 C 
ATOM     22  H   UNL     1      30.850  -8.800 -21.230  0.00  0.00    -0.079 HD
ATOM     23  H   UNL     1      33.242  -8.007 -24.837  0.00  0.00    +0.166 HD
ENDROOT
BRANCH  10  24
ATOM     24  O   UNL     1      34.150 -13.808 -21.331  0.00  0.00    -0.384 OA
ATOM     25  H   UNL     1      34.654 -14.169 -22.077  0.00  0.00    +0.210 HD
ENDBRANCH  10  24
BRANCH   7  27
ATOM     26  O   UNL     1      34.423 -12.213 -24.024  0.00  0.00    -0.250 OA
ATOM     27  C   UNL     1      33.346 -12.769 -23.852  0.00  0.00    +0.319 C 
BRANCH  27  28
ATOM     28  O   UNL     1      32.732 -13.627 -24.715  0.00  0.00    -0.444 OA
ATOM     29  C   UNL     1      33.504 -14.767 -25.104  0.00  0.00    +0.256 C 
ENDBRANCH  27  28
ENDBRANCH   7  27
TORSDOF 3
ENDMDL
MODEL 3
REMARK VINA RESULT:      -8.9     11.197     14.515
REMARK  Name = 8969
REMARK  3 active torsions:
REMARK  status: ('A' for Active; 'I' for Inactive)
REMARK    1  A    between atoms: C_7  and  C_27
REMARK    2  A    between atoms: C_10  and  O_24
REMARK    3  A    between atoms: C_27  and  O_28
REMARK                            x       y       z     vdW  Elec       q    Type
REMARK                         _______ _______ _______ _____ _____    ______ ____
ROOT
ATOM      1  N   UNL     1      32.501 -11.078 -20.488  0.00  0.00    +0.392 N 
ATOM      2  N   UNL     1      33.047 -12.838 -23.746  0.00  0.00    -0.358 N 
ATOM      3  C   UNL     1      31.977  -8.724 -22.148  0.00  0.00    +0.009 C 
ATOM      4  C   UNL     1      32.235  -8.635 -20.628  0.00  0.00    -0.020 C 
ATOM      5  C   UNL     1      32.662  -9.986 -22.703  0.00  0.00    -0.015 C 
ATOM      6  C   UNL     1      32.198 -11.237 -21.938  0.00  0.00    -0.019 C 
ATOM      7  C   UNL     1      32.452  -7.432 -22.841  0.00  0.00    +0.126 C 
ATOM      8  C   UNL     1      31.789  -9.925 -19.922  0.00  0.00    -0.077 C 
ATOM      9  C   UNL     1      31.552  -7.403 -20.022  0.00  0.00    +0.000 C 
ATOM     10  C   UNL     1      31.782  -6.186 -22.236  0.00  0.00    +0.121 C 
ATOM     11  C   UNL     1      32.003  -6.119 -20.724  0.00  0.00    +0.030 C 
ATOM     12  C   UNL     1      32.842 -12.492 -22.440  0.00  0.00    +0.010 A 
ATOM     13  C   UNL     1      32.219 -12.315 -19.729  0.00  0.00    -0.072 C 
ATOM     14  C   UNL     1      33.266 -13.535 -21.644  0.00  0.00    -0.013 A 
ATOM     15  C   UNL     1      33.159 -13.465 -20.161  0.00  0.00    +0.005 C 
ATOM     16  C   UNL     1      33.782 -14.548 -22.497  0.00  0.00    +0.013 A 
ATOM     17  C   UNL     1      33.632 -14.086 -23.809  0.00  0.00    +0.056 A 
ATOM     18  C   UNL     1      34.357 -15.817 -22.287  0.00  0.00    +0.001 C 
ATOM     19  C   UNL     1      34.033 -14.835 -24.922  0.00  0.00    +0.017 C 
ATOM     20  C   UNL     1      34.764 -16.575 -23.391  0.00  0.00    +0.000 C 
ATOM     21  C   UNL     1      34.603 -16.090 -24.687  0.00  0.00    +0.001 C 
ATOM     22  H   UNL     1      33.501 -10.899 -20.405  0.00  0.00    -0.079 HD
ATOM     23  H   UNL     1      32.814 -12.282 -24.524  0.00  0.00    +0.166 HD
ENDROOT
BRANCH  10  24
ATOM     24  O   UNL     1      30.377  -6.224 -22.493  0.00  0.00    -0.384 OA
ATOM     25  H   UNL     1      30.112  -5.417 -22.960  0.00  0.00    +0.210 HD
ENDBRANCH  10  24
BRANCH   7  27
ATOM     26  O   UNL     1      31.109  -7.832 -24.803  0.00  0.00    -0.250 OA
ATOM     27  C   UNL     1      32.171  -7.465 -24.316  0.00  0.00    +0.319 C 
BRANCH  27  28
ATOM     28  O   UNL     1      33.267  -7.029 -24.999  0.00  0.00    -0.444 OA
ATOM     29  C   UNL     1      33.058  -5.882 -25.829  0.00  0.00    +0.256 C 
ENDBRANCH  27  28
ENDBRANCH   7  27
TORSDOF 3
ENDMDL
MODEL 4
REMARK VINA RESULT:      -8.6     11.773     15.486
REMARK  Name = 8969
REMARK  3 active torsions:
REMARK  status: ('A' for Active; 'I' for Inactive)
REMARK    1  A    between atoms: C_7  and  C_27
REMARK    2  A    between atoms: C_10  and  O_24
REMARK    3  A    between atoms: C_27  and  O_28
REMARK                            x       y       z     vdW  Elec       q    Type
REMARK                         _______ _______ _______ _____ _____    ______ ____
ROOT
ATOM      1  N   UNL     1      31.922  -9.573 -20.323  0.00  0.00    +0.392 N 
ATOM      2  N   UNL     1      33.316 -11.981 -22.827  0.00  0.00    -0.358 N 
ATOM      3  C   UNL     1      32.168  -7.601 -22.473  0.00  0.00    +0.009 C 
ATOM      4  C   UNL     1      31.935  -7.206 -20.999  0.00  0.00    -0.020 C 
ATOM      5  C   UNL     1      32.877  -8.966 -22.524  0.00  0.00    -0.015 C 
ATOM      6  C   UNL     1      32.083 -10.020 -21.735  0.00  0.00    -0.019 C 
ATOM      7  C   UNL     1      32.953  -6.492 -23.200  0.00  0.00    +0.126 C 
ATOM      8  C   UNL     1      31.174  -8.311 -20.250  0.00  0.00    -0.077 C 
ATOM      9  C   UNL     1      31.209  -5.859 -20.894  0.00  0.00    +0.000 C 
ATOM     10  C   UNL     1      32.240  -5.132 -23.095  0.00  0.00    +0.121 C 
ATOM     11  C   UNL     1      31.974  -4.759 -21.636  0.00  0.00    +0.030 C 
ATOM     12  C   UNL     1      32.738 -11.368 -21.751  0.00  0.00    +0.010 A 
ATOM     13  C   UNL     1      31.303 -10.619 -19.481  0.00  0.00    -0.072 C 
ATOM     14  C   UNL     1      32.791 -12.233 -20.679  0.00  0.00    -0.013 A 
ATOM     15  C   UNL     1      32.225 -11.855 -19.356  0.00  0.00    +0.005 C 
ATOM     16  C   UNL     1      33.457 -13.413 -21.108  0.00  0.00    +0.013 A 
ATOM     17  C   UNL     1      33.775 -13.228 -22.458  0.00  0.00    +0.056 A 
ATOM     18  C   UNL     1      33.820 -14.623 -20.486  0.00  0.00    +0.001 C 
ATOM     19  C   UNL     1      34.440 -14.201 -23.215  0.00  0.00    +0.017 C 
ATOM     20  C   UNL     1      34.487 -15.603 -21.231  0.00  0.00    +0.000 C 
ATOM     21  C   UNL     1      34.790 -15.393 -22.574  0.00  0.00    +0.001 C 
ATOM     22  H   UNL     1      32.856  -9.404 -19.949  0.00  0.00    -0.079 HD
ATOM     23  H   UNL     1      33.393 -11.593 -23.728  0.00  0.00    +0.166 HD
ENDROOT
BRANCH  10  24
ATOM     24  O   UNL     1      30.993  -5.189 -23.789  0.00  0.00    -0.384 OA
ATOM     25  H   UNL     1      30.473  -5.939 -23.461  0.00  0.00    +0.210 HD
ENDBRANCH  10  24
BRANCH   7  27
ATOM     26  O   UNL     1      32.260  -7.203 -25.397  0.00  0.00    -0.250 OA
ATOM     27  C   UNL     1      33.154  -6.822 -24.651  0.00  0.00    +0.319 C 
BRANCH  27  28
ATOM     28  O   UNL     1      34.461  -6.631 -24.986  0.00  0.00    -0.444 OA
ATOM     29  C   UNL     1      35.366  -6.506 -23.885  0.00  0.00    +0.256 C 
ENDBRANCH  27  28
ENDBRANCH   7  27
TORSDOF 3
ENDMDL
