MODEL 1
REMARK VINA RESULT:     -11.9      0.000      0.000
REMARK  Name = 6102777
REMARK  2 active torsions:
REMARK  status: ('A' for Active; 'I' for Inactive)
REMARK    1  A    between atoms: C_4  and  S_16
REMARK    2  A    between atoms: S_16  and  N_19
REMARK                            x       y       z     vdW  Elec       q    Type
REMARK                         _______ _______ _______ _____ _____    ______ ____
ROOT
ATOM      1  O   UNL     1      36.752 -20.722 -18.665  0.00  0.00    -0.453 OA
ATOM      2  O   UNL     1      32.923 -22.164 -18.589  0.00  0.00    -0.286 OA
ATOM      3  C   UNL     1      35.046 -22.086 -17.572  0.00  0.00    +0.075 A 
ATOM      4  C   UNL     1      35.644 -23.249 -15.544  0.00  0.00    +0.126 C 
ATOM      5  C   UNL     1      36.334 -21.558 -17.659  0.00  0.00    +0.148 A 
ATOM      6  C   UNL     1      34.695 -22.931 -16.517  0.00  0.00    +0.026 C 
ATOM      7  C   UNL     1      34.533 -20.835 -19.679  0.00  0.00    +0.074 A 
ATOM      8  C   UNL     1      34.067 -21.733 -18.611  0.00  0.00    +0.201 A 
ATOM      9  C   UNL     1      35.851 -20.381 -19.644  0.00  0.00    +0.148 A 
ATOM     10  C   UNL     1      36.934 -22.726 -15.628  0.00  0.00    +0.023 C 
ATOM     11  C   UNL     1      37.280 -21.881 -16.683  0.00  0.00    +0.039 C 
ATOM     12  C   UNL     1      33.675 -20.444 -20.709  0.00  0.00    +0.006 C 
ATOM     13  C   UNL     1      36.316 -19.528 -20.647  0.00  0.00    +0.038 C 
ATOM     14  C   UNL     1      34.144 -19.591 -21.709  0.00  0.00    +0.000 C 
ATOM     15  C   UNL     1      35.462 -19.134 -21.679  0.00  0.00    +0.003 C 
ENDROOT
BRANCH   4  16
ATOM     16  S   UNL     1      35.216 -24.306 -14.221  0.00  0.00    +0.081 S 
ATOM     17  O   UNL     1      33.798 -24.128 -13.938  0.00  0.00    -0.149 OA
ATOM     18  O   UNL     1      35.727 -25.637 -14.522  0.00  0.00    -0.149 OA
BRANCH  16  19
ATOM     19  N   UNL     1      36.129 -23.631 -12.946  0.00  0.00    -0.156 N 
ATOM     20  N   UNL     1      36.773 -23.449 -10.634  0.00  0.00    -0.094 NA
ATOM     21  N   UNL     1      35.182 -24.974 -11.159  0.00  0.00    -0.071 NA
ATOM     22  N   UNL     1      36.311 -24.142  -9.583  0.00  0.00    -0.139 N 
ATOM     23  N   UNL     1      35.367 -25.055  -9.847  0.00  0.00    -0.020 NA
ATOM     24  C   UNL     1      36.035 -24.009 -11.585  0.00  0.00    +0.145 C 
ATOM     25  H   UNL     1      36.774 -22.922 -13.175  0.00  0.00    +0.186 HD
ATOM     26  H   UNL     1      36.647 -23.987  -8.670  0.00  0.00    +0.197 HD
ENDBRANCH  16  19
ENDBRANCH   4  16
TORSDOF 2
ENDMDL
MODEL 2
REMARK VINA RESULT:     -11.6      2.794      4.120
REMARK  Name = 6102777
REMARK  2 active torsions:
REMARK  status: ('A' for Active; 'I' for Inactive)
REMARK    1  A    between atoms: C_4  and  S_16
REMARK    2  A    between atoms: S_16  and  N_19
REMARK                            x       y       z     vdW  Elec       q    Type
REMARK                         _______ _______ _______ _____ _____    ______ ____
ROOT
ATOM      1  O   UNL     1      33.816 -23.206 -16.192  0.00  0.00    -0.453 OA
ATOM      2  O   UNL     1      37.699 -21.913 -16.222  0.00  0.00    -0.286 OA
ATOM      3  C   UNL     1      35.972 -23.014 -15.060  0.00  0.00    +0.075 A 
ATOM      4  C   UNL     1      36.184 -23.956 -12.848  0.00  0.00    +0.126 C 
ATOM      5  C   UNL     1      34.641 -23.426 -15.116  0.00  0.00    +0.148 A 
ATOM      6  C   UNL     1      36.748 -23.276 -13.928  0.00  0.00    +0.026 C 
ATOM      7  C   UNL     1      35.642 -22.075 -17.356  0.00  0.00    +0.074 A 
ATOM      8  C   UNL     1      36.540 -22.300 -16.213  0.00  0.00    +0.201 A 
ATOM      9  C   UNL     1      34.330 -22.541 -17.279  0.00  0.00    +0.148 A 
ATOM     10  C   UNL     1      34.853 -24.369 -12.899  0.00  0.00    +0.023 C 
ATOM     11  C   UNL     1      34.081 -24.105 -14.032  0.00  0.00    +0.039 C 
ATOM     12  C   UNL     1      36.092 -21.406 -18.497  0.00  0.00    +0.006 C 
ATOM     13  C   UNL     1      33.459 -22.338 -18.352  0.00  0.00    +0.038 C 
ATOM     14  C   UNL     1      35.217 -21.205 -19.566  0.00  0.00    +0.000 C 
ATOM     15  C   UNL     1      33.904 -21.670 -19.494  0.00  0.00    +0.003 C 
ENDROOT
BRANCH   4  16
ATOM     16  S   UNL     1      37.145 -24.289 -11.428  0.00  0.00    +0.081 S 
ATOM     17  O   UNL     1      37.055 -23.137 -10.539  0.00  0.00    -0.149 OA
ATOM     18  O   UNL     1      36.779 -25.609 -10.933  0.00  0.00    -0.149 OA
BRANCH  16  19
ATOM     19  N   UNL     1      38.715 -24.357 -12.096  0.00  0.00    -0.156 N 
ATOM     20  N   UNL     1      40.409 -25.344 -13.492  0.00  0.00    -0.094 NA
ATOM     21  N   UNL     1      38.381 -26.352 -13.438  0.00  0.00    -0.071 NA
ATOM     22  N   UNL     1      40.321 -26.436 -14.265  0.00  0.00    -0.139 N 
ATOM     23  N   UNL     1      39.137 -27.066 -14.263  0.00  0.00    -0.020 NA
ATOM     24  C   UNL     1      39.174 -25.341 -13.004  0.00  0.00    +0.145 C 
ATOM     25  H   UNL     1      39.353 -23.655 -11.828  0.00  0.00    +0.186 HD
ATOM     26  H   UNL     1      41.081 -26.757 -14.802  0.00  0.00    +0.197 HD
ENDBRANCH  16  19
ENDBRANCH   4  16
TORSDOF 2
ENDMDL
MODEL 3
REMARK VINA RESULT:     -11.5      1.187      2.363
REMARK  Name = 6102777
REMARK  2 active torsions:
REMARK  status: ('A' for Active; 'I' for Inactive)
REMARK    1  A    between atoms: C_4  and  S_16
REMARK    2  A    between atoms: S_16  and  N_19
REMARK                            x       y       z     vdW  Elec       q    Type
REMARK                         _______ _______ _______ _____ _____    ______ ____
ROOT
ATOM      1  O   UNL     1      32.694 -21.668 -18.540  0.00  0.00    -0.453 OA
ATOM      2  O   UNL     1      36.682 -22.065 -17.712  0.00  0.00    -0.286 OA
ATOM      3  C   UNL     1      34.459 -22.528 -17.087  0.00  0.00    +0.075 A 
ATOM      4  C   UNL     1      33.813 -23.780 -15.128  0.00  0.00    +0.126 C 
ATOM      5  C   UNL     1      33.118 -22.354 -17.428  0.00  0.00    +0.148 A 
ATOM      6  C   UNL     1      34.813 -23.240 -15.938  0.00  0.00    +0.026 C 
ATOM      7  C   UNL     1      35.017 -21.217 -19.146  0.00  0.00    +0.074 A 
ATOM      8  C   UNL     1      35.491 -21.947 -17.960  0.00  0.00    +0.201 A 
ATOM      9  C   UNL     1      33.644 -21.120 -19.367  0.00  0.00    +0.148 A 
ATOM     10  C   UNL     1      32.471 -23.608 -15.464  0.00  0.00    +0.023 C 
ATOM     11  C   UNL     1      32.122 -22.897 -16.613  0.00  0.00    +0.039 C 
ATOM     12  C   UNL     1      35.923 -20.632 -20.034  0.00  0.00    +0.006 C 
ATOM     13  C   UNL     1      33.171 -20.431 -20.486  0.00  0.00    +0.038 C 
ATOM     14  C   UNL     1      35.444 -19.945 -21.150  0.00  0.00    +0.000 C 
ATOM     15  C   UNL     1      34.072 -19.845 -21.376  0.00  0.00    +0.003 C 
ENDROOT
BRANCH   4  16
ATOM     16  S   UNL     1      34.244 -24.672 -13.689  0.00  0.00    +0.081 S 
ATOM     17  O   UNL     1      33.043 -24.832 -12.879  0.00  0.00    -0.149 OA
ATOM     18  O   UNL     1      34.998 -25.850 -14.096  0.00  0.00    -0.149 OA
BRANCH  16  19
ATOM     19  N   UNL     1      35.297 -23.572 -12.916  0.00  0.00    -0.156 N 
ATOM     20  N   UNL     1      36.594 -22.806 -11.040  0.00  0.00    -0.094 NA
ATOM     21  N   UNL     1      35.426 -24.730 -10.787  0.00  0.00    -0.071 NA
ATOM     22  N   UNL     1      36.728 -23.372  -9.832  0.00  0.00    -0.139 N 
ATOM     23  N   UNL     1      36.053 -24.513  -9.637  0.00  0.00    -0.020 NA
ATOM     24  C   UNL     1      35.774 -23.694 -11.590  0.00  0.00    +0.145 C 
ATOM     25  H   UNL     1      35.596 -22.790 -13.436  0.00  0.00    +0.186 HD
ATOM     26  H   UNL     1      37.290 -22.972  -9.129  0.00  0.00    +0.197 HD
ENDBRANCH  16  19
ENDBRANCH   4  16
TORSDOF 2
ENDMDL
MODEL 4
REMARK VINA RESULT:     -11.3      4.263      5.912
REMARK  Name = 6102777
REMARK  2 active torsions:
REMARK  status: ('A' for Active; 'I' for Inactive)
REMARK    1  A    between atoms: C_4  and  S_16
REMARK    2  A    between atoms: S_16  and  N_19
REMARK                            x       y       z     vdW  Elec       q    Type
REMARK                         _______ _______ _______ _____ _____    ______ ____
ROOT
ATOM      1  O   UNL     1      32.655 -22.874 -15.574  0.00  0.00    -0.453 OA
ATOM      2  O   UNL     1      31.668 -25.404 -12.513  0.00  0.00    -0.286 OA
ATOM      3  C   UNL     1      33.345 -24.193 -13.638  0.00  0.00    +0.075 A 
ATOM      4  C   UNL     1      35.677 -24.168 -13.015  0.00  0.00    +0.126 C 
ATOM      5  C   UNL     1      33.612 -23.331 -14.702  0.00  0.00    +0.148 A 
ATOM      6  C   UNL     1      34.374 -24.615 -12.792  0.00  0.00    +0.026 C 
ATOM      7  C   UNL     1      30.952 -24.146 -14.371  0.00  0.00    +0.074 A 
ATOM      8  C   UNL     1      31.963 -24.648 -13.427  0.00  0.00    +0.201 A 
ATOM      9  C   UNL     1      31.358 -23.287 -15.392  0.00  0.00    +0.148 A 
ATOM     10  C   UNL     1      35.949 -23.307 -14.078  0.00  0.00    +0.023 C 
ATOM     11  C   UNL     1      34.918 -22.888 -14.921  0.00  0.00    +0.039 C 
ATOM     12  C   UNL     1      29.613 -24.522 -14.250  0.00  0.00    +0.006 C 
ATOM     13  C   UNL     1      30.416 -22.799 -16.300  0.00  0.00    +0.038 C 
ATOM     14  C   UNL     1      28.676 -24.032 -15.161  0.00  0.00    +0.000 C 
ATOM     15  C   UNL     1      29.076 -23.173 -16.183  0.00  0.00    +0.003 C 
ENDROOT
BRANCH   4  16
ATOM     16  S   UNL     1      36.970 -24.689 -11.963  0.00  0.00    +0.081 S 
ATOM     17  O   UNL     1      37.920 -23.592 -11.834  0.00  0.00    -0.149 OA
ATOM     18  O   UNL     1      36.374 -25.267 -10.766  0.00  0.00    -0.149 OA
BRANCH  16  19
ATOM     19  N   UNL     1      37.677 -25.934 -12.894  0.00  0.00    -0.156 N 
ATOM     20  N   UNL     1      39.455 -26.877 -14.213  0.00  0.00    -0.094 NA
ATOM     21  N   UNL     1      39.759 -24.788 -13.390  0.00  0.00    -0.071 NA
ATOM     22  N   UNL     1      40.634 -26.327 -14.538  0.00  0.00    -0.139 N 
ATOM     23  N   UNL     1      40.856 -25.090 -14.073  0.00  0.00    -0.020 NA
ATOM     24  C   UNL     1      38.955 -25.876 -13.499  0.00  0.00    +0.145 C 
ATOM     25  H   UNL     1      37.154 -26.759 -13.019  0.00  0.00    +0.186 HD
ATOM     26  H   UNL     1      41.297 -26.804 -15.088  0.00  0.00    +0.197 HD
ENDBRANCH  16  19
ENDBRANCH   4  16
TORSDOF 2
ENDMDL
MODEL 5
REMARK VINA RESULT:     -11.2      3.984      6.080
REMARK  Name = 6102777
REMARK  2 active torsions:
REMARK  status: ('A' for Active; 'I' for Inactive)
REMARK    1  A    between atoms: C_4  and  S_16
REMARK    2  A    between atoms: S_16  and  N_19
REMARK                            x       y       z     vdW  Elec       q    Type
REMARK                         _______ _______ _______ _____ _____    ______ ____
ROOT
ATOM      1  O   UNL     1      31.867 -23.235 -16.403  0.00  0.00    -0.453 OA
ATOM      2  O   UNL     1      32.672 -24.962 -12.781  0.00  0.00    -0.286 OA
ATOM      3  C   UNL     1      33.495 -23.862 -14.693  0.00  0.00    +0.075 A 
ATOM      4  C   UNL     1      35.815 -23.317 -15.075  0.00  0.00    +0.126 C 
ATOM      5  C   UNL     1      33.151 -23.289 -15.918  0.00  0.00    +0.148 A 
ATOM      6  C   UNL     1      34.826 -23.878 -14.267  0.00  0.00    +0.026 C 
ATOM      7  C   UNL     1      31.063 -24.376 -14.399  0.00  0.00    +0.074 A 
ATOM      8  C   UNL     1      32.431 -24.445 -13.862  0.00  0.00    +0.201 A 
ATOM      9  C   UNL     1      30.860 -23.774 -15.640  0.00  0.00    +0.148 A 
ATOM     10  C   UNL     1      35.476 -22.744 -16.301  0.00  0.00    +0.023 C 
ATOM     11  C   UNL     1      34.145 -22.730 -16.722  0.00  0.00    +0.039 C 
ATOM     12  C   UNL     1      29.987 -24.904 -13.681  0.00  0.00    +0.006 C 
ATOM     13  C   UNL     1      29.570 -23.698 -16.169  0.00  0.00    +0.038 C 
ATOM     14  C   UNL     1      28.700 -24.825 -14.214  0.00  0.00    +0.000 C 
ATOM     15  C   UNL     1      28.492 -24.224 -15.455  0.00  0.00    +0.003 C 
ENDROOT
BRANCH   4  16
ATOM     16  S   UNL     1      37.481 -23.333 -14.553  0.00  0.00    +0.081 S 
ATOM     17  O   UNL     1      38.286 -22.690 -15.584  0.00  0.00    -0.149 OA
ATOM     18  O   UNL     1      37.531 -22.831 -13.186  0.00  0.00    -0.149 OA
BRANCH  16  19
ATOM     19  N   UNL     1      37.814 -25.008 -14.547  0.00  0.00    -0.156 N 
ATOM     20  N   UNL     1      39.281 -26.900 -14.304  0.00  0.00    -0.094 NA
ATOM     21  N   UNL     1      40.180 -24.839 -14.030  0.00  0.00    -0.071 NA
ATOM     22  N   UNL     1      40.592 -26.908 -14.021  0.00  0.00    -0.139 N 
ATOM     23  N   UNL     1      41.166 -25.709 -13.851  0.00  0.00    -0.020 NA
ATOM     24  C   UNL     1      39.080 -25.588 -14.296  0.00  0.00    +0.145 C 
ATOM     25  H   UNL     1      37.064 -25.619 -14.732  0.00  0.00    +0.186 HD
ATOM     26  H   UNL     1      41.102 -27.747 -13.943  0.00  0.00    +0.197 HD
ENDBRANCH  16  19
ENDBRANCH   4  16
TORSDOF 2
ENDMDL
MODEL 6
REMARK VINA RESULT:     -11.0      4.527      5.448
REMARK  Name = 6102777
REMARK  2 active torsions:
REMARK  status: ('A' for Active; 'I' for Inactive)
REMARK    1  A    between atoms: C_4  and  S_16
REMARK    2  A    between atoms: S_16  and  N_19
REMARK                            x       y       z     vdW  Elec       q    Type
REMARK                         _______ _______ _______ _____ _____    ______ ____
ROOT
ATOM      1  O   UNL     1      35.637 -22.601 -16.915  0.00  0.00    -0.453 OA
ATOM      2  O   UNL     1      32.004 -21.748 -18.594  0.00  0.00    -0.286 OA
ATOM      3  C   UNL     1      33.201 -22.756 -16.834  0.00  0.00    +0.075 A 
ATOM      4  C   UNL     1      32.194 -23.920 -14.975  0.00  0.00    +0.126 C 
ATOM      5  C   UNL     1      34.471 -23.012 -16.317  0.00  0.00    +0.148 A 
ATOM      6  C   UNL     1      32.059 -23.207 -16.167  0.00  0.00    +0.026 C 
ATOM      7  C   UNL     1      34.349 -21.570 -18.716  0.00  0.00    +0.074 A 
ATOM      8  C   UNL     1      33.089 -22.002 -18.092  0.00  0.00    +0.201 A 
ATOM      9  C   UNL     1      35.552 -21.895 -18.090  0.00  0.00    +0.148 A 
ATOM     10  C   UNL     1      33.462 -24.179 -14.455  0.00  0.00    +0.023 C 
ATOM     11  C   UNL     1      34.600 -23.726 -15.124  0.00  0.00    +0.039 C 
ATOM     12  C   UNL     1      34.343 -20.848 -19.912  0.00  0.00    +0.006 C 
ATOM     13  C   UNL     1      36.760 -21.495 -18.665  0.00  0.00    +0.038 C 
ATOM     14  C   UNL     1      35.553 -20.452 -20.482  0.00  0.00    +0.000 C 
ATOM     15  C   UNL     1      36.759 -20.774 -19.860  0.00  0.00    +0.003 C 
ENDROOT
BRANCH   4  16
ATOM     16  S   UNL     1      30.774 -24.489 -14.133  0.00  0.00    +0.081 S 
ATOM     17  O   UNL     1      31.091 -25.776 -13.527  0.00  0.00    -0.149 OA
ATOM     18  O   UNL     1      30.279 -23.404 -13.296  0.00  0.00    -0.149 OA
BRANCH  16  19
ATOM     19  N   UNL     1      29.692 -24.734 -15.431  0.00  0.00    -0.156 N 
ATOM     20  N   UNL     1      27.965 -24.016 -16.945  0.00  0.00    -0.094 NA
ATOM     21  N   UNL     1      28.691 -22.522 -15.405  0.00  0.00    -0.071 NA
ATOM     22  N   UNL     1      27.355 -22.824 -17.010  0.00  0.00    -0.139 N 
ATOM     23  N   UNL     1      27.753 -21.908 -16.115  0.00  0.00    -0.020 NA
ATOM     24  C   UNL     1      28.785 -23.769 -15.930  0.00  0.00    +0.145 C 
ATOM     25  H   UNL     1      29.699 -25.618 -15.867  0.00  0.00    +0.186 HD
ATOM     26  H   UNL     1      26.655 -22.632 -17.675  0.00  0.00    +0.197 HD
ENDBRANCH  16  19
ENDBRANCH   4  16
TORSDOF 2
ENDMDL
MODEL 7
REMARK VINA RESULT:     -10.9      4.170      5.909
REMARK  Name = 6102777
REMARK  2 active torsions:
REMARK  status: ('A' for Active; 'I' for Inactive)
REMARK    1  A    between atoms: C_4  and  S_16
REMARK    2  A    between atoms: S_16  and  N_19
REMARK                            x       y       z     vdW  Elec       q    Type
REMARK                         _______ _______ _______ _____ _____    ______ ____
ROOT
ATOM      1  O   UNL     1      31.256 -24.175 -13.718  0.00  0.00    -0.453 OA
ATOM      2  O   UNL     1      32.398 -22.458 -17.253  0.00  0.00    -0.286 OA
ATOM      3  C   UNL     1      33.042 -23.412 -15.198  0.00  0.00    +0.075 A 
ATOM      4  C   UNL     1      35.325 -23.684 -14.463  0.00  0.00    +0.126 C 
ATOM      5  C   UNL     1      32.584 -23.990 -14.014  0.00  0.00    +0.148 A 
ATOM      6  C   UNL     1      34.412 -23.258 -15.428  0.00  0.00    +0.026 C 
ATOM      7  C   UNL     1      30.640 -23.180 -15.862  0.00  0.00    +0.074 A 
ATOM      8  C   UNL     1      32.057 -22.972 -16.197  0.00  0.00    +0.201 A 
ATOM      9  C   UNL     1      30.321 -23.770 -14.639  0.00  0.00    +0.148 A 
ATOM     10  C   UNL     1      34.871 -24.261 -13.277  0.00  0.00    +0.023 C 
ATOM     11  C   UNL     1      33.502 -24.414 -13.052  0.00  0.00    +0.039 C 
ATOM     12  C   UNL     1      29.632 -22.794 -16.749  0.00  0.00    +0.006 C 
ATOM     13  C   UNL     1      28.982 -23.977 -14.300  0.00  0.00    +0.038 C 
ATOM     14  C   UNL     1      28.296 -23.003 -16.404  0.00  0.00    +0.000 C 
ATOM     15  C   UNL     1      27.972 -23.593 -15.183  0.00  0.00    +0.003 C 
ENDROOT
BRANCH   4  16
ATOM     16  S   UNL     1      37.039 -23.495 -14.739  0.00  0.00    +0.081 S 
ATOM     17  O   UNL     1      37.229 -23.019 -16.104  0.00  0.00    -0.149 OA
ATOM     18  O   UNL     1      37.595 -22.733 -13.629  0.00  0.00    -0.149 OA
BRANCH  16  19
ATOM     19  N   UNL     1      37.575 -25.113 -14.632  0.00  0.00    -0.156 N 
ATOM     20  N   UNL     1      39.273 -26.791 -14.331  0.00  0.00    -0.094 NA
ATOM     21  N   UNL     1      39.922 -24.623 -14.249  0.00  0.00    -0.071 NA
ATOM     22  N   UNL     1      40.586 -26.621 -14.115  0.00  0.00    -0.139 N 
ATOM     23  N   UNL     1      41.014 -25.353 -14.060  0.00  0.00    -0.020 NA
ATOM     24  C   UNL     1      38.913 -25.516 -14.406  0.00  0.00    +0.145 C 
ATOM     25  H   UNL     1      36.900 -25.822 -14.736  0.00  0.00    +0.186 HD
ATOM     26  H   UNL     1      41.198 -27.384 -14.004  0.00  0.00    +0.197 HD
ENDBRANCH  16  19
ENDBRANCH   4  16
TORSDOF 2
ENDMDL
MODEL 8
REMARK VINA RESULT:     -10.9      3.266      5.056
REMARK  Name = 6102777
REMARK  2 active torsions:
REMARK  status: ('A' for Active; 'I' for Inactive)
REMARK    1  A    between atoms: C_4  and  S_16
REMARK    2  A    between atoms: S_16  and  N_19
REMARK                            x       y       z     vdW  Elec       q    Type
REMARK                         _______ _______ _______ _____ _____    ______ ____
ROOT
ATOM      1  O   UNL     1      32.472 -22.814 -16.236  0.00  0.00    -0.453 OA
ATOM      2  O   UNL     1      32.332 -25.199 -12.914  0.00  0.00    -0.286 OA
ATOM      3  C   UNL     1      33.651 -24.059 -14.497  0.00  0.00    +0.075 A 
ATOM      4  C   UNL     1      36.064 -24.038 -14.518  0.00  0.00    +0.126 C 
ATOM      5  C   UNL     1      33.626 -23.246 -15.630  0.00  0.00    +0.148 A 
ATOM      6  C   UNL     1      34.867 -24.458 -13.937  0.00  0.00    +0.026 C 
ATOM      7  C   UNL     1      31.150 -24.012 -14.569  0.00  0.00    +0.074 A 
ATOM      8  C   UNL     1      32.374 -24.486 -13.906  0.00  0.00    +0.201 A 
ATOM      9  C   UNL     1      31.270 -23.202 -15.698  0.00  0.00    +0.148 A 
ATOM     10  C   UNL     1      36.045 -23.226 -15.652  0.00  0.00    +0.023 C 
ATOM     11  C   UNL     1      34.828 -22.830 -16.208  0.00  0.00    +0.039 C 
ATOM     12  C   UNL     1      29.890 -24.365 -14.079  0.00  0.00    +0.006 C 
ATOM     13  C   UNL     1      30.121 -22.741 -16.344  0.00  0.00    +0.038 C 
ATOM     14  C   UNL     1      28.745 -23.901 -14.729  0.00  0.00    +0.000 C 
ATOM     15  C   UNL     1      28.860 -23.091 -15.858  0.00  0.00    +0.003 C 
ENDROOT
BRANCH   4  16
ATOM     16  S   UNL     1      37.590 -24.531 -13.826  0.00  0.00    +0.081 S 
ATOM     17  O   UNL     1      37.523 -25.960 -13.550  0.00  0.00    -0.149 OA
ATOM     18  O   UNL     1      38.658 -24.012 -14.670  0.00  0.00    -0.149 OA
BRANCH  16  19
ATOM     19  N   UNL     1      37.579 -23.675 -12.348  0.00  0.00    -0.156 N 
ATOM     20  N   UNL     1      36.895 -23.353 -10.064  0.00  0.00    -0.094 NA
ATOM     21  N   UNL     1      36.100 -25.178 -11.145  0.00  0.00    -0.071 NA
ATOM     22  N   UNL     1      36.087 -24.122  -9.319  0.00  0.00    -0.139 N 
ATOM     23  N   UNL     1      35.593 -25.213  -9.920  0.00  0.00    -0.020 NA
ATOM     24  C   UNL     1      36.865 -24.059 -11.188  0.00  0.00    +0.145 C 
ATOM     25  H   UNL     1      38.113 -22.848 -12.299  0.00  0.00    +0.186 HD
ATOM     26  H   UNL     1      35.871 -23.898  -8.385  0.00  0.00    +0.197 HD
ENDBRANCH  16  19
ENDBRANCH   4  16
TORSDOF 2
ENDMDL
MODEL 9
REMARK VINA RESULT:     -10.8      5.091      7.402
REMARK  Name = 6102777
REMARK  2 active torsions:
REMARK  status: ('A' for Active; 'I' for Inactive)
REMARK    1  A    between atoms: C_4  and  S_16
REMARK    2  A    between atoms: S_16  and  N_19
REMARK                            x       y       z     vdW  Elec       q    Type
REMARK                         _______ _______ _______ _____ _____    ______ ____
ROOT
ATOM      1  O   UNL     1      36.473 -23.966 -15.425  0.00  0.00    -0.453 OA
ATOM      2  O   UNL     1      35.723 -25.411 -11.670  0.00  0.00    -0.286 OA
ATOM      3  C   UNL     1      34.869 -24.471 -13.653  0.00  0.00    +0.075 A 
ATOM      4  C   UNL     1      32.541 -23.978 -14.050  0.00  0.00    +0.126 C 
ATOM      5  C   UNL     1      35.196 -23.993 -14.922  0.00  0.00    +0.148 A 
ATOM      6  C   UNL     1      33.544 -24.466 -13.212  0.00  0.00    +0.026 C 
ATOM      7  C   UNL     1      37.308 -24.944 -13.348  0.00  0.00    +0.074 A 
ATOM      8  C   UNL     1      35.947 -24.980 -12.792  0.00  0.00    +0.201 A 
ATOM      9  C   UNL     1      37.493 -24.438 -14.635  0.00  0.00    +0.148 A 
ATOM     10  C   UNL     1      32.862 -23.497 -15.320  0.00  0.00    +0.023 C 
ATOM     11  C   UNL     1      34.187 -23.504 -15.756  0.00  0.00    +0.039 C 
ATOM     12  C   UNL     1      38.397 -25.407 -12.605  0.00  0.00    +0.006 C 
ATOM     13  C   UNL     1      38.776 -24.394 -15.183  0.00  0.00    +0.038 C 
ATOM     14  C   UNL     1      39.677 -25.360 -13.158  0.00  0.00    +0.000 C 
ATOM     15  C   UNL     1      39.867 -24.855 -14.443  0.00  0.00    +0.003 C 
ENDROOT
BRANCH   4  16
ATOM     16  S   UNL     1      30.880 -23.966 -13.509  0.00  0.00    +0.081 S 
ATOM     17  O   UNL     1      30.309 -25.282 -13.769  0.00  0.00    -0.149 OA
ATOM     18  O   UNL     1      30.849 -23.425 -12.157  0.00  0.00    -0.149 OA
BRANCH  16  19
ATOM     19  N   UNL     1      30.186 -22.834 -14.582  0.00  0.00    -0.156 N 
ATOM     20  N   UNL     1      28.732 -22.212 -16.396  0.00  0.00    -0.094 NA
ATOM     21  N   UNL     1      28.784 -24.397 -15.800  0.00  0.00    -0.071 NA
ATOM     22  N   UNL     1      27.925 -22.997 -17.124  0.00  0.00    -0.139 N 
ATOM     23  N   UNL     1      27.925 -24.299 -16.806  0.00  0.00    -0.020 NA
ATOM     24  C   UNL     1      29.240 -23.137 -15.589  0.00  0.00    +0.145 C 
ATOM     25  H   UNL     1      30.467 -21.893 -14.492  0.00  0.00    +0.186 HD
ATOM     26  H   UNL     1      27.366 -22.638 -17.850  0.00  0.00    +0.197 HD
ENDBRANCH  16  19
ENDBRANCH   4  16
TORSDOF 2
ENDMDL
