MODEL 1
REMARK VINA RESULT:     -10.4      0.000      0.000
REMARK  Name = 24795070
REMARK  5 active torsions:
REMARK  status: ('A' for Active; 'I' for Inactive)
REMARK    1  A    between atoms: N_1  and  C_23
REMARK    2  A    between atoms: C_9  and  C_12
REMARK    3  A    between atoms: C_15  and  O_18
REMARK    4  A    between atoms: O_18  and  C_22
REMARK    5  A    between atoms: C_23  and  C_25
REMARK                            x       y       z     vdW  Elec       q    Type
REMARK                         _______ _______ _______ _____ _____    ______ ____
ROOT
ATOM      1  N   UNL     1      33.178 -22.364 -18.321  0.00  0.00    -0.317 N 
ATOM      2  N   UNL     1      32.943 -23.788 -15.123  0.00  0.00    -0.170 N 
ATOM      3  N   UNL     1      33.517 -23.391 -16.289  0.00  0.00    -0.158 NA
ATOM      4  N   UNL     1      31.408 -24.135 -13.544  0.00  0.00    -0.226 NA
ATOM      5  C   UNL     1      32.707 -22.797 -17.134  0.00  0.00    +0.147 C 
ATOM      6  C   UNL     1      31.251 -22.573 -16.833  0.00  0.00    +0.039 C 
ATOM      7  C   UNL     1      31.624 -23.633 -14.743  0.00  0.00    +0.155 C 
ATOM      8  C   UNL     1      30.765 -22.995 -15.660  0.00  0.00    +0.039 C 
ATOM      9  C   UNL     1      33.585 -24.426 -14.094  0.00  0.00    +0.095 C 
ATOM     10  C   UNL     1      32.621 -24.628 -13.137  0.00  0.00    +0.117 C 
ATOM     11  H   UNL     1      32.552 -21.921 -18.939  0.00  0.00    +0.148 HD
ENDROOT
BRANCH   9  12
ATOM     12  C   UNL     1      34.986 -24.774 -14.101  0.00  0.00    +0.020 C 
ATOM     13  C   UNL     1      35.911 -23.955 -13.453  0.00  0.00    +0.039 C 
ATOM     14  C   UNL     1      35.414 -25.928 -14.756  0.00  0.00    +0.002 C 
ATOM     15  C   UNL     1      37.265 -24.291 -13.460  0.00  0.00    +0.147 C 
ATOM     16  C   UNL     1      36.768 -26.264 -14.763  0.00  0.00    +0.003 C 
ATOM     17  C   UNL     1      37.693 -25.445 -14.116  0.00  0.00    +0.037 C 
BRANCH  15  18
ATOM     18  O   UNL     1      38.167 -23.493 -12.828  0.00  0.00    -0.404 OA
BRANCH  18  22
ATOM     19  F   UNL     1      37.424 -22.516 -10.898  0.00  0.00    -0.133 F 
ATOM     20  F   UNL     1      39.465 -23.290 -10.992  0.00  0.00    -0.133 F 
ATOM     21  F   UNL     1      37.792 -24.695 -10.918  0.00  0.00    -0.133 F 
ATOM     22  C   UNL     1      38.195 -23.501 -11.405  0.00  0.00    +0.575 C 
ENDBRANCH  18  22
ENDBRANCH  15  18
ENDBRANCH   9  12
BRANCH   1  23
ATOM     23  C   UNL     1      34.549 -22.518 -18.729  0.00  0.00    +0.088 C 
BRANCH  23  25
ATOM     24  N   UNL     1      35.309 -18.707 -20.616  0.00  0.00    +0.386 N 
ATOM     25  C   UNL     1      34.885 -21.494 -19.809  0.00  0.00    +0.015 C 
ATOM     26  C   UNL     1      36.161 -20.722 -19.461  0.00  0.00    -0.021 C 
ATOM     27  C   UNL     1      33.726 -20.513 -20.016  0.00  0.00    -0.021 C 
ATOM     28  C   UNL     1      36.448 -19.627 -20.489  0.00  0.00    -0.077 C 
ATOM     29  C   UNL     1      34.093 -19.424 -21.027  0.00  0.00    -0.077 C 
ATOM     30  C   UNL     1      35.618 -17.637 -21.564  0.00  0.00    -0.101 C 
ATOM     31  H   UNL     1      35.136 -18.293 -19.700  0.00  0.00    -0.080 HD
ENDBRANCH  23  25
ENDBRANCH   1  23
TORSDOF 5
ENDMDL
MODEL 2
REMARK VINA RESULT:     -10.4      5.073      6.661
REMARK  Name = 24795070
REMARK  5 active torsions:
REMARK  status: ('A' for Active; 'I' for Inactive)
REMARK    1  A    between atoms: N_1  and  C_23
REMARK    2  A    between atoms: C_9  and  C_12
REMARK    3  A    between atoms: C_15  and  O_18
REMARK    4  A    between atoms: O_18  and  C_22
REMARK    5  A    between atoms: C_23  and  C_25
REMARK                            x       y       z     vdW  Elec       q    Type
REMARK                         _______ _______ _______ _____ _____    ______ ____
ROOT
ATOM      1  N   UNL     1      34.704 -22.736 -17.345  0.00  0.00    -0.317 N 
ATOM      2  N   UNL     1      32.710 -23.746 -14.641  0.00  0.00    -0.170 N 
ATOM      3  N   UNL     1      33.022 -23.376 -15.911  0.00  0.00    -0.158 NA
ATOM      4  N   UNL     1      32.934 -24.252 -12.481  0.00  0.00    -0.226 NA
ATOM      5  C   UNL     1      34.290 -23.113 -16.118  0.00  0.00    +0.147 C 
ATOM      6  C   UNL     1      35.323 -23.213 -15.030  0.00  0.00    +0.039 C 
ATOM      7  C   UNL     1      33.572 -23.873 -13.570  0.00  0.00    +0.155 C 
ATOM      8  C   UNL     1      34.932 -23.585 -13.806  0.00  0.00    +0.039 C 
ATOM      9  C   UNL     1      31.458 -24.069 -14.188  0.00  0.00    +0.095 C 
ATOM     10  C   UNL     1      31.622 -24.375 -12.859  0.00  0.00    +0.117 C 
ATOM     11  H   UNL     1      35.661 -22.544 -17.478  0.00  0.00    +0.148 HD
ENDROOT
BRANCH   9  12
ATOM     12  C   UNL     1      30.269 -24.061 -15.008  0.00  0.00    +0.020 C 
ATOM     13  C   UNL     1      29.658 -22.851 -15.337  0.00  0.00    +0.039 C 
ATOM     14  C   UNL     1      29.733 -25.263 -15.470  0.00  0.00    +0.002 C 
ATOM     15  C   UNL     1      28.510 -22.843 -16.129  0.00  0.00    +0.147 C 
ATOM     16  C   UNL     1      28.585 -25.254 -16.261  0.00  0.00    +0.003 C 
ATOM     17  C   UNL     1      27.972 -24.045 -16.590  0.00  0.00    +0.037 C 
BRANCH  15  18
ATOM     18  O   UNL     1      27.913 -21.664 -16.450  0.00  0.00    -0.404 OA
BRANCH  18  22
ATOM     19  F   UNL     1      26.361 -22.437 -17.942  0.00  0.00    -0.133 F 
ATOM     20  F   UNL     1      26.152 -20.422 -17.122  0.00  0.00    -0.133 F 
ATOM     21  F   UNL     1      25.763 -22.145 -15.834  0.00  0.00    -0.133 F 
ATOM     22  C   UNL     1      26.543 -21.684 -16.836  0.00  0.00    +0.575 C 
ENDBRANCH  18  22
ENDBRANCH  15  18
ENDBRANCH   9  12
BRANCH   1  23
ATOM     23  C   UNL     1      33.817 -22.602 -18.470  0.00  0.00    +0.088 C 
BRANCH  23  25
ATOM     24  N   UNL     1      35.579 -19.175 -20.420  0.00  0.00    +0.386 N 
ATOM     25  C   UNL     1      34.475 -21.748 -19.549  0.00  0.00    +0.015 C 
ATOM     26  C   UNL     1      35.849 -21.245 -19.093  0.00  0.00    -0.021 C 
ATOM     27  C   UNL     1      33.587 -20.557 -19.925  0.00  0.00    -0.021 C 
ATOM     28  C   UNL     1      36.471 -20.307 -20.128  0.00  0.00    -0.077 C 
ATOM     29  C   UNL     1      34.283 -19.640 -20.934  0.00  0.00    -0.077 C 
ATOM     30  C   UNL     1      36.209 -18.260 -21.372  0.00  0.00    -0.101 C 
ATOM     31  H   UNL     1      35.411 -18.674 -19.548  0.00  0.00    -0.080 HD
ENDBRANCH  23  25
ENDBRANCH   1  23
TORSDOF 5
ENDMDL
MODEL 3
REMARK VINA RESULT:     -10.2      1.946      2.513
REMARK  Name = 24795070
REMARK  5 active torsions:
REMARK  status: ('A' for Active; 'I' for Inactive)
REMARK    1  A    between atoms: N_1  and  C_23
REMARK    2  A    between atoms: C_9  and  C_12
REMARK    3  A    between atoms: C_15  and  O_18
REMARK    4  A    between atoms: O_18  and  C_22
REMARK    5  A    between atoms: C_23  and  C_25
REMARK                            x       y       z     vdW  Elec       q    Type
REMARK                         _______ _______ _______ _____ _____    ______ ____
ROOT
ATOM      1  N   UNL     1      32.818 -22.791 -18.129  0.00  0.00    -0.317 N 
ATOM      2  N   UNL     1      33.761 -23.477 -14.820  0.00  0.00    -0.170 N 
ATOM      3  N   UNL     1      33.903 -23.259 -16.154  0.00  0.00    -0.158 NA
ATOM      4  N   UNL     1      32.814 -23.719 -12.816  0.00  0.00    -0.226 NA
ATOM      5  C   UNL     1      32.786 -23.020 -16.800  0.00  0.00    +0.147 C 
ATOM      6  C   UNL     1      31.448 -22.990 -16.115  0.00  0.00    +0.039 C 
ATOM      7  C   UNL     1      32.588 -23.471 -14.090  0.00  0.00    +0.155 C 
ATOM      8  C   UNL     1      31.396 -23.214 -14.797  0.00  0.00    +0.039 C 
ATOM      9  C   UNL     1      34.778 -23.745 -13.942  0.00  0.00    +0.095 C 
ATOM     10  C   UNL     1      34.171 -23.890 -12.718  0.00  0.00    +0.117 C 
ATOM     11  H   UNL     1      31.968 -22.614 -18.594  0.00  0.00    +0.148 HD
ENDROOT
BRANCH   9  12
ATOM     12  C   UNL     1      36.170 -23.837 -14.314  0.00  0.00    +0.020 C 
ATOM     13  C   UNL     1      36.955 -24.882 -13.825  0.00  0.00    +0.039 C 
ATOM     14  C   UNL     1      36.729 -22.882 -15.163  0.00  0.00    +0.002 C 
ATOM     15  C   UNL     1      38.299 -24.971 -14.184  0.00  0.00    +0.147 C 
ATOM     16  C   UNL     1      38.075 -22.971 -15.521  0.00  0.00    +0.003 C 
ATOM     17  C   UNL     1      38.860 -24.015 -15.032  0.00  0.00    +0.037 C 
BRANCH  15  18
ATOM     18  O   UNL     1      39.065 -25.989 -13.707  0.00  0.00    -0.404 OA
BRANCH  18  22
ATOM     19  F   UNL     1      41.082 -27.033 -13.440  0.00  0.00    -0.133 F 
ATOM     20  F   UNL     1      41.020 -24.862 -13.671  0.00  0.00    -0.133 F 
ATOM     21  F   UNL     1      40.598 -26.132 -15.399  0.00  0.00    -0.133 F 
ATOM     22  C   UNL     1      40.443 -26.020 -14.062  0.00  0.00    +0.575 C 
ENDBRANCH  18  22
ENDBRANCH  15  18
ENDBRANCH   9  12
BRANCH   1  23
ATOM     23  C   UNL     1      34.032 -22.793 -18.900  0.00  0.00    +0.088 C 
BRANCH  23  25
ATOM     24  N   UNL     1      35.495 -19.342 -21.048  0.00  0.00    +0.386 N 
ATOM     25  C   UNL     1      34.467 -21.358 -19.183  0.00  0.00    +0.015 C 
ATOM     26  C   UNL     1      33.594 -20.721 -20.269  0.00  0.00    -0.021 C 
ATOM     27  C   UNL     1      35.939 -21.302 -19.603  0.00  0.00    -0.021 C 
ATOM     28  C   UNL     1      34.086 -19.318 -20.629  0.00  0.00    -0.077 C 
ATOM     29  C   UNL     1      36.356 -19.879 -19.985  0.00  0.00    -0.077 C 
ATOM     30  C   UNL     1      35.936 -18.003 -21.437  0.00  0.00    -0.101 C 
ATOM     31  H   UNL     1      35.571 -19.960 -21.857  0.00  0.00    -0.080 HD
ENDBRANCH  23  25
ENDBRANCH   1  23
TORSDOF 5
ENDMDL
MODEL 4
REMARK VINA RESULT:     -10.2      1.838      2.177
REMARK  Name = 24795070
REMARK  5 active torsions:
REMARK  status: ('A' for Active; 'I' for Inactive)
REMARK    1  A    between atoms: N_1  and  C_23
REMARK    2  A    between atoms: C_9  and  C_12
REMARK    3  A    between atoms: C_15  and  O_18
REMARK    4  A    between atoms: O_18  and  C_22
REMARK    5  A    between atoms: C_23  and  C_25
REMARK                            x       y       z     vdW  Elec       q    Type
REMARK                         _______ _______ _______ _____ _____    ______ ____
ROOT
ATOM      1  N   UNL     1      32.822 -22.488 -17.882  0.00  0.00    -0.317 N 
ATOM      2  N   UNL     1      32.156 -23.597 -14.621  0.00  0.00    -0.170 N 
ATOM      3  N   UNL     1      32.887 -23.277 -15.721  0.00  0.00    -0.158 NA
ATOM      4  N   UNL     1      30.408 -23.896 -13.269  0.00  0.00    -0.226 NA
ATOM      5  C   UNL     1      32.191 -22.833 -16.741  0.00  0.00    +0.147 C 
ATOM      6  C   UNL     1      30.695 -22.688 -16.695  0.00  0.00    +0.039 C 
ATOM      7  C   UNL     1      30.787 -23.503 -14.468  0.00  0.00    +0.155 C 
ATOM      8  C   UNL     1      30.052 -23.025 -15.572  0.00  0.00    +0.039 C 
ATOM      9  C   UNL     1      32.659 -24.079 -13.441  0.00  0.00    +0.095 C 
ATOM     10  C   UNL     1      31.566 -24.255 -12.627  0.00  0.00    +0.117 C 
ATOM     11  H   UNL     1      32.280 -22.156 -18.635  0.00  0.00    +0.148 HD
ENDROOT
BRANCH   9  12
ATOM     12  C   UNL     1      34.060 -24.321 -13.193  0.00  0.00    +0.020 C 
ATOM     13  C   UNL     1      34.973 -24.273 -14.246  0.00  0.00    +0.039 C 
ATOM     14  C   UNL     1      34.500 -24.604 -11.899  0.00  0.00    +0.002 C 
ATOM     15  C   UNL     1      36.327 -24.508 -14.006  0.00  0.00    +0.147 C 
ATOM     16  C   UNL     1      35.854 -24.839 -11.660  0.00  0.00    +0.003 C 
ATOM     17  C   UNL     1      36.767 -24.792 -12.713  0.00  0.00    +0.037 C 
BRANCH  15  18
ATOM     18  O   UNL     1      37.218 -24.461 -15.033  0.00  0.00    -0.404 OA
BRANCH  18  22
ATOM     19  F   UNL     1      37.610 -22.309 -14.366  0.00  0.00    -0.133 F 
ATOM     20  F   UNL     1      37.246 -22.729 -16.480  0.00  0.00    -0.133 F 
ATOM     21  F   UNL     1      39.140 -23.346 -15.579  0.00  0.00    -0.133 F 
ATOM     22  C   UNL     1      37.815 -23.209 -15.351  0.00  0.00    +0.575 C 
ENDBRANCH  18  22
ENDBRANCH  15  18
ENDBRANCH   9  12
BRANCH   1  23
ATOM     23  C   UNL     1      34.248 -22.580 -18.053  0.00  0.00    +0.088 C 
BRANCH  23  25
ATOM     24  N   UNL     1      35.294 -19.193 -20.522  0.00  0.00    +0.386 N 
ATOM     25  C   UNL     1      34.674 -21.775 -19.277  0.00  0.00    +0.015 C 
ATOM     26  C   UNL     1      35.988 -21.031 -19.018  0.00  0.00    -0.021 C 
ATOM     27  C   UNL     1      33.585 -20.776 -19.685  0.00  0.00    -0.021 C 
ATOM     28  C   UNL     1      36.369 -20.143 -20.204  0.00  0.00    -0.077 C 
ATOM     29  C   UNL     1      34.045 -19.896 -20.850  0.00  0.00    -0.077 C 
ATOM     30  C   UNL     1      35.693 -18.318 -21.624  0.00  0.00    -0.101 C 
ATOM     31  H   UNL     1      35.125 -18.621 -19.695  0.00  0.00    -0.080 HD
ENDBRANCH  23  25
ENDBRANCH   1  23
TORSDOF 5
ENDMDL
MODEL 5
REMARK VINA RESULT:     -10.1      1.740      2.202
REMARK  Name = 24795070
REMARK  5 active torsions:
REMARK  status: ('A' for Active; 'I' for Inactive)
REMARK    1  A    between atoms: N_1  and  C_23
REMARK    2  A    between atoms: C_9  and  C_12
REMARK    3  A    between atoms: C_15  and  O_18
REMARK    4  A    between atoms: O_18  and  C_22
REMARK    5  A    between atoms: C_23  and  C_25
REMARK                            x       y       z     vdW  Elec       q    Type
REMARK                         _______ _______ _______ _____ _____    ______ ____
ROOT
ATOM      1  N   UNL     1      33.785 -22.518 -17.742  0.00  0.00    -0.317 N 
ATOM      2  N   UNL     1      33.345 -23.884 -14.540  0.00  0.00    -0.170 N 
ATOM      3  N   UNL     1      34.000 -23.372 -15.616  0.00  0.00    -0.158 NA
ATOM      4  N   UNL     1      31.690 -24.596 -13.227  0.00  0.00    -0.226 NA
ATOM      5  C   UNL     1      33.233 -23.035 -16.625  0.00  0.00    +0.147 C 
ATOM      6  C   UNL     1      31.739 -23.204 -16.594  0.00  0.00    +0.039 C 
ATOM      7  C   UNL     1      31.986 -24.081 -14.403  0.00  0.00    +0.155 C 
ATOM      8  C   UNL     1      31.173 -23.716 -15.496  0.00  0.00    +0.039 C 
ATOM      9  C   UNL     1      33.931 -24.304 -13.374  0.00  0.00    +0.095 C 
ATOM     10  C   UNL     1      32.894 -24.737 -12.585  0.00  0.00    +0.117 C 
ATOM     11  H   UNL     1      33.190 -22.272 -18.487  0.00  0.00    +0.148 HD
ENDROOT
BRANCH   9  12
ATOM     12  C   UNL     1      35.351 -24.263 -13.117  0.00  0.00    +0.020 C 
ATOM     13  C   UNL     1      36.218 -25.063 -13.862  0.00  0.00    +0.039 C 
ATOM     14  C   UNL     1      35.855 -23.423 -12.124  0.00  0.00    +0.002 C 
ATOM     15  C   UNL     1      37.589 -25.024 -13.613  0.00  0.00    +0.147 C 
ATOM     16  C   UNL     1      37.227 -23.385 -11.875  0.00  0.00    +0.003 C 
ATOM     17  C   UNL     1      38.094 -24.185 -12.619  0.00  0.00    +0.037 C 
BRANCH  15  18
ATOM     18  O   UNL     1      38.435 -25.804 -14.339  0.00  0.00    -0.404 OA
BRANCH  18  22
ATOM     19  F   UNL     1      39.674 -24.064 -15.156  0.00  0.00    -0.133 F 
ATOM     20  F   UNL     1      40.328 -26.116 -15.529  0.00  0.00    -0.133 F 
ATOM     21  F   UNL     1      40.505 -25.287 -13.514  0.00  0.00    -0.133 F 
ATOM     22  C   UNL     1      39.737 -25.303 -14.624  0.00  0.00    +0.575 C 
ENDBRANCH  18  22
ENDBRANCH  15  18
ENDBRANCH   9  12
BRANCH   1  23
ATOM     23  C   UNL     1      35.199 -22.306 -17.897  0.00  0.00    +0.088 C 
BRANCH  23  25
ATOM     24  N   UNL     1      35.610 -18.997 -20.642  0.00  0.00    +0.386 N 
ATOM     25  C   UNL     1      35.469 -21.539 -19.188  0.00  0.00    +0.015 C 
ATOM     26  C   UNL     1      36.629 -20.554 -19.012  0.00  0.00    -0.021 C 
ATOM     27  C   UNL     1      34.217 -20.786 -19.652  0.00  0.00    -0.021 C 
ATOM     28  C   UNL     1      36.839 -19.710 -20.271  0.00  0.00    -0.077 C 
ATOM     29  C   UNL     1      34.506 -19.935 -20.891  0.00  0.00    -0.077 C 
ATOM     30  C   UNL     1      35.840 -18.155 -21.816  0.00  0.00    -0.101 C 
ATOM     31  H   UNL     1      35.344 -18.399 -19.859  0.00  0.00    -0.080 HD
ENDBRANCH  23  25
ENDBRANCH   1  23
TORSDOF 5
ENDMDL
MODEL 6
REMARK VINA RESULT:     -10.0     12.987     16.947
REMARK  Name = 24795070
REMARK  5 active torsions:
REMARK  status: ('A' for Active; 'I' for Inactive)
REMARK    1  A    between atoms: N_1  and  C_23
REMARK    2  A    between atoms: C_9  and  C_12
REMARK    3  A    between atoms: C_15  and  O_18
REMARK    4  A    between atoms: O_18  and  C_22
REMARK    5  A    between atoms: C_23  and  C_25
REMARK                            x       y       z     vdW  Elec       q    Type
REMARK                         _______ _______ _______ _____ _____    ______ ____
ROOT
ATOM      1  N   UNL     1      32.358 -12.237 -22.205  0.00  0.00    -0.317 N 
ATOM      2  N   UNL     1      32.468  -8.982 -20.902  0.00  0.00    -0.170 N 
ATOM      3  N   UNL     1      32.630  -9.988 -21.801  0.00  0.00    -0.158 NA
ATOM      4  N   UNL     1      31.932  -7.900 -19.028  0.00  0.00    -0.226 NA
ATOM      5  C   UNL     1      32.239 -11.171 -21.389  0.00  0.00    +0.147 C 
ATOM      6  C   UNL     1      31.655 -11.395 -20.022  0.00  0.00    +0.039 C 
ATOM      7  C   UNL     1      31.944  -9.073 -19.628  0.00  0.00    +0.155 C 
ATOM      8  C   UNL     1      31.529 -10.350 -19.197  0.00  0.00    +0.039 C 
ATOM      9  C   UNL     1      32.801  -7.668 -21.106  0.00  0.00    +0.095 C 
ATOM     10  C   UNL     1      32.462  -7.025 -19.940  0.00  0.00    +0.117 C 
ATOM     11  H   UNL     1      32.058 -13.115 -21.875  0.00  0.00    +0.148 HD
ENDROOT
BRANCH   9  12
ATOM     12  C   UNL     1      33.383  -7.156 -22.324  0.00  0.00    +0.020 C 
ATOM     13  C   UNL     1      32.559  -6.663 -23.336  0.00  0.00    +0.039 C 
ATOM     14  C   UNL     1      34.768  -7.155 -22.487  0.00  0.00    +0.002 C 
ATOM     15  C   UNL     1      33.122  -6.168 -24.513  0.00  0.00    +0.147 C 
ATOM     16  C   UNL     1      35.330  -6.661 -23.665  0.00  0.00    +0.003 C 
ATOM     17  C   UNL     1      34.507  -6.168 -24.677  0.00  0.00    +0.037 C 
BRANCH  15  18
ATOM     18  O   UNL     1      32.320  -5.687 -25.501  0.00  0.00    -0.404 OA
BRANCH  18  22
ATOM     19  F   UNL     1      30.471  -4.573 -24.745  0.00  0.00    -0.133 F 
ATOM     20  F   UNL     1      31.529  -3.827 -26.505  0.00  0.00    -0.133 F 
ATOM     21  F   UNL     1      32.452  -3.618 -24.535  0.00  0.00    -0.133 F 
ATOM     22  C   UNL     1      31.691  -4.426 -25.304  0.00  0.00    +0.575 C 
ENDBRANCH  18  22
ENDBRANCH  15  18
ENDBRANCH   9  12
BRANCH   1  23
ATOM     23  C   UNL     1      32.901 -12.156 -23.535  0.00  0.00    +0.088 C 
BRANCH  23  25
ATOM     24  N   UNL     1      34.198 -16.273 -23.675  0.00  0.00    +0.386 N 
ATOM     25  C   UNL     1      33.774 -13.375 -23.813  0.00  0.00    +0.015 C 
ATOM     26  C   UNL     1      33.069 -14.356 -24.756  0.00  0.00    -0.021 C 
ATOM     27  C   UNL     1      34.151 -14.090 -22.511  0.00  0.00    -0.021 C 
ATOM     28  C   UNL     1      33.896 -15.626 -24.959  0.00  0.00    -0.077 C 
ATOM     29  C   UNL     1      34.944 -15.370 -22.788  0.00  0.00    -0.077 C 
ATOM     30  C   UNL     1      34.944 -17.513 -23.889  0.00  0.00    -0.101 C 
ATOM     31  H   UNL     1      33.312 -16.499 -23.221  0.00  0.00    -0.080 HD
ENDBRANCH  23  25
ENDBRANCH   1  23
TORSDOF 5
ENDMDL
MODEL 7
REMARK VINA RESULT:     -10.0      4.251      5.687
REMARK  Name = 24795070
REMARK  5 active torsions:
REMARK  status: ('A' for Active; 'I' for Inactive)
REMARK    1  A    between atoms: N_1  and  C_23
REMARK    2  A    between atoms: C_9  and  C_12
REMARK    3  A    between atoms: C_15  and  O_18
REMARK    4  A    between atoms: O_18  and  C_22
REMARK    5  A    between atoms: C_23  and  C_25
REMARK                            x       y       z     vdW  Elec       q    Type
REMARK                         _______ _______ _______ _____ _____    ______ ____
ROOT
ATOM      1  N   UNL     1      35.757 -22.312 -17.318  0.00  0.00    -0.317 N 
ATOM      2  N   UNL     1      34.851 -23.451 -14.126  0.00  0.00    -0.170 N 
ATOM      3  N   UNL     1      34.708 -23.123 -15.437  0.00  0.00    -0.158 NA
ATOM      4  N   UNL     1      35.780 -23.762 -12.123  0.00  0.00    -0.226 NA
ATOM      5  C   UNL     1      35.793 -22.667 -16.017  0.00  0.00    +0.147 C 
ATOM      6  C   UNL     1      37.097 -22.518 -15.285  0.00  0.00    +0.039 C 
ATOM      7  C   UNL     1      35.995 -23.357 -13.359  0.00  0.00    +0.155 C 
ATOM      8  C   UNL     1      37.153 -22.865 -13.994  0.00  0.00    +0.039 C 
ATOM      9  C   UNL     1      33.863 -23.946 -13.315  0.00  0.00    +0.095 C 
ATOM     10  C   UNL     1      34.459 -24.128 -12.090  0.00  0.00    +0.117 C 
ATOM     11  H   UNL     1      36.583 -21.972 -17.733  0.00  0.00    +0.148 HD
ENDROOT
BRANCH   9  12
ATOM     12  C   UNL     1      32.507 -24.192 -13.743  0.00  0.00    +0.020 C 
ATOM     13  C   UNL     1      31.878 -23.302 -14.613  0.00  0.00    +0.039 C 
ATOM     14  C   UNL     1      31.826 -25.321 -13.286  0.00  0.00    +0.002 C 
ATOM     15  C   UNL     1      30.567 -23.540 -15.026  0.00  0.00    +0.147 C 
ATOM     16  C   UNL     1      30.515 -25.558 -13.699  0.00  0.00    +0.003 C 
ATOM     17  C   UNL     1      29.885 -24.668 -14.568  0.00  0.00    +0.037 C 
BRANCH  15  18
ATOM     18  O   UNL     1      29.953 -22.672 -15.875  0.00  0.00    -0.404 OA
BRANCH  18  22
ATOM     19  F   UNL     1      28.051 -23.900 -16.198  0.00  0.00    -0.133 F 
ATOM     20  F   UNL     1      28.129 -21.836 -16.910  0.00  0.00    -0.133 F 
ATOM     21  F   UNL     1      28.006 -22.221 -14.762  0.00  0.00    -0.133 F 
ATOM     22  C   UNL     1      28.530 -22.668 -15.923  0.00  0.00    +0.575 C 
ENDBRANCH  18  22
ENDBRANCH  15  18
ENDBRANCH   9  12
BRANCH   1  23
ATOM     23  C   UNL     1      34.573 -22.406 -18.129  0.00  0.00    +0.088 C 
BRANCH  23  25
ATOM     24  N   UNL     1      35.029 -19.015 -20.765  0.00  0.00    +0.386 N 
ATOM     25  C   UNL     1      34.760 -21.602 -19.412  0.00  0.00    +0.015 C 
ATOM     26  C   UNL     1      36.052 -20.779 -19.365  0.00  0.00    -0.021 C 
ATOM     27  C   UNL     1      33.565 -20.675 -19.660  0.00  0.00    -0.021 C 
ATOM     28  C   UNL     1      36.195 -19.895 -20.604  0.00  0.00    -0.077 C 
ATOM     29  C   UNL     1      33.789 -19.794 -20.891  0.00  0.00    -0.077 C 
ATOM     30  C   UNL     1      35.204 -18.140 -21.924  0.00  0.00    -0.101 C 
ATOM     31  H   UNL     1      34.954 -18.437 -19.928  0.00  0.00    -0.080 HD
ENDBRANCH  23  25
ENDBRANCH   1  23
TORSDOF 5
ENDMDL
MODEL 8
REMARK VINA RESULT:      -9.1      4.317      7.351
REMARK  Name = 24795070
REMARK  5 active torsions:
REMARK  status: ('A' for Active; 'I' for Inactive)
REMARK    1  A    between atoms: N_1  and  C_23
REMARK    2  A    between atoms: C_9  and  C_12
REMARK    3  A    between atoms: C_15  and  O_18
REMARK    4  A    between atoms: O_18  and  C_22
REMARK    5  A    between atoms: C_23  and  C_25
REMARK                            x       y       z     vdW  Elec       q    Type
REMARK                         _______ _______ _______ _____ _____    ______ ____
ROOT
ATOM      1  N   UNL     1      34.866 -23.759 -12.027  0.00  0.00    -0.317 N 
ATOM      2  N   UNL     1      33.152 -23.522 -15.079  0.00  0.00    -0.170 N 
ATOM      3  N   UNL     1      34.180 -23.414 -14.197  0.00  0.00    -0.158 NA
ATOM      4  N   UNL     1      31.134 -23.971 -15.915  0.00  0.00    -0.226 NA
ATOM      5  C   UNL     1      33.913 -23.824 -12.979  0.00  0.00    +0.147 C 
ATOM      6  C   UNL     1      32.568 -24.371 -12.589  0.00  0.00    +0.039 C 
ATOM      7  C   UNL     1      31.883 -24.009 -14.832  0.00  0.00    +0.155 C 
ATOM      8  C   UNL     1      31.610 -24.444 -13.519  0.00  0.00    +0.039 C 
ATOM      9  C   UNL     1      33.192 -23.161 -16.400  0.00  0.00    +0.095 C 
ATOM     10  C   UNL     1      31.942 -23.446 -16.891  0.00  0.00    +0.117 C 
ATOM     11  H   UNL     1      34.644 -24.072 -11.120  0.00  0.00    +0.148 HD
ENDROOT
BRANCH   9  12
ATOM     12  C   UNL     1      34.352 -22.604 -17.056  0.00  0.00    +0.020 C 
ATOM     13  C   UNL     1      34.281 -22.229 -18.398  0.00  0.00    +0.039 C 
ATOM     14  C   UNL     1      35.542 -22.440 -16.346  0.00  0.00    +0.002 C 
ATOM     15  C   UNL     1      35.402 -21.692 -19.031  0.00  0.00    +0.147 C 
ATOM     16  C   UNL     1      36.662 -21.902 -16.981  0.00  0.00    +0.003 C 
ATOM     17  C   UNL     1      36.592 -21.529 -18.322  0.00  0.00    +0.037 C 
BRANCH  15  18
ATOM     18  O   UNL     1      35.334 -21.327 -20.340  0.00  0.00    -0.404 OA
BRANCH  18  22
ATOM     19  F   UNL     1      33.748 -19.722 -19.963  0.00  0.00    -0.133 F 
ATOM     20  F   UNL     1      34.579 -19.960 -21.970  0.00  0.00    -0.133 F 
ATOM     21  F   UNL     1      35.823 -19.093 -20.395  0.00  0.00    -0.133 F 
ATOM     22  C   UNL     1      34.872 -20.017 -20.651  0.00  0.00    +0.575 C 
ENDBRANCH  18  22
ENDBRANCH  15  18
ENDBRANCH   9  12
BRANCH   1  23
ATOM     23  C   UNL     1      36.192 -23.256 -12.272  0.00  0.00    +0.088 C 
BRANCH  23  25
ATOM     24  N   UNL     1      39.682 -25.418 -13.613  0.00  0.00    +0.386 N 
ATOM     25  C   UNL     1      37.044 -24.340 -12.925  0.00  0.00    +0.015 C 
ATOM     26  C   UNL     1      37.946 -25.028 -11.895  0.00  0.00    -0.021 C 
ATOM     27  C   UNL     1      37.899 -23.761 -14.057  0.00  0.00    -0.021 C 
ATOM     28  C   UNL     1      38.874 -26.046 -12.558  0.00  0.00    -0.077 C 
ATOM     29  C   UNL     1      38.829 -24.822 -14.650  0.00  0.00    -0.077 C 
ATOM     30  C   UNL     1      40.601 -26.392 -14.202  0.00  0.00    -0.101 C 
ATOM     31  H   UNL     1      40.229 -24.670 -13.186  0.00  0.00    -0.080 HD
ENDBRANCH  23  25
ENDBRANCH   1  23
TORSDOF 5
ENDMDL
MODEL 9
REMARK VINA RESULT:      -9.1     12.575     16.306
REMARK  Name = 24795070
REMARK  5 active torsions:
REMARK  status: ('A' for Active; 'I' for Inactive)
REMARK    1  A    between atoms: N_1  and  C_23
REMARK    2  A    between atoms: C_9  and  C_12
REMARK    3  A    between atoms: C_15  and  O_18
REMARK    4  A    between atoms: O_18  and  C_22
REMARK    5  A    between atoms: C_23  and  C_25
REMARK                            x       y       z     vdW  Elec       q    Type
REMARK                         _______ _______ _______ _____ _____    ______ ____
ROOT
ATOM      1  N   UNL     1      32.304 -12.518 -21.579  0.00  0.00    -0.317 N 
ATOM      2  N   UNL     1      31.951  -9.185 -20.543  0.00  0.00    -0.170 N 
ATOM      3  N   UNL     1      32.095 -10.233 -21.395  0.00  0.00    -0.158 NA
ATOM      4  N   UNL     1      31.730  -8.024 -18.651  0.00  0.00    -0.226 NA
ATOM      5  C   UNL     1      32.160 -11.411 -20.821  0.00  0.00    +0.147 C 
ATOM      6  C   UNL     1      32.082 -11.587 -19.330  0.00  0.00    +0.039 C 
ATOM      7  C   UNL     1      31.867  -9.230 -19.165  0.00  0.00    +0.155 C 
ATOM      8  C   UNL     1      31.939 -10.502 -18.561  0.00  0.00    +0.039 C 
ATOM      9  C   UNL     1      31.860  -7.866 -20.907  0.00  0.00    +0.095 C 
ATOM     10  C   UNL     1      31.725  -7.175 -19.728  0.00  0.00    +0.117 C 
ATOM     11  H   UNL     1      32.351 -13.392 -21.127  0.00  0.00    +0.148 HD
ENDROOT
BRANCH   9  12
ATOM     12  C   UNL     1      31.906  -7.395 -22.270  0.00  0.00    +0.020 C 
ATOM     13  C   UNL     1      32.969  -6.599 -22.697  0.00  0.00    +0.039 C 
ATOM     14  C   UNL     1      30.886  -7.734 -23.160  0.00  0.00    +0.002 C 
ATOM     15  C   UNL     1      33.013  -6.143 -24.014  0.00  0.00    +0.147 C 
ATOM     16  C   UNL     1      30.931  -7.277 -24.477  0.00  0.00    +0.003 C 
ATOM     17  C   UNL     1      31.994  -6.481 -24.904  0.00  0.00    +0.037 C 
BRANCH  15  18
ATOM     18  O   UNL     1      34.050  -5.367 -24.431  0.00  0.00    -0.404 OA
BRANCH  18  22
ATOM     19  F   UNL     1      36.082  -5.238 -25.474  0.00  0.00    -0.133 F 
ATOM     20  F   UNL     1      35.100  -7.180 -25.271  0.00  0.00    -0.133 F 
ATOM     21  F   UNL     1      35.956  -6.224 -23.500  0.00  0.00    -0.133 F 
ATOM     22  C   UNL     1      35.308  -5.990 -24.662  0.00  0.00    +0.575 C 
ENDBRANCH  18  22
ENDBRANCH  15  18
ENDBRANCH   9  12
BRANCH   1  23
ATOM     23  C   UNL     1      32.391 -12.484 -23.014  0.00  0.00    +0.088 C 
BRANCH  23  25
ATOM     24  N   UNL     1      34.145 -16.319 -23.952  0.00  0.00    +0.386 N 
ATOM     25  C   UNL     1      33.405 -13.519 -23.494  0.00  0.00    +0.015 C 
ATOM     26  C   UNL     1      32.847 -14.337 -24.663  0.00  0.00    -0.021 C 
ATOM     27  C   UNL     1      33.815 -14.458 -22.355  0.00  0.00    -0.021 C 
ATOM     28  C   UNL     1      33.817 -15.442 -25.084  0.00  0.00    -0.077 C 
ATOM     29  C   UNL     1      34.755 -15.559 -22.851  0.00  0.00    -0.077 C 
ATOM     30  C   UNL     1      35.032 -17.399 -24.381  0.00  0.00    -0.101 C 
ATOM     31  H   UNL     1      33.276 -16.727 -23.608  0.00  0.00    -0.080 HD
ENDBRANCH  23  25
ENDBRANCH   1  23
TORSDOF 5
ENDMDL
