MODEL 1
REMARK VINA RESULT:     -11.6      0.000      0.000
REMARK  Name = 11998575
REMARK  7 active torsions:
REMARK  status: ('A' for Active; 'I' for Inactive)
REMARK    1  A    between atoms: C_6  and  C_18
REMARK    2  A    between atoms: C_14  and  O_22
REMARK    3  A    between atoms: C_15  and  O_16
REMARK    4  A    between atoms: C_18  and  O_20
REMARK    5  A    between atoms: O_22  and  C_23
REMARK    6  A    between atoms: C_23  and  C_24
REMARK    7  A    between atoms: C_29  and  O_30
REMARK                            x       y       z     vdW  Elec       q    Type
REMARK                         _______ _______ _______ _____ _____    ______ ____
ROOT
ATOM      1  O   UNL     1      32.802 -22.241 -18.406  0.00  0.00    -0.421 OA
ATOM      2  O   UNL     1      32.290 -21.099 -20.311  0.00  0.00    -0.244 OA
ATOM      3  C   UNL     1      35.470 -21.319 -18.567  0.00  0.00    +0.009 A 
ATOM      4  C   UNL     1      35.056 -22.196 -17.466  0.00  0.00    +0.038 A 
ATOM      5  C   UNL     1      34.529 -20.942 -19.541  0.00  0.00    +0.076 A 
ATOM      6  C   UNL     1      36.187 -19.629 -20.724  0.00  0.00    +0.004 C 
ATOM      7  C   UNL     1      33.730 -22.633 -17.418  0.00  0.00    +0.152 A 
ATOM      8  C   UNL     1      34.885 -20.103 -20.610  0.00  0.00    +0.004 C 
ATOM      9  C   UNL     1      36.781 -20.823 -18.709  0.00  0.00    +0.000 C 
ATOM     10  C   UNL     1      35.901 -22.641 -16.436  0.00  0.00    +0.043 C 
ATOM     11  C   UNL     1      37.135 -19.989 -19.775  0.00  0.00    -0.002 C 
ATOM     12  C   UNL     1      33.126 -21.415 -19.474  0.00  0.00    +0.346 A 
ATOM     13  C   UNL     1      33.241 -23.470 -16.411  0.00  0.00    +0.078 C 
ATOM     14  C   UNL     1      34.101 -23.894 -15.406  0.00  0.00    +0.176 C 
ATOM     15  C   UNL     1      35.430 -23.481 -15.418  0.00  0.00    +0.173 C 
ENDROOT
BRANCH  15  16
ATOM     16  O   UNL     1      36.287 -23.889 -14.440  0.00  0.00    -0.468 OA
ATOM     17  C   UNL     1      37.677 -23.669 -14.665  0.00  0.00    +0.253 C 
ENDBRANCH  15  16
BRANCH   6  18
ATOM     18  C   UNL     1      36.565 -18.741 -21.860  0.00  0.00    +0.133 C 
ATOM     19  C   UNL     1      35.758 -17.439 -21.887  0.00  0.00    +0.037 C 
BRANCH  18  20
ATOM     20  O   UNL     1      37.958 -18.411 -21.783  0.00  0.00    -0.380 OA
ATOM     21  H   UNL     1      38.140 -17.978 -20.934  0.00  0.00    +0.211 HD
ENDBRANCH  18  20
ENDBRANCH   6  18
BRANCH  14  22
ATOM     22  O   UNL     1      33.635 -24.711 -14.422  0.00  0.00    -0.467 OA
BRANCH  22  23
ATOM     23  C   UNL     1      32.802 -24.118 -13.427  0.00  0.00    +0.232 C 
BRANCH  23  24
ATOM     24  C   UNL     1      31.405 -24.003 -13.963  0.00  0.00    +0.021 C 
ATOM     25  C   UNL     1      30.672 -25.154 -14.226  0.00  0.00    +0.002 C 
ATOM     26  C   UNL     1      30.857 -22.745 -14.195  0.00  0.00    +0.002 C 
ATOM     27  C   UNL     1      29.373 -25.048 -14.725  0.00  0.00    +0.037 C 
ATOM     28  C   UNL     1      29.559 -22.639 -14.694  0.00  0.00    +0.037 C 
ATOM     29  C   UNL     1      28.818 -23.790 -14.959  0.00  0.00    +0.139 C 
BRANCH  29  30
ATOM     30  O   UNL     1      27.551 -23.686 -15.446  0.00  0.00    -0.471 OA
ATOM     31  C   UNL     1      27.009 -22.372 -15.572  0.00  0.00    +0.252 C 
ENDBRANCH  29  30
ENDBRANCH  23  24
ENDBRANCH  22  23
ENDBRANCH  14  22
TORSDOF 7
ENDMDL
MODEL 2
REMARK VINA RESULT:     -11.4      2.916      8.968
REMARK  Name = 11998575
REMARK  7 active torsions:
REMARK  status: ('A' for Active; 'I' for Inactive)
REMARK    1  A    between atoms: C_6  and  C_18
REMARK    2  A    between atoms: C_14  and  O_22
REMARK    3  A    between atoms: C_15  and  O_16
REMARK    4  A    between atoms: C_18  and  O_20
REMARK    5  A    between atoms: O_22  and  C_23
REMARK    6  A    between atoms: C_23  and  C_24
REMARK    7  A    between atoms: C_29  and  O_30
REMARK                            x       y       z     vdW  Elec       q    Type
REMARK                         _______ _______ _______ _____ _____    ______ ____
ROOT
ATOM      1  O   UNL     1      37.425 -22.047 -16.992  0.00  0.00    -0.421 OA
ATOM      2  O   UNL     1      38.605 -22.717 -15.160  0.00  0.00    -0.244 OA
ATOM      3  C   UNL     1      35.046 -23.033 -15.823  0.00  0.00    +0.009 A 
ATOM      4  C   UNL     1      35.014 -22.403 -17.149  0.00  0.00    +0.038 A 
ATOM      5  C   UNL     1      36.270 -23.142 -15.141  0.00  0.00    +0.076 A 
ATOM      6  C   UNL     1      35.196 -24.235 -13.263  0.00  0.00    +0.004 C 
ATOM      7  C   UNL     1      36.208 -21.927 -17.695  0.00  0.00    +0.152 A 
ATOM      8  C   UNL     1      36.344 -23.738 -13.871  0.00  0.00    +0.004 C 
ATOM      9  C   UNL     1      33.901 -23.545 -15.182  0.00  0.00    +0.000 C 
ATOM     10  C   UNL     1      33.857 -22.236 -17.927  0.00  0.00    +0.043 C 
ATOM     11  C   UNL     1      33.976 -24.139 -13.918  0.00  0.00    -0.002 C 
ATOM     12  C   UNL     1      37.529 -22.632 -15.737  0.00  0.00    +0.346 A 
ATOM     13  C   UNL     1      36.280 -21.314 -18.949  0.00  0.00    +0.078 C 
ATOM     14  C   UNL     1      35.118 -21.164 -19.696  0.00  0.00    +0.176 C 
ATOM     15  C   UNL     1      33.908 -21.624 -19.187  0.00  0.00    +0.173 C 
ENDROOT
BRANCH  15  16
ATOM     16  O   UNL     1      32.759 -21.485 -19.907  0.00  0.00    -0.468 OA
ATOM     17  C   UNL     1      32.339 -20.156 -20.204  0.00  0.00    +0.253 C 
ENDBRANCH  15  16
BRANCH   6  18
ATOM     18  C   UNL     1      35.275 -24.868 -11.916  0.00  0.00    +0.133 C 
ATOM     19  C   UNL     1      36.680 -25.383 -11.585  0.00  0.00    +0.037 C 
BRANCH  18  20
ATOM     20  O   UNL     1      34.886 -23.928 -10.908  0.00  0.00    -0.380 OA
ATOM     21  H   UNL     1      34.112 -23.430 -11.213  0.00  0.00    +0.211 HD
ENDBRANCH  18  20
ENDBRANCH   6  18
BRANCH  14  22
ATOM     22  O   UNL     1      35.177 -20.569 -20.920  0.00  0.00    -0.467 OA
BRANCH  22  23
ATOM     23  C   UNL     1      35.878 -19.329 -21.005  0.00  0.00    +0.232 C 
BRANCH  23  24
ATOM     24  C   UNL     1      35.337 -18.540 -22.162  0.00  0.00    +0.021 C 
ATOM     25  C   UNL     1      34.701 -19.199 -23.207  0.00  0.00    +0.002 C 
ATOM     26  C   UNL     1      35.480 -17.156 -22.178  0.00  0.00    +0.002 C 
ATOM     27  C   UNL     1      34.198 -18.465 -24.283  0.00  0.00    +0.037 C 
ATOM     28  C   UNL     1      34.978 -16.423 -23.253  0.00  0.00    +0.037 C 
ATOM     29  C   UNL     1      34.337 -17.077 -24.305  0.00  0.00    +0.139 C 
BRANCH  29  30
ATOM     30  O   UNL     1      33.847 -16.362 -25.354  0.00  0.00    -0.471 OA
ATOM     31  C   UNL     1      33.455 -15.015 -25.095  0.00  0.00    +0.252 C 
ENDBRANCH  29  30
ENDBRANCH  23  24
ENDBRANCH  22  23
ENDBRANCH  14  22
TORSDOF 7
ENDMDL
MODEL 3
REMARK VINA RESULT:     -11.1      5.777      9.837
REMARK  Name = 11998575
REMARK  7 active torsions:
REMARK  status: ('A' for Active; 'I' for Inactive)
REMARK    1  A    between atoms: C_6  and  C_18
REMARK    2  A    between atoms: C_14  and  O_22
REMARK    3  A    between atoms: C_15  and  O_16
REMARK    4  A    between atoms: C_18  and  O_20
REMARK    5  A    between atoms: O_22  and  C_23
REMARK    6  A    between atoms: C_23  and  C_24
REMARK    7  A    between atoms: C_29  and  O_30
REMARK                            x       y       z     vdW  Elec       q    Type
REMARK                         _______ _______ _______ _____ _____    ______ ____
ROOT
ATOM      1  O   UNL     1      32.913 -13.314 -19.646  0.00  0.00    -0.421 OA
ATOM      2  O   UNL     1      31.756 -11.456 -19.006  0.00  0.00    -0.244 OA
ATOM      3  C   UNL     1      33.085 -12.301 -22.281  0.00  0.00    +0.009 A 
ATOM      4  C   UNL     1      33.683 -13.600 -21.946  0.00  0.00    +0.038 A 
ATOM      5  C   UNL     1      32.427 -11.566 -21.280  0.00  0.00    +0.076 A 
ATOM      6  C   UNL     1      31.906  -9.788 -22.842  0.00  0.00    +0.004 C 
ATOM      7  C   UNL     1      33.578 -14.069 -20.635  0.00  0.00    +0.152 A 
ATOM      8  C   UNL     1      31.842 -10.320 -21.559  0.00  0.00    +0.004 C 
ATOM      9  C   UNL     1      33.134 -11.737 -23.571  0.00  0.00    +0.000 C 
ATOM     10  C   UNL     1      34.364 -14.425 -22.856  0.00  0.00    +0.043 C 
ATOM     11  C   UNL     1      32.551 -10.496 -23.848  0.00  0.00    -0.002 C 
ATOM     12  C   UNL     1      32.325 -12.080 -19.893  0.00  0.00    +0.346 A 
ATOM     13  C   UNL     1      34.113 -15.292 -20.220  0.00  0.00    +0.078 C 
ATOM     14  C   UNL     1      34.781 -16.087 -21.143  0.00  0.00    +0.176 C 
ATOM     15  C   UNL     1      34.906 -15.655 -22.460  0.00  0.00    +0.173 C 
ENDROOT
BRANCH  15  16
ATOM     16  O   UNL     1      35.558 -16.423 -23.378  0.00  0.00    -0.468 OA
ATOM     17  C   UNL     1      34.867 -16.707 -24.592  0.00  0.00    +0.253 C 
ENDBRANCH  15  16
BRANCH   6  18
ATOM     18  C   UNL     1      31.285  -8.466 -23.138  0.00  0.00    +0.133 C 
ATOM     19  C   UNL     1      31.564  -7.423 -22.050  0.00  0.00    +0.037 C 
BRANCH  18  20
ATOM     20  O   UNL     1      31.774  -7.962 -24.387  0.00  0.00    -0.380 OA
ATOM     21  H   UNL     1      31.230  -8.310 -25.110  0.00  0.00    +0.211 HD
ENDBRANCH  18  20
ENDBRANCH   6  18
BRANCH  14  22
ATOM     22  O   UNL     1      35.304 -17.281 -20.749  0.00  0.00    -0.467 OA
BRANCH  22  23
ATOM     23  C   UNL     1      34.941 -18.431 -21.511  0.00  0.00    +0.232 C 
BRANCH  23  24
ATOM     24  C   UNL     1      34.884 -19.623 -20.601  0.00  0.00    +0.021 C 
ATOM     25  C   UNL     1      33.653 -20.171 -20.259  0.00  0.00    +0.002 C 
ATOM     26  C   UNL     1      36.065 -20.167 -20.105  0.00  0.00    +0.002 C 
ATOM     27  C   UNL     1      33.600 -21.279 -19.412  0.00  0.00    +0.037 C 
ATOM     28  C   UNL     1      36.012 -21.275 -19.259  0.00  0.00    +0.037 C 
ATOM     29  C   UNL     1      34.780 -21.830 -18.912  0.00  0.00    +0.139 C 
BRANCH  29  30
ATOM     30  O   UNL     1      34.729 -22.910 -18.086  0.00  0.00    -0.471 OA
ATOM     31  C   UNL     1      33.549 -23.073 -17.302  0.00  0.00    +0.252 C 
ENDBRANCH  29  30
ENDBRANCH  23  24
ENDBRANCH  22  23
ENDBRANCH  14  22
TORSDOF 7
ENDMDL
MODEL 4
REMARK VINA RESULT:     -10.7      1.945      8.988
REMARK  Name = 11998575
REMARK  7 active torsions:
REMARK  status: ('A' for Active; 'I' for Inactive)
REMARK    1  A    between atoms: C_6  and  C_18
REMARK    2  A    between atoms: C_14  and  O_22
REMARK    3  A    between atoms: C_15  and  O_16
REMARK    4  A    between atoms: C_18  and  O_20
REMARK    5  A    between atoms: O_22  and  C_23
REMARK    6  A    between atoms: C_23  and  C_24
REMARK    7  A    between atoms: C_29  and  O_30
REMARK                            x       y       z     vdW  Elec       q    Type
REMARK                         _______ _______ _______ _____ _____    ______ ____
ROOT
ATOM      1  O   UNL     1      36.114 -22.652 -16.669  0.00  0.00    -0.421 OA
ATOM      2  O   UNL     1      36.206 -23.763 -14.680  0.00  0.00    -0.244 OA
ATOM      3  C   UNL     1      33.290 -22.795 -16.621  0.00  0.00    +0.009 A 
ATOM      4  C   UNL     1      33.979 -22.140 -17.740  0.00  0.00    +0.038 A 
ATOM      5  C   UNL     1      34.047 -23.350 -15.574  0.00  0.00    +0.076 A 
ATOM      6  C   UNL     1      32.040 -24.075 -14.426  0.00  0.00    +0.004 C 
ATOM      7  C   UNL     1      35.375 -22.088 -17.730  0.00  0.00    +0.152 A 
ATOM      8  C   UNL     1      33.426 -23.984 -14.486  0.00  0.00    +0.004 C 
ATOM      9  C   UNL     1      31.888 -22.902 -16.532  0.00  0.00    +0.000 C 
ATOM     10  C   UNL     1      33.336 -21.551 -18.840  0.00  0.00    +0.043 C 
ATOM     11  C   UNL     1      31.271 -23.534 -15.448  0.00  0.00    -0.002 C 
ATOM     12  C   UNL     1      35.528 -23.286 -15.581  0.00  0.00    +0.346 A 
ATOM     13  C   UNL     1      36.121 -21.488 -18.749  0.00  0.00    +0.078 C 
ATOM     14  C   UNL     1      35.457 -20.914 -19.826  0.00  0.00    +0.176 C 
ATOM     15  C   UNL     1      34.066 -20.945 -19.872  0.00  0.00    +0.173 C 
ENDROOT
BRANCH  15  16
ATOM     16  O   UNL     1      33.399 -20.386 -20.921  0.00  0.00    -0.468 OA
ATOM     17  C   UNL     1      32.124 -19.811 -20.645  0.00  0.00    +0.253 C 
ENDBRANCH  15  16
BRANCH   6  18
ATOM     18  C   UNL     1      31.381 -24.750 -13.271  0.00  0.00    +0.133 C 
ATOM     19  C   UNL     1      30.080 -25.458 -13.662  0.00  0.00    +0.037 C 
BRANCH  18  20
ATOM     20  O   UNL     1      32.269 -25.716 -12.696  0.00  0.00    -0.380 OA
ATOM     21  H   UNL     1      33.173 -25.547 -13.005  0.00  0.00    +0.211 HD
ENDBRANCH  18  20
ENDBRANCH   6  18
BRANCH  14  22
ATOM     22  O   UNL     1      36.173 -20.329 -20.824  0.00  0.00    -0.467 OA
BRANCH  22  23
ATOM     23  C   UNL     1      36.372 -18.918 -20.739  0.00  0.00    +0.232 C 
BRANCH  23  24
ATOM     24  C   UNL     1      35.729 -18.261 -21.926  0.00  0.00    +0.021 C 
ATOM     25  C   UNL     1      35.263 -19.042 -22.977  0.00  0.00    +0.002 C 
ATOM     26  C   UNL     1      35.607 -16.876 -21.964  0.00  0.00    +0.002 C 
ATOM     27  C   UNL     1      34.666 -18.432 -24.080  0.00  0.00    +0.037 C 
ATOM     28  C   UNL     1      35.010 -16.265 -23.066  0.00  0.00    +0.037 C 
ATOM     29  C   UNL     1      34.540 -17.043 -24.124  0.00  0.00    +0.139 C 
BRANCH  29  30
ATOM     30  O   UNL     1      33.957 -16.448 -25.201  0.00  0.00    -0.471 OA
ATOM     31  C   UNL     1      33.444 -15.130 -25.015  0.00  0.00    +0.252 C 
ENDBRANCH  29  30
ENDBRANCH  23  24
ENDBRANCH  22  23
ENDBRANCH  14  22
TORSDOF 7
ENDMDL
MODEL 5
REMARK VINA RESULT:     -10.3      8.527     13.645
REMARK  Name = 11998575
REMARK  7 active torsions:
REMARK  status: ('A' for Active; 'I' for Inactive)
REMARK    1  A    between atoms: C_6  and  C_18
REMARK    2  A    between atoms: C_14  and  O_22
REMARK    3  A    between atoms: C_15  and  O_16
REMARK    4  A    between atoms: C_18  and  O_20
REMARK    5  A    between atoms: O_22  and  C_23
REMARK    6  A    between atoms: C_23  and  C_24
REMARK    7  A    between atoms: C_29  and  O_30
REMARK                            x       y       z     vdW  Elec       q    Type
REMARK                         _______ _______ _______ _____ _____    ______ ____
ROOT
ATOM      1  O   UNL     1      33.124 -13.276 -24.078  0.00  0.00    -0.421 OA
ATOM      2  O   UNL     1      34.089 -14.892 -25.364  0.00  0.00    -0.244 OA
ATOM      3  C   UNL     1      33.931 -14.650 -21.742  0.00  0.00    +0.009 A 
ATOM      4  C   UNL     1      33.182 -13.391 -21.639  0.00  0.00    +0.038 A 
ATOM      5  C   UNL     1      34.242 -15.166 -23.012  0.00  0.00    +0.076 A 
ATOM      6  C   UNL     1      35.371 -17.072 -22.028  0.00  0.00    +0.004 C 
ATOM      7  C   UNL     1      32.800 -12.740 -22.813  0.00  0.00    +0.152 A 
ATOM      8  C   UNL     1      34.957 -16.367 -23.153  0.00  0.00    +0.004 C 
ATOM      9  C   UNL     1      34.363 -15.386 -20.621  0.00  0.00    +0.000 C 
ATOM     10  C   UNL     1      32.812 -12.778 -20.431  0.00  0.00    +0.043 C 
ATOM     11  C   UNL     1      35.074 -16.582 -20.763  0.00  0.00    -0.002 C 
ATOM     12  C   UNL     1      33.828 -14.461 -24.249  0.00  0.00    +0.346 A 
ATOM     13  C   UNL     1      32.085 -11.539 -22.819  0.00  0.00    +0.078 C 
ATOM     14  C   UNL     1      31.732 -10.956 -21.609  0.00  0.00    +0.176 C 
ATOM     15  C   UNL     1      32.094 -11.574 -20.416  0.00  0.00    +0.173 C 
ENDROOT
BRANCH  15  16
ATOM     16  O   UNL     1      31.755 -11.015 -19.220  0.00  0.00    -0.468 OA
ATOM     17  C   UNL     1      32.572  -9.945 -18.751  0.00  0.00    +0.253 C 
ENDBRANCH  15  16
BRANCH   6  18
ATOM     18  C   UNL     1      36.128 -18.347 -22.179  0.00  0.00    +0.133 C 
ATOM     19  C   UNL     1      36.780 -18.807 -20.871  0.00  0.00    +0.037 C 
BRANCH  18  20
ATOM     20  O   UNL     1      35.254 -19.385 -22.640  0.00  0.00    -0.380 OA
ATOM     21  H   UNL     1      34.855 -19.832 -21.878  0.00  0.00    +0.211 HD
ENDBRANCH  18  20
ENDBRANCH   6  18
BRANCH  14  22
ATOM     22  O   UNL     1      31.034  -9.787 -21.603  0.00  0.00    -0.467 OA
BRANCH  22  23
ATOM     23  C   UNL     1      30.960  -9.069 -22.835  0.00  0.00    +0.232 C 
BRANCH  23  24
ATOM     24  C   UNL     1      31.139  -7.605 -22.559  0.00  0.00    +0.021 C 
ATOM     25  C   UNL     1      30.841  -6.676 -23.549  0.00  0.00    +0.002 C 
ATOM     26  C   UNL     1      31.606  -7.191 -21.315  0.00  0.00    +0.002 C 
ATOM     27  C   UNL     1      31.008  -5.315 -23.293  0.00  0.00    +0.037 C 
ATOM     28  C   UNL     1      31.773  -5.830 -21.059  0.00  0.00    +0.037 C 
ATOM     29  C   UNL     1      31.474  -4.892 -22.048  0.00  0.00    +0.139 C 
BRANCH  29  30
ATOM     30  O   UNL     1      31.638  -3.564 -21.798  0.00  0.00    -0.471 OA
ATOM     31  C   UNL     1      30.467  -2.750 -21.823  0.00  0.00    +0.252 C 
ENDBRANCH  29  30
ENDBRANCH  23  24
ENDBRANCH  22  23
ENDBRANCH  14  22
TORSDOF 7
ENDMDL
MODEL 6
REMARK VINA RESULT:     -10.3      2.437      6.038
REMARK  Name = 11998575
REMARK  7 active torsions:
REMARK  status: ('A' for Active; 'I' for Inactive)
REMARK    1  A    between atoms: C_6  and  C_18
REMARK    2  A    between atoms: C_14  and  O_22
REMARK    3  A    between atoms: C_15  and  O_16
REMARK    4  A    between atoms: C_18  and  O_20
REMARK    5  A    between atoms: O_22  and  C_23
REMARK    6  A    between atoms: C_23  and  C_24
REMARK    7  A    between atoms: C_29  and  O_30
REMARK                            x       y       z     vdW  Elec       q    Type
REMARK                         _______ _______ _______ _____ _____    ______ ____
ROOT
ATOM      1  O   UNL     1      37.007 -20.249 -19.355  0.00  0.00    -0.421 OA
ATOM      2  O   UNL     1      38.140 -18.786 -20.688  0.00  0.00    -0.244 OA
ATOM      3  C   UNL     1      34.699 -19.924 -20.957  0.00  0.00    +0.009 A 
ATOM      4  C   UNL     1      34.674 -20.822 -19.796  0.00  0.00    +0.038 A 
ATOM      5  C   UNL     1      35.880 -19.227 -21.265  0.00  0.00    +0.076 A 
ATOM      6  C   UNL     1      34.832 -18.173 -23.179  0.00  0.00    +0.004 C 
ATOM      7  C   UNL     1      35.832 -20.958 -19.027  0.00  0.00    +0.152 A 
ATOM      8  C   UNL     1      35.946 -18.359 -22.367  0.00  0.00    +0.004 C 
ATOM      9  C   UNL     1      33.588 -19.715 -21.797  0.00  0.00    +0.000 C 
ATOM     10  C   UNL     1      33.558 -21.570 -19.387  0.00  0.00    +0.043 C 
ATOM     11  C   UNL     1      33.654 -18.850 -22.894  0.00  0.00    -0.002 C 
ATOM     12  C   UNL     1      37.101 -19.383 -20.437  0.00  0.00    +0.346 A 
ATOM     13  C   UNL     1      35.907 -21.786 -17.904  0.00  0.00    +0.078 C 
ATOM     14  C   UNL     1      34.786 -22.513 -17.524  0.00  0.00    +0.176 C 
ATOM     15  C   UNL     1      33.612 -22.406 -18.263  0.00  0.00    +0.173 C 
ENDROOT
BRANCH  15  16
ATOM     16  O   UNL     1      32.504 -23.112 -17.903  0.00  0.00    -0.468 OA
ATOM     17  C   UNL     1      31.800 -22.665 -16.747  0.00  0.00    +0.253 C 
ENDBRANCH  15  16
BRANCH   6  18
ATOM     18  C   UNL     1      34.901 -17.250 -24.348  0.00  0.00    +0.133 C 
ATOM     19  C   UNL     1      33.521 -16.917 -24.922  0.00  0.00    +0.037 C 
BRANCH  18  20
ATOM     20  O   UNL     1      35.544 -16.027 -23.969  0.00  0.00    -0.380 OA
ATOM     21  H   UNL     1      35.434 -15.886 -23.016  0.00  0.00    +0.211 HD
ENDBRANCH  18  20
ENDBRANCH   6  18
BRANCH  14  22
ATOM     22  O   UNL     1      34.848 -23.322 -16.430  0.00  0.00    -0.467 OA
BRANCH  22  23
ATOM     23  C   UNL     1      35.630 -22.865 -15.328  0.00  0.00    +0.232 C 
BRANCH  23  24
ATOM     24  C   UNL     1      36.630 -23.925 -14.965  0.00  0.00    +0.021 C 
ATOM     25  C   UNL     1      37.983 -23.611 -14.929  0.00  0.00    +0.002 C 
ATOM     26  C   UNL     1      36.191 -25.212 -14.669  0.00  0.00    +0.002 C 
ATOM     27  C   UNL     1      38.912 -24.597 -14.592  0.00  0.00    +0.037 C 
ATOM     28  C   UNL     1      37.120 -26.197 -14.333  0.00  0.00    +0.037 C 
ATOM     29  C   UNL     1      38.480 -25.889 -14.294  0.00  0.00    +0.139 C 
BRANCH  29  30
ATOM     30  O   UNL     1      39.386 -26.850 -13.965  0.00  0.00    -0.471 OA
ATOM     31  C   UNL     1      40.758 -26.463 -13.925  0.00  0.00    +0.252 C 
ENDBRANCH  29  30
ENDBRANCH  23  24
ENDBRANCH  22  23
ENDBRANCH  14  22
TORSDOF 7
ENDMDL
MODEL 7
REMARK VINA RESULT:     -10.2      2.937      9.177
REMARK  Name = 11998575
REMARK  7 active torsions:
REMARK  status: ('A' for Active; 'I' for Inactive)
REMARK    1  A    between atoms: C_6  and  C_18
REMARK    2  A    between atoms: C_14  and  O_22
REMARK    3  A    between atoms: C_15  and  O_16
REMARK    4  A    between atoms: C_18  and  O_20
REMARK    5  A    between atoms: O_22  and  C_23
REMARK    6  A    between atoms: C_23  and  C_24
REMARK    7  A    between atoms: C_29  and  O_30
REMARK                            x       y       z     vdW  Elec       q    Type
REMARK                         _______ _______ _______ _____ _____    ______ ____
ROOT
ATOM      1  O   UNL     1      32.944 -21.531 -19.210  0.00  0.00    -0.421 OA
ATOM      2  O   UNL     1      32.252 -22.889 -17.514  0.00  0.00    -0.244 OA
ATOM      3  C   UNL     1      35.577 -21.579 -18.178  0.00  0.00    +0.009 A 
ATOM      4  C   UNL     1      35.271 -20.811 -19.391  0.00  0.00    +0.038 A 
ATOM      5  C   UNL     1      34.549 -22.289 -17.534  0.00  0.00    +0.076 A 
ATOM      6  C   UNL     1      36.081 -23.085 -15.833  0.00  0.00    +0.004 C 
ATOM      7  C   UNL     1      33.960 -20.810 -19.873  0.00  0.00    +0.152 A 
ATOM      8  C   UNL     1      34.800 -23.037 -16.371  0.00  0.00    +0.004 C 
ATOM      9  C   UNL     1      36.864 -21.647 -17.609  0.00  0.00    +0.000 C 
ATOM     10  C   UNL     1      36.209 -20.063 -20.121  0.00  0.00    +0.043 C 
ATOM     11  C   UNL     1      37.112 -22.390 -16.451  0.00  0.00    -0.002 C 
ATOM     12  C   UNL     1      33.162 -22.277 -18.059  0.00  0.00    +0.346 A 
ATOM     13  C   UNL     1      33.571 -20.110 -21.018  0.00  0.00    +0.078 C 
ATOM     14  C   UNL     1      34.521 -19.378 -21.719  0.00  0.00    +0.176 C 
ATOM     15  C   UNL     1      35.838 -19.353 -21.272  0.00  0.00    +0.173 C 
ENDROOT
BRANCH  15  16
ATOM     16  O   UNL     1      36.782 -18.639 -21.948  0.00  0.00    -0.468 OA
ATOM     17  C   UNL     1      38.118 -18.703 -21.454  0.00  0.00    +0.253 C 
ENDBRANCH  15  16
BRANCH   6  18
ATOM     18  C   UNL     1      36.346 -23.876 -14.598  0.00  0.00    +0.133 C 
ATOM     19  C   UNL     1      35.063 -24.387 -13.934  0.00  0.00    +0.037 C 
BRANCH  18  20
ATOM     20  O   UNL     1      37.178 -25.002 -14.906  0.00  0.00    -0.380 OA
ATOM     21  H   UNL     1      36.963 -25.327 -15.794  0.00  0.00    +0.211 HD
ENDBRANCH  18  20
ENDBRANCH   6  18
BRANCH  14  22
ATOM     22  O   UNL     1      34.152 -18.691 -22.835  0.00  0.00    -0.467 OA
BRANCH  22  23
ATOM     23  C   UNL     1      35.155 -17.901 -23.472  0.00  0.00    +0.232 C 
BRANCH  23  24
ATOM     24  C   UNL     1      34.642 -16.501 -23.642  0.00  0.00    +0.021 C 
ATOM     25  C   UNL     1      33.908 -16.170 -24.775  0.00  0.00    +0.002 C 
ATOM     26  C   UNL     1      34.907 -15.547 -22.665  0.00  0.00    +0.002 C 
ATOM     27  C   UNL     1      33.430 -14.868 -24.933  0.00  0.00    +0.037 C 
ATOM     28  C   UNL     1      34.430 -14.246 -22.822  0.00  0.00    +0.037 C 
ATOM     29  C   UNL     1      33.692 -13.907 -23.956  0.00  0.00    +0.139 C 
BRANCH  29  30
ATOM     30  O   UNL     1      33.226 -12.637 -24.110  0.00  0.00    -0.471 OA
ATOM     31  C   UNL     1      34.125 -11.573 -23.803  0.00  0.00    +0.252 C 
ENDBRANCH  29  30
ENDBRANCH  23  24
ENDBRANCH  22  23
ENDBRANCH  14  22
TORSDOF 7
ENDMDL
MODEL 8
REMARK VINA RESULT:     -10.2      2.196      5.533
REMARK  Name = 11998575
REMARK  7 active torsions:
REMARK  status: ('A' for Active; 'I' for Inactive)
REMARK    1  A    between atoms: C_6  and  C_18
REMARK    2  A    between atoms: C_14  and  O_22
REMARK    3  A    between atoms: C_15  and  O_16
REMARK    4  A    between atoms: C_18  and  O_20
REMARK    5  A    between atoms: O_22  and  C_23
REMARK    6  A    between atoms: C_23  and  C_24
REMARK    7  A    between atoms: C_29  and  O_30
REMARK                            x       y       z     vdW  Elec       q    Type
REMARK                         _______ _______ _______ _____ _____    ______ ____
ROOT
ATOM      1  O   UNL     1      36.173 -22.217 -17.663  0.00  0.00    -0.421 OA
ATOM      2  O   UNL     1      37.490 -21.155 -19.192  0.00  0.00    -0.244 OA
ATOM      3  C   UNL     1      33.864 -21.357 -19.051  0.00  0.00    +0.009 A 
ATOM      4  C   UNL     1      33.737 -22.172 -17.836  0.00  0.00    +0.038 A 
ATOM      5  C   UNL     1      35.143 -21.007 -19.517  0.00  0.00    +0.076 A 
ATOM      6  C   UNL     1      34.197 -19.788 -21.384  0.00  0.00    +0.004 C 
ATOM      7  C   UNL     1      34.899 -22.579 -17.177  0.00  0.00    +0.152 A 
ATOM      8  C   UNL     1      35.307 -20.229 -20.674  0.00  0.00    +0.004 C 
ATOM      9  C   UNL     1      32.758 -20.895 -19.791  0.00  0.00    +0.000 C 
ATOM     10  C   UNL     1      32.518 -22.584 -17.273  0.00  0.00    +0.043 C 
ATOM     11  C   UNL     1      32.923 -20.120 -20.943  0.00  0.00    -0.002 C 
ATOM     12  C   UNL     1      36.366 -21.448 -18.803  0.00  0.00    +0.346 A 
ATOM     13  C   UNL     1      34.882 -23.355 -16.014  0.00  0.00    +0.078 C 
ATOM     14  C   UNL     1      33.661 -23.747 -15.480  0.00  0.00    +0.176 C 
ATOM     15  C   UNL     1      32.480 -23.362 -16.108  0.00  0.00    +0.173 C 
ENDROOT
BRANCH  15  16
ATOM     16  O   UNL     1      31.274 -23.738 -15.597  0.00  0.00    -0.468 OA
ATOM     17  C   UNL     1      30.153 -22.915 -15.912  0.00  0.00    +0.253 C 
ENDBRANCH  15  16
BRANCH   6  18
ATOM     18  C   UNL     1      34.371 -18.961 -22.612  0.00  0.00    +0.133 C 
ATOM     19  C   UNL     1      35.423 -17.859 -22.440  0.00  0.00    +0.037 C 
BRANCH  18  20
ATOM     20  O   UNL     1      34.760 -19.792 -23.712  0.00  0.00    -0.380 OA
ATOM     21  H   UNL     1      35.528 -20.327 -23.457  0.00  0.00    +0.211 HD
ENDBRANCH  18  20
ENDBRANCH   6  18
BRANCH  14  22
ATOM     22  O   UNL     1      33.633 -24.502 -14.347  0.00  0.00    -0.467 OA
BRANCH  22  23
ATOM     23  C   UNL     1      34.553 -24.155 -13.314  0.00  0.00    +0.232 C 
BRANCH  23  24
ATOM     24  C   UNL     1      35.844 -24.887 -13.543  0.00  0.00    +0.021 C 
ATOM     25  C   UNL     1      35.848 -26.056 -14.294  0.00  0.00    +0.002 C 
ATOM     26  C   UNL     1      37.023 -24.389 -12.998  0.00  0.00    +0.002 C 
ATOM     27  C   UNL     1      37.048 -26.737 -14.506  0.00  0.00    +0.037 C 
ATOM     28  C   UNL     1      38.222 -25.069 -13.210  0.00  0.00    +0.037 C 
ATOM     29  C   UNL     1      38.234 -26.242 -13.964  0.00  0.00    +0.139 C 
BRANCH  29  30
ATOM     30  O   UNL     1      39.405 -26.906 -14.171  0.00  0.00    -0.471 OA
ATOM     31  C   UNL     1      40.608 -26.146 -14.079  0.00  0.00    +0.252 C 
ENDBRANCH  29  30
ENDBRANCH  23  24
ENDBRANCH  22  23
ENDBRANCH  14  22
TORSDOF 7
ENDMDL
MODEL 9
REMARK VINA RESULT:     -10.0      8.013     13.998
REMARK  Name = 11998575
REMARK  7 active torsions:
REMARK  status: ('A' for Active; 'I' for Inactive)
REMARK    1  A    between atoms: C_6  and  C_18
REMARK    2  A    between atoms: C_14  and  O_22
REMARK    3  A    between atoms: C_15  and  O_16
REMARK    4  A    between atoms: C_18  and  O_20
REMARK    5  A    between atoms: O_22  and  C_23
REMARK    6  A    between atoms: C_23  and  C_24
REMARK    7  A    between atoms: C_29  and  O_30
REMARK                            x       y       z     vdW  Elec       q    Type
REMARK                         _______ _______ _______ _____ _____    ______ ____
ROOT
ATOM      1  O   UNL     1      33.247 -13.106 -24.220  0.00  0.00    -0.421 OA
ATOM      2  O   UNL     1      34.256 -14.918 -25.167  0.00  0.00    -0.244 OA
ATOM      3  C   UNL     1      33.782 -14.150 -21.647  0.00  0.00    +0.009 A 
ATOM      4  C   UNL     1      33.080 -12.869 -21.795  0.00  0.00    +0.038 A 
ATOM      5  C   UNL     1      34.185 -14.852 -22.796  0.00  0.00    +0.076 A 
ATOM      6  C   UNL     1      35.141 -16.626 -21.449  0.00  0.00    +0.004 C 
ATOM      7  C   UNL     1      32.833 -12.383 -23.081  0.00  0.00    +0.152 A 
ATOM      8  C   UNL     1      34.859 -16.080 -22.697  0.00  0.00    +0.004 C 
ATOM      9  C   UNL     1      34.081 -14.727 -20.398  0.00  0.00    +0.000 C 
ATOM     10  C   UNL     1      32.628 -12.076 -20.727  0.00  0.00    +0.043 C 
ATOM     11  C   UNL     1      34.752 -15.951 -20.300  0.00  0.00    -0.002 C 
ATOM     12  C   UNL     1      33.914 -14.322 -24.153  0.00  0.00    +0.346 A 
ATOM     13  C   UNL     1      32.172 -11.176 -23.325  0.00  0.00    +0.078 C 
ATOM     14  C   UNL     1      31.735 -10.414 -22.248  0.00  0.00    +0.176 C 
ATOM     15  C   UNL     1      31.963 -10.863 -20.951  0.00  0.00    +0.173 C 
ENDROOT
BRANCH  15  16
ATOM     16  O   UNL     1      31.541 -10.128 -19.883  0.00  0.00    -0.468 OA
ATOM     17  C   UNL     1      31.905 -10.599 -18.588  0.00  0.00    +0.253 C 
ENDBRANCH  15  16
BRANCH   6  18
ATOM     18  C   UNL     1      35.855 -17.931 -21.345  0.00  0.00    +0.133 C 
ATOM     19  C   UNL     1      34.909 -19.104 -21.067  0.00  0.00    +0.037 C 
BRANCH  18  20
ATOM     20  O   UNL     1      36.567 -18.199 -22.560  0.00  0.00    -0.380 OA
ATOM     21  H   UNL     1      36.497 -17.432 -23.150  0.00  0.00    +0.211 HD
ENDBRANCH  18  20
ENDBRANCH   6  18
BRANCH  14  22
ATOM     22  O   UNL     1      31.089  -9.238 -22.474  0.00  0.00    -0.467 OA
BRANCH  22  23
ATOM     23  C   UNL     1      31.621  -8.073 -21.843  0.00  0.00    +0.232 C 
BRANCH  23  24
ATOM     24  C   UNL     1      32.664  -7.467 -22.736  0.00  0.00    +0.021 C 
ATOM     25  C   UNL     1      33.991  -7.440 -22.324  0.00  0.00    +0.002 C 
ATOM     26  C   UNL     1      32.292  -6.935 -23.967  0.00  0.00    +0.002 C 
ATOM     27  C   UNL     1      34.961  -6.875 -23.154  0.00  0.00    +0.037 C 
ATOM     28  C   UNL     1      33.261  -6.370 -24.796  0.00  0.00    +0.037 C 
ATOM     29  C   UNL     1      34.595  -6.341 -24.390  0.00  0.00    +0.139 C 
BRANCH  29  30
ATOM     30  O   UNL     1      35.541  -5.790 -25.199  0.00  0.00    -0.471 OA
ATOM     31  C   UNL     1      35.235  -5.703 -26.590  0.00  0.00    +0.252 C 
ENDBRANCH  29  30
ENDBRANCH  23  24
ENDBRANCH  22  23
ENDBRANCH  14  22
TORSDOF 7
ENDMDL
