MODEL 1
REMARK VINA RESULT:     -11.7      0.000      0.000
REMARK  Name = 444746
REMARK  6 active torsions:
REMARK  status: ('A' for Active; 'I' for Inactive)
REMARK    1  A    between atoms: C_1  and  C_9
REMARK    2  A    between atoms: C_1  and  N_13
REMARK    3  A    between atoms: C_1  and  C_27
REMARK    4  A    between atoms: C_4  and  O_10
REMARK    5  A    between atoms: C_14  and  C_18
REMARK    6  A    between atoms: C_27  and  C_29
REMARK                            x       y       z     vdW  Elec       q    Type
REMARK                         _______ _______ _______ _____ _____    ______ ____
ROOT
ATOM      1  C   UNL     1      35.135 -22.668 -15.398  0.00  0.00    +0.153 C 
ENDROOT
BRANCH   1   9
ATOM      2  O   UNL     1      37.346 -23.207 -16.056  0.00  0.00    -0.273 OA
ATOM      3  N   UNL     1      36.811 -23.576 -13.826  0.00  0.00    -0.278 N 
ATOM      4  C   UNL     1      37.160 -25.419 -11.624  0.00  0.00    +0.114 C 
ATOM      5  C   UNL     1      38.114 -25.409 -12.821  0.00  0.00    +0.051 C 
ATOM      6  C   UNL     1      35.777 -24.912 -12.032  0.00  0.00    +0.051 C 
ATOM      7  C   UNL     1      38.159 -24.034 -13.478  0.00  0.00    +0.096 C 
ATOM      8  C   UNL     1      35.862 -23.546 -12.705  0.00  0.00    +0.096 C 
ATOM      9  C   UNL     1      36.531 -23.172 -15.131  0.00  0.00    +0.244 C 
BRANCH   4  10
ATOM     10  O   UNL     1      37.033 -26.742 -11.119  0.00  0.00    -0.384 OA
ATOM     11  H   UNL     1      37.516 -27.355 -11.696  0.00  0.00    +0.210 HD
ENDBRANCH   4  10
ENDBRANCH   1   9
BRANCH   1  13
ATOM     12  O   UNL     1      34.491 -23.438 -18.033  0.00  0.00    -0.269 OA
ATOM     13  N   UNL     1      35.289 -21.856 -16.569  0.00  0.00    -0.294 N 
ATOM     14  C   UNL     1      34.947 -22.308 -17.848  0.00  0.00    +0.260 C 
ATOM     15  H   UNL     1      35.650 -20.945 -16.471  0.00  0.00    +0.150 HD
BRANCH  14  18
ATOM     16 CL   UNL     1      34.885 -17.525 -23.840  0.00  0.00    -0.082 Cl
ATOM     17  N   UNL     1      36.292 -20.689 -19.135  0.00  0.00    -0.309 N 
ATOM     18  C   UNL     1      35.133 -21.348 -18.945  0.00  0.00    +0.102 C 
ATOM     19  C   UNL     1      34.223 -20.996 -19.879  0.00  0.00    +0.020 C 
ATOM     20  C   UNL     1      34.862 -20.042 -20.721  0.00  0.00    +0.016 C 
ATOM     21  C   UNL     1      36.158 -19.867 -20.232  0.00  0.00    +0.048 C 
ATOM     22  C   UNL     1      34.460 -19.307 -21.854  0.00  0.00    +0.013 C 
ATOM     23  C   UNL     1      37.077 -18.992 -20.822  0.00  0.00    +0.015 C 
ATOM     24  C   UNL     1      35.368 -18.427 -22.455  0.00  0.00    +0.058 C 
ATOM     25  C   UNL     1      36.655 -18.274 -21.945  0.00  0.00    +0.013 C 
ATOM     26  H   UNL     1      37.101 -20.780 -18.582  0.00  0.00    +0.152 HD
ENDBRANCH  14  18
ENDBRANCH   1  13
BRANCH   1  27
ATOM     27  C   UNL     1      34.182 -23.839 -15.599  0.00  0.00    +0.055 C 
BRANCH  27  29
ATOM     28  F   UNL     1      28.889 -22.525 -14.240  0.00  0.00    -0.204 F 
ATOM     29  C   UNL     1      32.762 -23.486 -15.234  0.00  0.00    -0.020 C 
ATOM     30  C   UNL     1      32.383 -23.482 -13.901  0.00  0.00    -0.002 C 
ATOM     31  C   UNL     1      31.859 -23.173 -16.239  0.00  0.00    -0.002 C 
ATOM     32  C   UNL     1      31.069 -23.157 -13.564  0.00  0.00    +0.029 C 
ATOM     33  C   UNL     1      30.545 -22.847 -15.902  0.00  0.00    +0.029 C 
ATOM     34  C   UNL     1      30.150 -22.840 -14.564  0.00  0.00    +0.140 C 
ENDBRANCH  27  29
ENDBRANCH   1  27
TORSDOF 6
ENDMDL
MODEL 2
REMARK VINA RESULT:     -11.5      2.882      4.799
REMARK  Name = 444746
REMARK  6 active torsions:
REMARK  status: ('A' for Active; 'I' for Inactive)
REMARK    1  A    between atoms: C_1  and  C_9
REMARK    2  A    between atoms: C_1  and  N_13
REMARK    3  A    between atoms: C_1  and  C_27
REMARK    4  A    between atoms: C_4  and  O_10
REMARK    5  A    between atoms: C_14  and  C_18
REMARK    6  A    between atoms: C_27  and  C_29
REMARK                            x       y       z     vdW  Elec       q    Type
REMARK                         _______ _______ _______ _____ _____    ______ ____
ROOT
ATOM      1  C   UNL     1      33.842 -23.407 -16.304  0.00  0.00    +0.153 C 
ENDROOT
BRANCH   1   9
ATOM      2  O   UNL     1      31.783 -22.408 -16.917  0.00  0.00    -0.273 OA
ATOM      3  N   UNL     1      31.674 -24.139 -15.373  0.00  0.00    -0.278 N 
ATOM      4  C   UNL     1      30.375 -25.006 -12.938  0.00  0.00    +0.114 C 
ATOM      5  C   UNL     1      29.760 -23.930 -13.835  0.00  0.00    +0.051 C 
ATOM      6  C   UNL     1      31.896 -25.026 -13.084  0.00  0.00    +0.051 C 
ATOM      7  C   UNL     1      30.212 -24.096 -15.283  0.00  0.00    +0.096 C 
ATOM      8  C   UNL     1      32.312 -25.172 -14.545  0.00  0.00    +0.096 C 
ATOM      9  C   UNL     1      32.342 -23.268 -16.232  0.00  0.00    +0.244 C 
BRANCH   4  10
ATOM     10  O   UNL     1      30.048 -24.744 -11.579  0.00  0.00    -0.384 OA
ATOM     11  H   UNL     1      29.085 -24.779 -11.466  0.00  0.00    +0.210 HD
ENDBRANCH   4  10
ENDBRANCH   1   9
BRANCH   1  13
ATOM     12  O   UNL     1      34.109 -23.768 -19.087  0.00  0.00    -0.269 OA
ATOM     13  N   UNL     1      34.228 -22.398 -17.246  0.00  0.00    -0.294 N 
ATOM     14  C   UNL     1      34.340 -22.652 -18.617  0.00  0.00    +0.260 C 
ATOM     15  H   UNL     1      34.422 -21.491 -16.916  0.00  0.00    +0.150 HD
BRANCH  14  18
ATOM     16 CL   UNL     1      35.238 -16.636 -23.284  0.00  0.00    -0.082 Cl
ATOM     17  N   UNL     1      35.979 -21.054 -19.534  0.00  0.00    -0.309 N 
ATOM     18  C   UNL     1      34.714 -21.508 -19.460  0.00  0.00    +0.102 C 
ATOM     19  C   UNL     1      33.895 -20.774 -20.244  0.00  0.00    +0.020 C 
ATOM     20  C   UNL     1      34.711 -19.783 -20.858  0.00  0.00    +0.016 C 
ATOM     21  C   UNL     1      36.014 -19.980 -20.396  0.00  0.00    +0.048 C 
ATOM     22  C   UNL     1      34.465 -18.733 -21.766  0.00  0.00    +0.013 C 
ATOM     23  C   UNL     1      37.088 -19.178 -20.797  0.00  0.00    +0.015 C 
ATOM     24  C   UNL     1      35.529 -17.921 -22.175  0.00  0.00    +0.058 C 
ATOM     25  C   UNL     1      36.819 -18.143 -21.698  0.00  0.00    +0.013 C 
ATOM     26  H   UNL     1      36.752 -21.427 -19.053  0.00  0.00    +0.152 HD
ENDBRANCH  14  18
ENDBRANCH   1  13
BRANCH   1  27
ATOM     27  C   UNL     1      34.455 -23.209 -14.924  0.00  0.00    +0.055 C 
BRANCH  27  29
ATOM     28  F   UNL     1      39.292 -26.011 -14.332  0.00  0.00    -0.204 F 
ATOM     29  C   UNL     1      35.753 -23.961 -14.765  0.00  0.00    -0.020 C 
ATOM     30  C   UNL     1      35.726 -25.334 -14.580  0.00  0.00    -0.002 C 
ATOM     31  C   UNL     1      36.952 -23.265 -14.807  0.00  0.00    -0.002 C 
ATOM     32  C   UNL     1      36.926 -26.030 -14.432  0.00  0.00    +0.029 C 
ATOM     33  C   UNL     1      38.153 -23.960 -14.660  0.00  0.00    +0.029 C 
ATOM     34  C   UNL     1      38.139 -25.343 -14.472  0.00  0.00    +0.140 C 
ENDBRANCH  27  29
ENDBRANCH   1  27
TORSDOF 6
ENDMDL
MODEL 3
REMARK VINA RESULT:     -11.2     11.665     16.468
REMARK  Name = 444746
REMARK  6 active torsions:
REMARK  status: ('A' for Active; 'I' for Inactive)
REMARK    1  A    between atoms: C_1  and  C_9
REMARK    2  A    between atoms: C_1  and  N_13
REMARK    3  A    between atoms: C_1  and  C_27
REMARK    4  A    between atoms: C_4  and  O_10
REMARK    5  A    between atoms: C_14  and  C_18
REMARK    6  A    between atoms: C_27  and  C_29
REMARK                            x       y       z     vdW  Elec       q    Type
REMARK                         _______ _______ _______ _____ _____    ______ ____
ROOT
ATOM      1  C   UNL     1      33.092  -8.857 -23.007  0.00  0.00    +0.153 C 
ENDROOT
BRANCH   1   9
ATOM      2  O   UNL     1      35.388  -8.307 -23.211  0.00  0.00    -0.273 OA
ATOM      3  N   UNL     1      33.929  -7.203 -24.641  0.00  0.00    -0.278 N 
ATOM      4  C   UNL     1      33.345  -4.638 -25.843  0.00  0.00    +0.114 C 
ATOM      5  C   UNL     1      34.732  -4.966 -25.287  0.00  0.00    +0.051 C 
ATOM      6  C   UNL     1      32.268  -5.445 -25.118  0.00  0.00    +0.051 C 
ATOM      7  C   UNL     1      34.998  -6.467 -25.321  0.00  0.00    +0.096 C 
ATOM      8  C   UNL     1      32.577  -6.939 -25.153  0.00  0.00    +0.096 C 
ATOM      9  C   UNL     1      34.244  -8.103 -23.624  0.00  0.00    +0.244 C 
BRANCH   4  10
ATOM     10  O   UNL     1      33.072  -3.253 -25.671  0.00  0.00    -0.384 OA
ATOM     11  H   UNL     1      32.143  -3.076 -25.889  0.00  0.00    +0.210 HD
ENDBRANCH   4  10
ENDBRANCH   1   9
BRANCH   1  13
ATOM     12  O   UNL     1      31.461 -11.106 -22.530  0.00  0.00    -0.269 OA
ATOM     13  N   UNL     1      33.512 -10.226 -23.078  0.00  0.00    -0.294 N 
ATOM     14  C   UNL     1      32.641 -11.293 -22.827  0.00  0.00    +0.260 C 
ATOM     15  H   UNL     1      34.447 -10.424 -23.312  0.00  0.00    +0.150 HD
BRANCH  14  18
ATOM     16 CL   UNL     1      35.946 -18.206 -22.545  0.00  0.00    -0.082 Cl
ATOM     17  N   UNL     1      33.101 -13.349 -24.110  0.00  0.00    -0.309 N 
ATOM     18  C   UNL     1      33.211 -12.640 -22.971  0.00  0.00    +0.102 C 
ATOM     19  C   UNL     1      33.892 -13.338 -22.036  0.00  0.00    +0.020 C 
ATOM     20  C   UNL     1      34.237 -14.581 -22.637  0.00  0.00    +0.016 C 
ATOM     21  C   UNL     1      33.728 -14.563 -23.938  0.00  0.00    +0.048 C 
ATOM     22  C   UNL     1      34.934 -15.725 -22.198  0.00  0.00    +0.013 C 
ATOM     23  C   UNL     1      33.883 -15.634 -24.825  0.00  0.00    +0.015 C 
ATOM     24  C   UNL     1      35.095 -16.805 -23.073  0.00  0.00    +0.058 C 
ATOM     25  C   UNL     1      34.578 -16.757 -24.366  0.00  0.00    +0.013 C 
ATOM     26  H   UNL     1      32.648 -13.050 -24.931  0.00  0.00    +0.152 HD
ENDBRANCH  14  18
ENDBRANCH   1  13
BRANCH   1  27
ATOM     27  C   UNL     1      32.850  -8.374 -21.583  0.00  0.00    +0.055 C 
BRANCH  27  29
ATOM     28  F   UNL     1      30.294  -3.370 -21.450  0.00  0.00    -0.204 F 
ATOM     29  C   UNL     1      32.164  -7.031 -21.548  0.00  0.00    -0.020 C 
ATOM     30  C   UNL     1      30.871  -6.915 -22.031  0.00  0.00    -0.002 C 
ATOM     31  C   UNL     1      32.840  -5.936 -21.032  0.00  0.00    -0.002 C 
ATOM     32  C   UNL     1      30.237  -5.673 -22.000  0.00  0.00    +0.029 C 
ATOM     33  C   UNL     1      32.206  -4.693 -20.999  0.00  0.00    +0.029 C 
ATOM     34  C   UNL     1      30.904  -4.562 -21.483  0.00  0.00    +0.140 C 
ENDBRANCH  27  29
ENDBRANCH   1  27
TORSDOF 6
ENDMDL
MODEL 4
REMARK VINA RESULT:     -11.1      1.212      1.278
REMARK  Name = 444746
REMARK  6 active torsions:
REMARK  status: ('A' for Active; 'I' for Inactive)
REMARK    1  A    between atoms: C_1  and  C_9
REMARK    2  A    between atoms: C_1  and  N_13
REMARK    3  A    between atoms: C_1  and  C_27
REMARK    4  A    between atoms: C_4  and  O_10
REMARK    5  A    between atoms: C_14  and  C_18
REMARK    6  A    between atoms: C_27  and  C_29
REMARK                            x       y       z     vdW  Elec       q    Type
REMARK                         _______ _______ _______ _____ _____    ______ ____
ROOT
ATOM      1  C   UNL     1      34.157 -23.690 -15.241  0.00  0.00    +0.153 C 
ENDROOT
BRANCH   1   9
ATOM      2  O   UNL     1      35.453 -25.593 -15.803  0.00  0.00    -0.273 OA
ATOM      3  N   UNL     1      36.341 -24.175 -14.192  0.00  0.00    -0.278 N 
ATOM      4  C   UNL     1      37.763 -24.116 -11.674  0.00  0.00    +0.114 C 
ATOM      5  C   UNL     1      37.795 -25.346 -12.584  0.00  0.00    +0.051 C 
ATOM      6  C   UNL     1      36.474 -23.322 -11.883  0.00  0.00    +0.051 C 
ATOM      7  C   UNL     1      37.571 -24.957 -14.042  0.00  0.00    +0.096 C 
ATOM      8  C   UNL     1      36.272 -22.970 -13.354  0.00  0.00    +0.096 C 
ATOM      9  C   UNL     1      35.371 -24.575 -15.111  0.00  0.00    +0.244 C 
BRANCH   4  10
ATOM     10  O   UNL     1      37.836 -24.522 -10.313  0.00  0.00    -0.384 OA
ATOM     11  H   UNL     1      38.672 -24.991 -10.160  0.00  0.00    +0.210 HD
ENDBRANCH   4  10
ENDBRANCH   1   9
BRANCH   1  13
ATOM     12  O   UNL     1      33.749 -24.070 -18.004  0.00  0.00    -0.269 OA
ATOM     13  N   UNL     1      34.523 -22.769 -16.276  0.00  0.00    -0.294 N 
ATOM     14  C   UNL     1      34.288 -23.027 -17.631  0.00  0.00    +0.260 C 
ATOM     15  H   UNL     1      34.958 -21.921 -16.025  0.00  0.00    +0.150 HD
BRANCH  14  18
ATOM     16 CL   UNL     1      35.348 -17.511 -22.850  0.00  0.00    -0.082 Cl
ATOM     17  N   UNL     1      35.957 -21.518 -18.642  0.00  0.00    -0.309 N 
ATOM     18  C   UNL     1      34.691 -21.972 -18.571  0.00  0.00    +0.102 C 
ATOM     19  C   UNL     1      33.901 -21.328 -19.457  0.00  0.00    +0.020 C 
ATOM     20  C   UNL     1      34.737 -20.399 -20.138  0.00  0.00    +0.016 C 
ATOM     21  C   UNL     1      36.021 -20.538 -19.607  0.00  0.00    +0.048 C 
ATOM     22  C   UNL     1      34.524 -19.449 -21.157  0.00  0.00    +0.013 C 
ATOM     23  C   UNL     1      37.107 -19.773 -20.046  0.00  0.00    +0.015 C 
ATOM     24  C   UNL     1      35.600 -18.675 -21.605  0.00  0.00    +0.058 C 
ATOM     25  C   UNL     1      36.870 -18.837 -21.058  0.00  0.00    +0.013 C 
ATOM     26  H   UNL     1      36.712 -21.834 -18.095  0.00  0.00    +0.152 HD
ENDBRANCH  14  18
ENDBRANCH   1  13
BRANCH   1  27
ATOM     27  C   UNL     1      32.931 -24.526 -15.585  0.00  0.00    +0.055 C 
BRANCH  27  29
ATOM     28  F   UNL     1      28.136 -21.864 -14.354  0.00  0.00    -0.204 F 
ATOM     29  C   UNL     1      31.645 -23.812 -15.254  0.00  0.00    -0.020 C 
ATOM     30  C   UNL     1      31.237 -23.721 -13.933  0.00  0.00    -0.002 C 
ATOM     31  C   UNL     1      30.892 -23.258 -16.279  0.00  0.00    -0.002 C 
ATOM     32  C   UNL     1      30.046 -23.062 -13.628  0.00  0.00    +0.029 C 
ATOM     33  C   UNL     1      29.701 -22.598 -15.974  0.00  0.00    +0.029 C 
ATOM     34  C   UNL     1      29.278 -22.500 -14.648  0.00  0.00    +0.140 C 
ENDBRANCH  27  29
ENDBRANCH   1  27
TORSDOF 6
ENDMDL
MODEL 5
REMARK VINA RESULT:     -11.1      3.094      5.265
REMARK  Name = 444746
REMARK  6 active torsions:
REMARK  status: ('A' for Active; 'I' for Inactive)
REMARK    1  A    between atoms: C_1  and  C_9
REMARK    2  A    between atoms: C_1  and  N_13
REMARK    3  A    between atoms: C_1  and  C_27
REMARK    4  A    between atoms: C_4  and  O_10
REMARK    5  A    between atoms: C_14  and  C_18
REMARK    6  A    between atoms: C_27  and  C_29
REMARK                            x       y       z     vdW  Elec       q    Type
REMARK                         _______ _______ _______ _____ _____    ______ ____
ROOT
ATOM      1  C   UNL     1      33.602 -23.440 -14.888  0.00  0.00    +0.153 C 
ENDROOT
BRANCH   1   9
ATOM      2  O   UNL     1      32.283 -21.757 -13.865  0.00  0.00    -0.273 OA
ATOM      3  N   UNL     1      31.132 -23.507 -14.870  0.00  0.00    -0.278 N 
ATOM      4  C   UNL     1      28.867 -25.280 -14.564  0.00  0.00    +0.114 C 
ATOM      5  C   UNL     1      28.954 -23.953 -13.807  0.00  0.00    +0.051 C 
ATOM      6  C   UNL     1      30.263 -25.814 -14.881  0.00  0.00    +0.051 C 
ATOM      7  C   UNL     1      29.814 -22.944 -14.562  0.00  0.00    +0.096 C 
ATOM      8  C   UNL     1      31.102 -24.772 -15.615  0.00  0.00    +0.096 C 
ATOM      9  C   UNL     1      32.285 -22.819 -14.493  0.00  0.00    +0.244 C 
BRANCH   4  10
ATOM     10  O   UNL     1      28.177 -26.240 -13.774  0.00  0.00    -0.384 OA
ATOM     11  H   UNL     1      28.342 -27.128 -14.128  0.00  0.00    +0.210 HD
ENDBRANCH   4  10
ENDBRANCH   1   9
BRANCH   1  13
ATOM     12  O   UNL     1      33.731 -24.189 -17.603  0.00  0.00    -0.269 OA
ATOM     13  N   UNL     1      34.054 -22.609 -15.966  0.00  0.00    -0.294 N 
ATOM     14  C   UNL     1      34.090 -23.052 -17.293  0.00  0.00    +0.260 C 
ATOM     15  H   UNL     1      34.351 -21.692 -15.765  0.00  0.00    +0.150 HD
BRANCH  14  18
ATOM     16 CL   UNL     1      35.449 -17.947 -22.849  0.00  0.00    -0.082 Cl
ATOM     17  N   UNL     1      35.822 -21.644 -18.341  0.00  0.00    -0.309 N 
ATOM     18  C   UNL     1      34.547 -22.074 -18.289  0.00  0.00    +0.102 C 
ATOM     19  C   UNL     1      33.804 -21.485 -19.251  0.00  0.00    +0.020 C 
ATOM     20  C   UNL     1      34.682 -20.620 -19.962  0.00  0.00    +0.016 C 
ATOM     21  C   UNL     1      35.942 -20.738 -19.372  0.00  0.00    +0.048 C 
ATOM     22  C   UNL     1      34.525 -19.744 -21.055  0.00  0.00    +0.013 C 
ATOM     23  C   UNL     1      37.057 -20.022 -19.820  0.00  0.00    +0.015 C 
ATOM     24  C   UNL     1      35.632 -19.020 -21.514  0.00  0.00    +0.058 C 
ATOM     25  C   UNL     1      36.877 -19.159 -20.905  0.00  0.00    +0.013 C 
ATOM     26  H   UNL     1      36.550 -21.931 -17.743  0.00  0.00    +0.152 HD
ENDBRANCH  14  18
ENDBRANCH   1  13
BRANCH   1  27
ATOM     27  C   UNL     1      34.553 -23.456 -13.699  0.00  0.00    +0.055 C 
BRANCH  27  29
ATOM     28  F   UNL     1      39.169 -26.497 -14.723  0.00  0.00    -0.204 F 
ATOM     29  C   UNL     1      35.792 -24.272 -13.974  0.00  0.00    -0.020 C 
ATOM     30  C   UNL     1      37.037 -23.733 -13.695  0.00  0.00    -0.002 C 
ATOM     31  C   UNL     1      35.663 -25.548 -14.502  0.00  0.00    -0.002 C 
ATOM     32  C   UNL     1      38.183 -24.486 -13.950  0.00  0.00    +0.029 C 
ATOM     33  C   UNL     1      36.808 -26.303 -14.756  0.00  0.00    +0.029 C 
ATOM     34  C   UNL     1      38.068 -25.771 -14.480  0.00  0.00    +0.140 C 
ENDBRANCH  27  29
ENDBRANCH   1  27
TORSDOF 6
ENDMDL
MODEL 6
REMARK VINA RESULT:     -10.4     11.888     16.587
REMARK  Name = 444746
REMARK  6 active torsions:
REMARK  status: ('A' for Active; 'I' for Inactive)
REMARK    1  A    between atoms: C_1  and  C_9
REMARK    2  A    between atoms: C_1  and  N_13
REMARK    3  A    between atoms: C_1  and  C_27
REMARK    4  A    between atoms: C_4  and  O_10
REMARK    5  A    between atoms: C_14  and  C_18
REMARK    6  A    between atoms: C_27  and  C_29
REMARK                            x       y       z     vdW  Elec       q    Type
REMARK                         _______ _______ _______ _____ _____    ______ ____
ROOT
ATOM      1  C   UNL     1      32.546  -8.640 -22.354  0.00  0.00    +0.153 C 
ENDROOT
BRANCH   1   9
ATOM      2  O   UNL     1      34.842  -8.069 -22.486  0.00  0.00    -0.273 OA
ATOM      3  N   UNL     1      33.470  -7.238 -24.167  0.00  0.00    -0.278 N 
ATOM      4  C   UNL     1      32.934  -4.906 -25.792  0.00  0.00    +0.114 C 
ATOM      5  C   UNL     1      34.284  -5.108 -25.099  0.00  0.00    +0.051 C 
ATOM      6  C   UNL     1      31.821  -5.619 -25.024  0.00  0.00    +0.051 C 
ATOM      7  C   UNL     1      34.574  -6.590 -24.880  0.00  0.00    +0.096 C 
ATOM      8  C   UNL     1      32.154  -7.092 -24.804  0.00  0.00    +0.096 C 
ATOM      9  C   UNL     1      33.726  -7.961 -23.002  0.00  0.00    +0.244 C 
BRANCH   4  10
ATOM     10  O   UNL     1      32.630  -3.519 -25.858  0.00  0.00    -0.384 OA
ATOM     11  H   UNL     1      31.806  -3.392 -26.355  0.00  0.00    +0.210 HD
ENDBRANCH   4  10
ENDBRANCH   1   9
BRANCH   1  13
ATOM     12  O   UNL     1      32.553 -10.641 -24.340  0.00  0.00    -0.269 OA
ATOM     13  N   UNL     1      32.990  -9.991 -22.179  0.00  0.00    -0.294 N 
ATOM     14  C   UNL     1      32.963 -10.932 -23.215  0.00  0.00    +0.260 C 
ATOM     15  H   UNL     1      33.326 -10.270 -21.297  0.00  0.00    +0.150 HD
BRANCH  14  18
ATOM     16 CL   UNL     1      35.788 -18.033 -22.595  0.00  0.00    -0.082 Cl
ATOM     17  N   UNL     1      33.591 -12.708 -21.622  0.00  0.00    -0.309 N 
ATOM     18  C   UNL     1      33.482 -12.267 -22.890  0.00  0.00    +0.102 C 
ATOM     19  C   UNL     1      33.908 -13.208 -23.761  0.00  0.00    +0.020 C 
ATOM     20  C   UNL     1      34.315 -14.325 -22.978  0.00  0.00    +0.016 C 
ATOM     21  C   UNL     1      34.106 -13.985 -21.640  0.00  0.00    +0.048 C 
ATOM     22  C   UNL     1      34.843 -15.596 -23.280  0.00  0.00    +0.013 C 
ATOM     23  C   UNL     1      34.398 -14.855 -20.584  0.00  0.00    +0.015 C 
ATOM     24  C   UNL     1      35.142 -16.477 -22.234  0.00  0.00    +0.058 C 
ATOM     25  C   UNL     1      34.922 -16.110 -20.909  0.00  0.00    +0.013 C 
ATOM     26  H   UNL     1      33.343 -12.201 -20.815  0.00  0.00    +0.152 HD
ENDBRANCH  14  18
ENDBRANCH   1  13
BRANCH   1  27
ATOM     27  C   UNL     1      32.195  -7.947 -21.044  0.00  0.00    +0.055 C 
BRANCH  27  29
ATOM     28  F   UNL     1      30.455  -2.662 -21.845  0.00  0.00    -0.204 F 
ATOM     29  C   UNL     1      31.727  -6.529 -21.259  0.00  0.00    -0.020 C 
ATOM     30  C   UNL     1      30.421  -6.296 -21.658  0.00  0.00    -0.002 C 
ATOM     31  C   UNL     1      32.614  -5.482 -21.054  0.00  0.00    -0.002 C 
ATOM     32  C   UNL     1      29.989  -4.985 -21.858  0.00  0.00    +0.029 C 
ATOM     33  C   UNL     1      32.182  -4.170 -21.252  0.00  0.00    +0.029 C 
ATOM     34  C   UNL     1      30.870  -3.922 -21.655  0.00  0.00    +0.140 C 
ENDBRANCH  27  29
ENDBRANCH   1  27
TORSDOF 6
ENDMDL
MODEL 7
REMARK VINA RESULT:     -10.2      9.572     14.216
REMARK  Name = 444746
REMARK  6 active torsions:
REMARK  status: ('A' for Active; 'I' for Inactive)
REMARK    1  A    between atoms: C_1  and  C_9
REMARK    2  A    between atoms: C_1  and  N_13
REMARK    3  A    between atoms: C_1  and  C_27
REMARK    4  A    between atoms: C_4  and  O_10
REMARK    5  A    between atoms: C_14  and  C_18
REMARK    6  A    between atoms: C_27  and  C_29
REMARK                            x       y       z     vdW  Elec       q    Type
REMARK                         _______ _______ _______ _____ _____    ______ ____
ROOT
ATOM      1  C   UNL     1      32.326 -10.808 -23.543  0.00  0.00    +0.153 C 
ENDROOT
BRANCH   1   9
ATOM      2  O   UNL     1      34.509 -10.228 -22.826  0.00  0.00    -0.273 OA
ATOM      3  N   UNL     1      33.244  -8.525 -23.771  0.00  0.00    -0.278 N 
ATOM      4  C   UNL     1      32.565  -5.724 -23.532  0.00  0.00    +0.114 C 
ATOM      5  C   UNL     1      33.835  -6.298 -22.901  0.00  0.00    +0.051 C 
ATOM      6  C   UNL     1      31.487  -6.801 -23.651  0.00  0.00    +0.051 C 
ATOM      7  C   UNL     1      34.315  -7.533 -23.656  0.00  0.00    +0.096 C 
ATOM      8  C   UNL     1      32.008  -8.028 -24.392  0.00  0.00    +0.096 C 
ATOM      9  C   UNL     1      33.462  -9.835 -23.346  0.00  0.00    +0.244 C 
BRANCH   4  10
ATOM     10  O   UNL     1      32.065  -4.662 -22.729  0.00  0.00    -0.384 OA
ATOM     11  H   UNL     1      32.691  -3.920 -22.748  0.00  0.00    +0.210 HD
ENDBRANCH   4  10
ENDBRANCH   1   9
BRANCH   1  13
ATOM     12  O   UNL     1      33.054 -12.882 -25.309  0.00  0.00    -0.269 OA
ATOM     13  N   UNL     1      32.896 -12.069 -23.166  0.00  0.00    -0.294 N 
ATOM     14  C   UNL     1      33.232 -13.053 -24.102  0.00  0.00    +0.260 C 
ATOM     15  H   UNL     1      33.056 -12.250 -22.211  0.00  0.00    +0.150 HD
BRANCH  14  18
ATOM     16 CL   UNL     1      36.504 -18.893 -20.364  0.00  0.00    -0.082 Cl
ATOM     17  N   UNL     1      33.966 -15.399 -24.299  0.00  0.00    -0.309 N 
ATOM     18  C   UNL     1      33.836 -14.279 -23.564  0.00  0.00    +0.102 C 
ATOM     19  C   UNL     1      34.326 -14.464 -22.319  0.00  0.00    +0.020 C 
ATOM     20  C   UNL     1      34.800 -15.805 -22.270  0.00  0.00    +0.016 C 
ATOM     21  C   UNL     1      34.562 -16.370 -23.525  0.00  0.00    +0.048 C 
ATOM     22  C   UNL     1      35.410 -16.596 -21.276  0.00  0.00    +0.013 C 
ATOM     23  C   UNL     1      34.905 -17.690 -23.838  0.00  0.00    +0.015 C 
ATOM     24  C   UNL     1      35.758 -17.919 -21.573  0.00  0.00    +0.058 C 
ATOM     25  C   UNL     1      35.509 -18.454 -22.835  0.00  0.00    +0.013 C 
ATOM     26  H   UNL     1      33.682 -15.507 -25.236  0.00  0.00    +0.152 HD
ENDBRANCH  14  18
ENDBRANCH   1  13
BRANCH   1  27
ATOM     27  C   UNL     1      31.134 -10.405 -22.686  0.00  0.00    +0.055 C 
BRANCH  27  29
ATOM     28  F   UNL     1      32.424 -10.199 -17.219  0.00  0.00    -0.204 F 
ATOM     29  C   UNL     1      31.480 -10.350 -21.219  0.00  0.00    -0.020 C 
ATOM     30  C   UNL     1      31.643 -11.531 -20.514  0.00  0.00    -0.002 C 
ATOM     31  C   UNL     1      31.629  -9.117 -20.601  0.00  0.00    -0.002 C 
ATOM     32  C   UNL     1      31.962 -11.481 -19.157  0.00  0.00    +0.029 C 
ATOM     33  C   UNL     1      31.950  -9.066 -19.244  0.00  0.00    +0.029 C 
ATOM     34  C   UNL     1      32.115 -10.248 -18.522  0.00  0.00    +0.140 C 
ENDBRANCH  27  29
ENDBRANCH   1  27
TORSDOF 6
ENDMDL
MODEL 8
REMARK VINA RESULT:     -10.2      3.055      5.854
REMARK  Name = 444746
REMARK  6 active torsions:
REMARK  status: ('A' for Active; 'I' for Inactive)
REMARK    1  A    between atoms: C_1  and  C_9
REMARK    2  A    between atoms: C_1  and  N_13
REMARK    3  A    between atoms: C_1  and  C_27
REMARK    4  A    between atoms: C_4  and  O_10
REMARK    5  A    between atoms: C_14  and  C_18
REMARK    6  A    between atoms: C_27  and  C_29
REMARK                            x       y       z     vdW  Elec       q    Type
REMARK                         _______ _______ _______ _____ _____    ______ ____
ROOT
ATOM      1  C   UNL     1      32.996 -23.859 -14.186  0.00  0.00    +0.153 C 
ENDROOT
BRANCH   1   9
ATOM      2  O   UNL     1      31.522 -23.070 -12.506  0.00  0.00    -0.273 OA
ATOM      3  N   UNL     1      30.788 -22.877 -14.702  0.00  0.00    -0.278 N 
ATOM      4  C   UNL     1      28.474 -23.156 -16.414  0.00  0.00    +0.114 C 
ATOM      5  C   UNL     1      28.335 -22.970 -14.902  0.00  0.00    +0.051 C 
ATOM      6  C   UNL     1      29.807 -23.821 -16.756  0.00  0.00    +0.051 C 
ATOM      7  C   UNL     1      29.533 -22.221 -14.326  0.00  0.00    +0.096 C 
ATOM      8  C   UNL     1      30.980 -23.059 -16.147  0.00  0.00    +0.096 C 
ATOM      9  C   UNL     1      31.707 -23.233 -13.715  0.00  0.00    +0.244 C 
BRANCH   4  10
ATOM     10  O   UNL     1      27.416 -23.973 -16.898  0.00  0.00    -0.384 OA
ATOM     11  H   UNL     1      27.143 -24.595 -16.204  0.00  0.00    +0.210 HD
ENDBRANCH   4  10
ENDBRANCH   1   9
BRANCH   1  13
ATOM     12  O   UNL     1      34.050 -24.803 -16.624  0.00  0.00    -0.269 OA
ATOM     13  N   UNL     1      33.373 -23.047 -15.306  0.00  0.00    -0.294 N 
ATOM     14  C   UNL     1      33.891 -23.589 -16.487  0.00  0.00    +0.260 C 
ATOM     15  H   UNL     1      33.264 -22.071 -15.242  0.00  0.00    +0.150 HD
BRANCH  14  18
ATOM     16 CL   UNL     1      36.545 -18.681 -21.746  0.00  0.00    -0.082 Cl
ATOM     17  N   UNL     1      33.252 -22.128 -18.369  0.00  0.00    -0.309 N 
ATOM     18  C   UNL     1      34.201 -22.632 -17.557  0.00  0.00    +0.102 C 
ATOM     19  C   UNL     1      35.416 -22.136 -17.877  0.00  0.00    +0.020 C 
ATOM     20  C   UNL     1      35.213 -21.253 -18.975  0.00  0.00    +0.016 C 
ATOM     21  C   UNL     1      33.846 -21.266 -19.264  0.00  0.00    +0.048 C 
ATOM     22  C   UNL     1      36.062 -20.441 -19.753  0.00  0.00    +0.013 C 
ATOM     23  C   UNL     1      33.284 -20.506 -20.295  0.00  0.00    +0.015 C 
ATOM     24  C   UNL     1      35.514 -19.676 -20.789  0.00  0.00    +0.058 C 
ATOM     25  C   UNL     1      34.147 -19.709 -21.053  0.00  0.00    +0.013 C 
ATOM     26  H   UNL     1      32.291 -22.341 -18.329  0.00  0.00    +0.152 HD
ENDBRANCH  14  18
ENDBRANCH   1  13
BRANCH   1  27
ATOM     27  C   UNL     1      34.025 -23.852 -13.063  0.00  0.00    +0.055 C 
BRANCH  27  29
ATOM     28  F   UNL     1      39.242 -24.728 -14.961  0.00  0.00    -0.204 F 
ATOM     29  C   UNL     1      35.425 -24.087 -13.572  0.00  0.00    -0.020 C 
ATOM     30  C   UNL     1      35.831 -25.377 -13.872  0.00  0.00    -0.002 C 
ATOM     31  C   UNL     1      36.281 -23.007 -13.732  0.00  0.00    -0.002 C 
ATOM     32  C   UNL     1      37.127 -25.595 -14.342  0.00  0.00    +0.029 C 
ATOM     33  C   UNL     1      37.576 -23.225 -14.203  0.00  0.00    +0.029 C 
ATOM     34  C   UNL     1      37.999 -24.519 -14.507  0.00  0.00    +0.140 C 
ENDBRANCH  27  29
ENDBRANCH   1  27
TORSDOF 6
ENDMDL
MODEL 9
REMARK VINA RESULT:     -10.0     10.772     15.479
REMARK  Name = 444746
REMARK  6 active torsions:
REMARK  status: ('A' for Active; 'I' for Inactive)
REMARK    1  A    between atoms: C_1  and  C_9
REMARK    2  A    between atoms: C_1  and  N_13
REMARK    3  A    between atoms: C_1  and  C_27
REMARK    4  A    between atoms: C_4  and  O_10
REMARK    5  A    between atoms: C_14  and  C_18
REMARK    6  A    between atoms: C_27  and  C_29
REMARK                            x       y       z     vdW  Elec       q    Type
REMARK                         _______ _______ _______ _____ _____    ______ ____
ROOT
ATOM      1  C   UNL     1      32.487  -8.707 -23.132  0.00  0.00    +0.153 C 
ENDROOT
BRANCH   1   9
ATOM      2  O   UNL     1      34.800  -8.232 -22.938  0.00  0.00    -0.273 OA
ATOM      3  N   UNL     1      33.650  -7.107 -24.613  0.00  0.00    -0.278 N 
ATOM      4  C   UNL     1      33.371  -4.545 -25.926  0.00  0.00    +0.114 C 
ATOM      5  C   UNL     1      34.628  -4.907 -25.134  0.00  0.00    +0.051 C 
ATOM      6  C   UNL     1      32.158  -5.306 -25.392  0.00  0.00    +0.051 C 
ATOM      7  C   UNL     1      34.845  -6.416 -25.104  0.00  0.00    +0.096 C 
ATOM      8  C   UNL     1      32.417  -6.809 -25.356  0.00  0.00    +0.096 C 
ATOM      9  C   UNL     1      33.753  -7.999 -23.547  0.00  0.00    +0.244 C 
BRANCH   4  10
ATOM     10  O   UNL     1      33.119  -3.150 -25.820  0.00  0.00    -0.384 OA
ATOM     11  H   UNL     1      33.731  -2.759 -25.176  0.00  0.00    +0.210 HD
ENDBRANCH   4  10
ENDBRANCH   1   9
BRANCH   1  13
ATOM     12  O   UNL     1      32.667 -10.942 -24.842  0.00  0.00    -0.269 OA
ATOM     13  N   UNL     1      32.940 -10.014 -22.757  0.00  0.00    -0.294 N 
ATOM     14  C   UNL     1      33.002 -11.078 -23.664  0.00  0.00    +0.260 C 
ATOM     15  H   UNL     1      33.219 -10.170 -21.826  0.00  0.00    +0.150 HD
BRANCH  14  18
ATOM     16 CL   UNL     1      35.928 -17.955 -21.951  0.00  0.00    -0.082 Cl
ATOM     17  N   UNL     1      33.510 -12.638 -21.822  0.00  0.00    -0.309 N 
ATOM     18  C   UNL     1      33.519 -12.348 -23.137  0.00  0.00    +0.102 C 
ATOM     19  C   UNL     1      34.054 -13.365 -23.848  0.00  0.00    +0.020 C 
ATOM     20  C   UNL     1      34.408 -14.370 -22.904  0.00  0.00    +0.016 C 
ATOM     21  C   UNL     1      34.056 -13.889 -21.641  0.00  0.00    +0.048 C 
ATOM     22  C   UNL     1      34.995 -15.647 -23.004  0.00  0.00    +0.013 C 
ATOM     23  C   UNL     1      34.263 -14.623 -20.468  0.00  0.00    +0.015 C 
ATOM     24  C   UNL     1      35.210 -16.393 -21.839  0.00  0.00    +0.058 C 
ATOM     25  C   UNL     1      34.848 -15.887 -20.593  0.00  0.00    +0.013 C 
ATOM     26  H   UNL     1      33.169 -12.052 -21.108  0.00  0.00    +0.152 HD
ENDBRANCH  14  18
ENDBRANCH   1  13
BRANCH   1  27
ATOM     27  C   UNL     1      31.812  -7.953 -21.994  0.00  0.00    +0.055 C 
BRANCH  27  29
ATOM     28  F   UNL     1      31.750 -10.932 -17.227  0.00  0.00    -0.204 F 
ATOM     29  C   UNL     1      31.795  -8.752 -20.714  0.00  0.00    -0.020 C 
ATOM     30  C   UNL     1      32.482  -8.279 -19.608  0.00  0.00    -0.002 C 
ATOM     31  C   UNL     1      31.094  -9.948 -20.668  0.00  0.00    -0.002 C 
ATOM     32  C   UNL     1      32.468  -9.018 -18.425  0.00  0.00    +0.029 C 
ATOM     33  C   UNL     1      31.078 -10.687 -19.485  0.00  0.00    +0.029 C 
ATOM     34  C   UNL     1      31.766 -10.222 -18.364  0.00  0.00    +0.140 C 
ENDBRANCH  27  29
ENDBRANCH   1  27
TORSDOF 6
ENDMDL
