MODEL 1
REMARK VINA RESULT:     -12.0      0.000      0.000
REMARK  Name = 71226662
REMARK  4 active torsions:
REMARK  status: ('A' for Active; 'I' for Inactive)
REMARK    1  A    between atoms: C_5  and  C_15
REMARK    2  A    between atoms: C_7  and  C_23
REMARK    3  A    between atoms: C_19  and  C_20
REMARK    4  A    between atoms: C_28  and  C_31
REMARK                            x       y       z     vdW  Elec       q    Type
REMARK                         _______ _______ _______ _____ _____    ______ ____
ROOT
ATOM      1  N   UNL     1      32.945 -24.279 -14.283  0.00  0.00    -0.251 N 
ATOM      2  N   UNL     1      34.876 -23.689 -15.205  0.00  0.00    -0.392 NA
ATOM      3  N   UNL     1      30.293 -23.834 -14.965  0.00  0.00    -0.231 NA
ATOM      4  N   UNL     1      30.842 -22.617 -16.861  0.00  0.00    -0.344 N 
ATOM      5  C   UNL     1      34.308 -24.332 -14.205  0.00  0.00    +0.182 C 
ATOM      6  C   UNL     1      32.624 -23.556 -15.406  0.00  0.00    +0.185 C 
ATOM      7  C   UNL     1      33.833 -23.202 -15.959  0.00  0.00    +0.136 C 
ATOM      8  C   UNL     1      31.945 -24.790 -13.482  0.00  0.00    +0.089 C 
ATOM      9  C   UNL     1      31.228 -23.332 -15.749  0.00  0.00    +0.128 C 
ATOM     10  C   UNL     1      30.673 -24.554 -13.845  0.00  0.00    +0.116 C 
ATOM     11  H   UNL     1      29.885 -22.489 -17.056  0.00  0.00    +0.143 HD
ATOM     12  H   UNL     1      31.522 -22.234 -17.461  0.00  0.00    +0.143 HD
ENDROOT
BRANCH   5  15
ATOM     13  O   UNL     1      36.418 -26.710 -15.022  0.00  0.00    -0.260 OA
ATOM     14  N   UNL     1      36.485 -25.167 -13.290  0.00  0.00    -0.263 N 
ATOM     15  C   UNL     1      35.037 -25.054 -13.086  0.00  0.00    +0.143 C 
ATOM     16  C   UNL     1      34.912 -24.327 -11.741  0.00  0.00    +0.030 C 
ATOM     17  C   UNL     1      36.178 -23.479 -11.666  0.00  0.00    +0.024 C 
ATOM     18  C   UNL     1      37.227 -24.362 -12.324  0.00  0.00    +0.095 C 
ATOM     19  C   UNL     1      37.047 -26.036 -14.214  0.00  0.00    +0.293 C 
BRANCH  19  20
ATOM     20  C   UNL     1      38.488 -26.153 -14.219  0.00  0.00    -0.007 C 
ATOM     21  C   UNL     1      39.685 -26.250 -14.223  0.00  0.00    -0.081 C 
ATOM     22  C   UNL     1      41.142 -26.368 -14.227  0.00  0.00    +0.090 C 
ENDBRANCH  19  20
ENDBRANCH   5  15
BRANCH   7  23
ATOM     23  C   UNL     1      34.041 -22.437 -17.150  0.00  0.00    +0.028 C 
ATOM     24  C   UNL     1      32.952 -22.055 -17.934  0.00  0.00    +0.002 C 
ATOM     25  C   UNL     1      35.334 -22.073 -17.527  0.00  0.00    +0.002 C 
ATOM     26  C   UNL     1      33.156 -21.311 -19.096  0.00  0.00    +0.005 C 
ATOM     27  C   UNL     1      35.537 -21.328 -18.688  0.00  0.00    +0.005 C 
ATOM     28  C   UNL     1      34.449 -20.947 -19.473  0.00  0.00    +0.054 C 
BRANCH  28  31
ATOM     29  O   UNL     1      34.845 -20.764 -21.758  0.00  0.00    -0.270 OA
ATOM     30  N   UNL     1      34.662 -18.777 -20.524  0.00  0.00    -0.266 N 
ATOM     31  C   UNL     1      34.661 -20.169 -20.683  0.00  0.00    +0.251 C 
ATOM     32  H   UNL     1      34.501 -18.450 -19.609  0.00  0.00    +0.157 HD
ATOM     33  N   UNL     1      34.824 -16.480 -21.125  0.00  0.00    -0.229 NA
ATOM     34  C   UNL     1      34.865 -17.777 -21.507  0.00  0.00    +0.134 C 
ATOM     35  C   UNL     1      35.094 -18.196 -22.807  0.00  0.00    +0.034 C 
ATOM     36  C   UNL     1      35.296 -17.222 -23.779  0.00  0.00    +0.004 C 
ATOM     37  C   UNL     1      35.023 -15.562 -22.097  0.00  0.00    +0.100 C 
ATOM     38  C   UNL     1      35.261 -15.877 -23.425  0.00  0.00    +0.021 C 
ENDBRANCH  28  31
ENDBRANCH   7  23
TORSDOF 4
ENDMDL
MODEL 2
REMARK VINA RESULT:     -11.5      8.707     16.073
REMARK  Name = 71226662
REMARK  4 active torsions:
REMARK  status: ('A' for Active; 'I' for Inactive)
REMARK    1  A    between atoms: C_5  and  C_15
REMARK    2  A    between atoms: C_7  and  C_23
REMARK    3  A    between atoms: C_19  and  C_20
REMARK    4  A    between atoms: C_28  and  C_31
REMARK                            x       y       z     vdW  Elec       q    Type
REMARK                         _______ _______ _______ _____ _____    ______ ____
ROOT
ATOM      1  N   UNL     1      32.293  -7.656 -21.333  0.00  0.00    -0.251 N 
ATOM      2  N   UNL     1      32.977  -8.416 -23.304  0.00  0.00    -0.392 NA
ATOM      3  N   UNL     1      31.587  -8.896 -18.954  0.00  0.00    -0.231 NA
ATOM      4  N   UNL     1      31.978 -11.024 -19.788  0.00  0.00    -0.344 N 
ATOM      5  C   UNL     1      32.689  -7.338 -22.602  0.00  0.00    +0.182 C 
ATOM      6  C   UNL     1      32.333  -9.025 -21.220  0.00  0.00    +0.185 C 
ATOM      7  C   UNL     1      32.758  -9.472 -22.449  0.00  0.00    +0.136 C 
ATOM      8  C   UNL     1      31.899  -6.885 -20.260  0.00  0.00    +0.089 C 
ATOM      9  C   UNL     1      31.958  -9.659 -19.965  0.00  0.00    +0.128 C 
ATOM     10  C   UNL     1      31.565  -7.522 -19.124  0.00  0.00    +0.116 C 
ATOM     11  H   UNL     1      31.717 -11.412 -18.921  0.00  0.00    +0.143 HD
ATOM     12  H   UNL     1      32.253 -11.613 -20.527  0.00  0.00    +0.143 HD
ENDROOT
BRANCH   5  15
ATOM     13  O   UNL     1      35.580  -6.261 -23.722  0.00  0.00    -0.260 OA
ATOM     14  N   UNL     1      33.420  -5.764 -24.407  0.00  0.00    -0.263 N 
ATOM     15  C   UNL     1      32.772  -5.907 -23.100  0.00  0.00    +0.143 C 
ATOM     16  C   UNL     1      31.389  -5.276 -23.305  0.00  0.00    +0.030 C 
ATOM     17  C   UNL     1      31.102  -5.500 -24.787  0.00  0.00    +0.024 C 
ATOM     18  C   UNL     1      32.470  -5.338 -25.432  0.00  0.00    +0.095 C 
ATOM     19  C   UNL     1      34.788  -5.903 -24.587  0.00  0.00    +0.293 C 
BRANCH  19  20
ATOM     20  C   UNL     1      35.317  -5.601 -25.898  0.00  0.00    -0.007 C 
ATOM     21  C   UNL     1      35.756  -5.350 -26.987  0.00  0.00    -0.081 C 
ATOM     22  C   UNL     1      36.290  -5.045 -28.313  0.00  0.00    +0.090 C 
ENDBRANCH  19  20
ENDBRANCH   5  15
BRANCH   7  23
ATOM     23  C   UNL     1      32.962 -10.831 -22.845  0.00  0.00    +0.028 C 
ATOM     24  C   UNL     1      32.053 -11.816 -22.457  0.00  0.00    +0.002 C 
ATOM     25  C   UNL     1      34.072 -11.173 -23.618  0.00  0.00    +0.002 C 
ATOM     26  C   UNL     1      32.254 -13.141 -22.842  0.00  0.00    +0.005 C 
ATOM     27  C   UNL     1      34.273 -12.498 -24.003  0.00  0.00    +0.005 C 
ATOM     28  C   UNL     1      33.364 -13.483 -23.615  0.00  0.00    +0.054 C 
BRANCH  28  31
ATOM     29  O   UNL     1      33.104 -15.254 -25.100  0.00  0.00    -0.270 OA
ATOM     30  N   UNL     1      34.283 -15.665 -23.114  0.00  0.00    -0.266 N 
ATOM     31  C   UNL     1      33.572 -14.864 -24.018  0.00  0.00    +0.251 C 
ATOM     32  H   UNL     1      34.594 -15.215 -22.295  0.00  0.00    +0.157 HD
ATOM     33  N   UNL     1      35.314 -17.615 -22.221  0.00  0.00    -0.229 NA
ATOM     34  C   UNL     1      34.614 -17.038 -23.224  0.00  0.00    +0.134 C 
ATOM     35  C   UNL     1      34.195 -17.708 -24.362  0.00  0.00    +0.034 C 
ATOM     36  C   UNL     1      34.514 -19.056 -24.479  0.00  0.00    +0.004 C 
ATOM     37  C   UNL     1      35.607 -18.926 -22.370  0.00  0.00    +0.100 C 
ATOM     38  C   UNL     1      35.233 -19.685 -23.468  0.00  0.00    +0.021 C 
ENDBRANCH  28  31
ENDBRANCH   7  23
TORSDOF 4
ENDMDL
MODEL 3
REMARK VINA RESULT:     -10.4     10.751     19.542
REMARK  Name = 71226662
REMARK  4 active torsions:
REMARK  status: ('A' for Active; 'I' for Inactive)
REMARK    1  A    between atoms: C_5  and  C_15
REMARK    2  A    between atoms: C_7  and  C_23
REMARK    3  A    between atoms: C_19  and  C_20
REMARK    4  A    between atoms: C_28  and  C_31
REMARK                            x       y       z     vdW  Elec       q    Type
REMARK                         _______ _______ _______ _____ _____    ______ ____
ROOT
ATOM      1  N   UNL     1      32.026  -3.776 -25.973  0.00  0.00    -0.251 N 
ATOM      2  N   UNL     1      32.959  -5.767 -26.278  0.00  0.00    -0.392 NA
ATOM      3  N   UNL     1      30.439  -2.702 -23.967  0.00  0.00    -0.231 NA
ATOM      4  N   UNL     1      30.450  -4.659 -22.723  0.00  0.00    -0.344 N 
ATOM      5  C   UNL     1      32.799  -4.560 -26.783  0.00  0.00    +0.182 C 
ATOM      6  C   UNL     1      31.672  -4.533 -24.883  0.00  0.00    +0.185 C 
ATOM      7  C   UNL     1      32.259  -5.758 -25.093  0.00  0.00    +0.136 C 
ATOM      8  C   UNL     1      31.592  -2.471 -26.080  0.00  0.00    +0.089 C 
ATOM      9  C   UNL     1      30.838  -3.954 -23.840  0.00  0.00    +0.128 C 
ATOM     10  C   UNL     1      30.825  -1.986 -25.088  0.00  0.00    +0.116 C 
ATOM     11  H   UNL     1      29.885  -4.228 -22.041  0.00  0.00    +0.143 HD
ATOM     12  H   UNL     1      30.737  -5.593 -22.606  0.00  0.00    +0.143 HD
ENDROOT
BRANCH   5  15
ATOM     13  O   UNL     1      36.062  -4.290 -27.016  0.00  0.00    -0.260 OA
ATOM     14  N   UNL     1      34.482  -4.882 -28.609  0.00  0.00    -0.263 N 
ATOM     15  C   UNL     1      33.381  -4.062 -28.093  0.00  0.00    +0.143 C 
ATOM     16  C   UNL     1      32.353  -4.070 -29.231  0.00  0.00    +0.030 C 
ATOM     17  C   UNL     1      32.595  -5.403 -29.932  0.00  0.00    +0.024 C 
ATOM     18  C   UNL     1      34.103  -5.577 -29.836  0.00  0.00    +0.095 C 
ATOM     19  C   UNL     1      35.750  -4.876 -28.047  0.00  0.00    +0.293 C 
BRANCH  19  20
ATOM     20  C   UNL     1      36.781  -5.621 -28.734  0.00  0.00    -0.007 C 
ATOM     21  C   UNL     1      37.637  -6.240 -29.304  0.00  0.00    -0.081 C 
ATOM     22  C   UNL     1      38.680  -6.994 -29.999  0.00  0.00    +0.090 C 
ENDBRANCH  19  20
ENDBRANCH   5  15
BRANCH   7  23
ATOM     23  C   UNL     1      32.190  -6.902 -24.237  0.00  0.00    +0.028 C 
ATOM     24  C   UNL     1      33.200  -7.137 -23.302  0.00  0.00    +0.002 C 
ATOM     25  C   UNL     1      31.113  -7.783 -24.336  0.00  0.00    +0.002 C 
ATOM     26  C   UNL     1      33.132  -8.253 -22.469  0.00  0.00    +0.005 C 
ATOM     27  C   UNL     1      31.046  -8.898 -23.502  0.00  0.00    +0.005 C 
ATOM     28  C   UNL     1      32.055  -9.134 -22.568  0.00  0.00    +0.054 C 
BRANCH  28  31
ATOM     29  O   UNL     1      31.225 -10.267 -20.714  0.00  0.00    -0.270 OA
ATOM     30  N   UNL     1      32.817 -11.369 -22.039  0.00  0.00    -0.266 N 
ATOM     31  C   UNL     1      31.984 -10.296 -21.697  0.00  0.00    +0.251 C 
ATOM     32  H   UNL     1      33.363 -11.246 -22.849  0.00  0.00    +0.157 HD
ATOM     33  N   UNL     1      33.847 -13.508 -21.883  0.00  0.00    -0.229 NA
ATOM     34  C   UNL     1      32.978 -12.608 -21.371  0.00  0.00    +0.134 C 
ATOM     35  C   UNL     1      32.226 -12.820 -20.226  0.00  0.00    +0.034 C 
ATOM     36  C   UNL     1      32.378 -14.032 -19.563  0.00  0.00    +0.004 C 
ATOM     37  C   UNL     1      33.967 -14.676 -21.212  0.00  0.00    +0.100 C 
ATOM     38  C   UNL     1      33.263 -14.984 -20.059  0.00  0.00    +0.021 C 
ENDBRANCH  28  31
ENDBRANCH   7  23
TORSDOF 4
ENDMDL
MODEL 4
REMARK VINA RESULT:     -10.3      1.596      2.885
REMARK  Name = 71226662
REMARK  4 active torsions:
REMARK  status: ('A' for Active; 'I' for Inactive)
REMARK    1  A    between atoms: C_5  and  C_15
REMARK    2  A    between atoms: C_7  and  C_23
REMARK    3  A    between atoms: C_19  and  C_20
REMARK    4  A    between atoms: C_28  and  C_31
REMARK                            x       y       z     vdW  Elec       q    Type
REMARK                         _______ _______ _______ _____ _____    ______ ____
ROOT
ATOM      1  N   UNL     1      35.040 -23.820 -15.204  0.00  0.00    -0.251 N 
ATOM      2  N   UNL     1      36.679 -22.896 -16.382  0.00  0.00    -0.392 NA
ATOM      3  N   UNL     1      32.277 -23.811 -15.452  0.00  0.00    -0.231 NA
ATOM      4  N   UNL     1      32.315 -22.480 -17.350  0.00  0.00    -0.344 N 
ATOM      5  C   UNL     1      36.389 -23.645 -15.338  0.00  0.00    +0.182 C 
ATOM      6  C   UNL     1      34.433 -23.138 -16.231  0.00  0.00    +0.185 C 
ATOM      7  C   UNL     1      35.465 -22.575 -16.944  0.00  0.00    +0.136 C 
ATOM      8  C   UNL     1      34.277 -24.508 -14.285  0.00  0.00    +0.089 C 
ATOM      9  C   UNL     1      32.983 -23.143 -16.346  0.00  0.00    +0.128 C 
ATOM     10  C   UNL     1      32.942 -24.481 -14.438  0.00  0.00    +0.116 C 
ATOM     11  H   UNL     1      31.331 -22.511 -17.391  0.00  0.00    +0.143 HD
ATOM     12  H   UNL     1      32.820 -21.976 -18.028  0.00  0.00    +0.143 HD
ENDROOT
BRANCH   5  15
ATOM     13  O   UNL     1      36.539 -22.443 -12.287  0.00  0.00    -0.260 OA
ATOM     14  N   UNL     1      36.834 -24.608 -13.069  0.00  0.00    -0.263 N 
ATOM     15  C   UNL     1      37.393 -24.258 -14.379  0.00  0.00    +0.143 C 
ATOM     16  C   UNL     1      37.967 -25.583 -14.898  0.00  0.00    +0.030 C 
ATOM     17  C   UNL     1      37.087 -26.643 -14.243  0.00  0.00    +0.024 C 
ATOM     18  C   UNL     1      36.798 -26.054 -12.871  0.00  0.00    +0.095 C 
ATOM     19  C   UNL     1      36.507 -23.656 -12.114  0.00  0.00    +0.293 C 
BRANCH  19  20
ATOM     20  C   UNL     1      36.095 -24.139 -10.815  0.00  0.00    -0.007 C 
ATOM     21  C   UNL     1      35.754 -24.540  -9.736  0.00  0.00    -0.081 C 
ATOM     22  C   UNL     1      35.337 -25.028  -8.422  0.00  0.00    +0.090 C 
ENDBRANCH  19  20
ENDBRANCH   5  15
BRANCH   7  23
ATOM     23  C   UNL     1      35.356 -21.761 -18.116  0.00  0.00    +0.028 C 
ATOM     24  C   UNL     1      34.135 -21.659 -18.783  0.00  0.00    +0.002 C 
ATOM     25  C   UNL     1      36.470 -21.070 -18.591  0.00  0.00    +0.002 C 
ATOM     26  C   UNL     1      34.029 -20.867 -19.926  0.00  0.00    +0.005 C 
ATOM     27  C   UNL     1      36.364 -20.277 -19.733  0.00  0.00    +0.005 C 
ATOM     28  C   UNL     1      35.144 -20.175 -20.401  0.00  0.00    +0.054 C 
BRANCH  28  31
ATOM     29  O   UNL     1      35.027 -19.893 -22.707  0.00  0.00    -0.270 OA
ATOM     30  N   UNL     1      34.961 -17.965 -21.372  0.00  0.00    -0.266 N 
ATOM     31  C   UNL     1      35.032 -19.347 -21.591  0.00  0.00    +0.251 C 
ATOM     32  H   UNL     1      34.975 -17.680 -20.429  0.00  0.00    +0.157 HD
ATOM     33  N   UNL     1      34.815 -15.647 -21.887  0.00  0.00    -0.229 NA
ATOM     34  C   UNL     1      34.873 -16.924 -22.328  0.00  0.00    +0.134 C 
ATOM     35  C   UNL     1      34.850 -17.284 -23.666  0.00  0.00    +0.034 C 
ATOM     36  C   UNL     1      34.765 -16.269 -24.612  0.00  0.00    +0.004 C 
ATOM     37  C   UNL     1      34.731 -14.687 -22.836  0.00  0.00    +0.100 C 
ATOM     38  C   UNL     1      34.703 -14.943 -24.198  0.00  0.00    +0.021 C 
ENDBRANCH  28  31
ENDBRANCH   7  23
TORSDOF 4
ENDMDL
MODEL 5
REMARK VINA RESULT:      -9.9      6.117     14.661
REMARK  Name = 71226662
REMARK  4 active torsions:
REMARK  status: ('A' for Active; 'I' for Inactive)
REMARK    1  A    between atoms: C_5  and  C_15
REMARK    2  A    between atoms: C_7  and  C_23
REMARK    3  A    between atoms: C_19  and  C_20
REMARK    4  A    between atoms: C_28  and  C_31
REMARK                            x       y       z     vdW  Elec       q    Type
REMARK                         _______ _______ _______ _____ _____    ______ ____
ROOT
ATOM      1  N   UNL     1      32.801 -10.360 -22.698  0.00  0.00    -0.251 N 
ATOM      2  N   UNL     1      34.615 -11.460 -23.351  0.00  0.00    -0.392 NA
ATOM      3  N   UNL     1      30.645 -11.028 -21.085  0.00  0.00    -0.231 NA
ATOM      4  N   UNL     1      31.443 -13.165 -20.669  0.00  0.00    -0.344 N 
ATOM      5  C   UNL     1      33.956 -10.322 -23.427  0.00  0.00    +0.182 C 
ATOM      6  C   UNL     1      32.720 -11.604 -22.120  0.00  0.00    +0.185 C 
ATOM      7  C   UNL     1      33.851 -12.265 -22.538  0.00  0.00    +0.136 C 
ATOM      8  C   UNL     1      31.805  -9.431 -22.481  0.00  0.00    +0.089 C 
ATOM      9  C   UNL     1      31.582 -11.938 -21.277  0.00  0.00    +0.128 C 
ATOM     10  C   UNL     1      30.778  -9.790 -21.694  0.00  0.00    +0.116 C 
ATOM     11  H   UNL     1      30.656 -13.348 -20.106  0.00  0.00    +0.143 HD
ATOM     12  H   UNL     1      32.129 -13.859 -20.797  0.00  0.00    +0.143 HD
ENDROOT
BRANCH   5  15
ATOM     13  O   UNL     1      31.701  -8.784 -25.250  0.00  0.00    -0.260 OA
ATOM     14  N   UNL     1      33.502  -7.940 -24.055  0.00  0.00    -0.263 N 
ATOM     15  C   UNL     1      34.389  -9.097 -24.213  0.00  0.00    +0.143 C 
ATOM     16  C   UNL     1      35.760  -8.571 -23.771  0.00  0.00    +0.030 C 
ATOM     17  C   UNL     1      35.423  -7.481 -22.758  0.00  0.00    +0.024 C 
ATOM     18  C   UNL     1      34.159  -6.857 -23.328  0.00  0.00    +0.095 C 
ATOM     19  C   UNL     1      32.247  -7.870 -24.641  0.00  0.00    +0.293 C 
BRANCH  19  20
ATOM     20  C   UNL     1      31.531  -6.619 -24.523  0.00  0.00    -0.007 C 
ATOM     21  C   UNL     1      30.938  -5.581 -24.425  0.00  0.00    -0.081 C 
ATOM     22  C   UNL     1      30.214  -4.315 -24.306  0.00  0.00    +0.090 C 
ENDBRANCH  19  20
ENDBRANCH   5  15
BRANCH   7  23
ATOM     23  C   UNL     1      34.235 -13.603 -22.206  0.00  0.00    +0.028 C 
ATOM     24  C   UNL     1      34.464 -14.535 -23.219  0.00  0.00    +0.002 C 
ATOM     25  C   UNL     1      34.379 -13.976 -20.870  0.00  0.00    +0.002 C 
ATOM     26  C   UNL     1      34.837 -15.839 -22.895  0.00  0.00    +0.005 C 
ATOM     27  C   UNL     1      34.753 -15.280 -20.546  0.00  0.00    +0.005 C 
ATOM     28  C   UNL     1      34.981 -16.212 -21.559  0.00  0.00    +0.054 C 
BRANCH  28  31
ATOM     29  O   UNL     1      36.531 -17.944 -21.468  0.00  0.00    -0.270 OA
ATOM     30  N   UNL     1      34.373 -18.372 -20.652  0.00  0.00    -0.266 N 
ATOM     31  C   UNL     1      35.372 -17.571 -21.221  0.00  0.00    +0.251 C 
ATOM     32  H   UNL     1      33.501 -17.937 -20.515  0.00  0.00    +0.157 HD
ATOM     33  N   UNL     1      33.354 -20.309 -19.718  0.00  0.00    -0.229 NA
ATOM     34  C   UNL     1      34.454 -19.728 -20.248  0.00  0.00    +0.134 C 
ATOM     35  C   UNL     1      35.665 -20.377 -20.424  0.00  0.00    +0.034 C 
ATOM     36  C   UNL     1      35.754 -21.708 -20.032  0.00  0.00    +0.004 C 
ATOM     37  C   UNL     1      33.478 -21.603 -19.347  0.00  0.00    +0.100 C 
ATOM     38  C   UNL     1      34.644 -22.340 -19.482  0.00  0.00    +0.021 C 
ENDBRANCH  28  31
ENDBRANCH   7  23
TORSDOF 4
ENDMDL
MODEL 6
REMARK VINA RESULT:      -9.5     11.055     15.754
REMARK  Name = 71226662
REMARK  4 active torsions:
REMARK  status: ('A' for Active; 'I' for Inactive)
REMARK    1  A    between atoms: C_5  and  C_15
REMARK    2  A    between atoms: C_7  and  C_23
REMARK    3  A    between atoms: C_19  and  C_20
REMARK    4  A    between atoms: C_28  and  C_31
REMARK                            x       y       z     vdW  Elec       q    Type
REMARK                         _______ _______ _______ _____ _____    ______ ____
ROOT
ATOM      1  N   UNL     1      31.957  -9.685 -20.803  0.00  0.00    -0.251 N 
ATOM      2  N   UNL     1      32.514 -10.043 -22.921  0.00  0.00    -0.392 NA
ATOM      3  N   UNL     1      32.145  -7.480 -19.130  0.00  0.00    -0.231 NA
ATOM      4  N   UNL     1      33.101  -6.147 -20.768  0.00  0.00    -0.344 N 
ATOM      5  C   UNL     1      31.994 -10.579 -21.836  0.00  0.00    +0.182 C 
ATOM      6  C   UNL     1      32.488  -8.504 -21.261  0.00  0.00    +0.185 C 
ATOM      7  C   UNL     1      32.826  -8.749 -22.572  0.00  0.00    +0.136 C 
ATOM      8  C   UNL     1      31.511  -9.784 -19.502  0.00  0.00    +0.089 C 
ATOM      9  C   UNL     1      32.580  -7.357 -20.370  0.00  0.00    +0.128 C 
ATOM     10  C   UNL     1      31.618  -8.695 -18.722  0.00  0.00    +0.116 C 
ATOM     11  H   UNL     1      33.144  -5.396 -20.132  0.00  0.00    +0.143 HD
ATOM     12  H   UNL     1      33.431  -6.031 -21.688  0.00  0.00    +0.143 HD
ENDROOT
BRANCH   5  15
ATOM     13  O   UNL     1      32.376 -12.593 -24.400  0.00  0.00    -0.260 OA
ATOM     14  N   UNL     1      32.453 -13.024 -22.122  0.00  0.00    -0.263 N 
ATOM     15  C   UNL     1      31.486 -12.003 -21.706  0.00  0.00    +0.143 C 
ATOM     16  C   UNL     1      31.158 -12.378 -20.255  0.00  0.00    +0.030 C 
ATOM     17  C   UNL     1      32.428 -13.062 -19.759  0.00  0.00    +0.024 C 
ATOM     18  C   UNL     1      32.918 -13.816 -20.985  0.00  0.00    +0.095 C 
ATOM     19  C   UNL     1      32.769 -13.262 -23.451  0.00  0.00    +0.293 C 
BRANCH  19  20
ATOM     20  C   UNL     1      33.631 -14.387 -23.734  0.00  0.00    -0.007 C 
ATOM     21  C   UNL     1      34.347 -15.323 -23.968  0.00  0.00    -0.081 C 
ATOM     22  C   UNL     1      35.218 -16.462 -24.254  0.00  0.00    +0.090 C 
ENDBRANCH  19  20
ENDBRANCH   5  15
BRANCH   7  23
ATOM     23  C   UNL     1      33.419  -7.829 -23.492  0.00  0.00    +0.028 C 
ATOM     24  C   UNL     1      34.786  -7.556 -23.423  0.00  0.00    +0.002 C 
ATOM     25  C   UNL     1      32.631  -7.204 -24.458  0.00  0.00    +0.002 C 
ATOM     26  C   UNL     1      35.363  -6.658 -24.320  0.00  0.00    +0.005 C 
ATOM     27  C   UNL     1      33.209  -6.306 -25.355  0.00  0.00    +0.005 C 
ATOM     28  C   UNL     1      34.575  -6.033 -25.287  0.00  0.00    +0.054 C 
BRANCH  28  31
ATOM     29  O   UNL     1      34.766  -3.926 -26.254  0.00  0.00    -0.270 OA
ATOM     30  N   UNL     1      36.184  -5.619 -27.047  0.00  0.00    -0.266 N 
ATOM     31  C   UNL     1      35.178  -5.098 -26.223  0.00  0.00    +0.251 C 
ATOM     32  H   UNL     1      36.404  -6.568 -26.906  0.00  0.00    +0.157 HD
ATOM     33  N   UNL     1      37.858  -5.665 -28.738  0.00  0.00    -0.229 NA
ATOM     34  C   UNL     1      36.925  -4.960 -28.059  0.00  0.00    +0.134 C 
ATOM     35  C   UNL     1      36.645  -3.623 -28.289  0.00  0.00    +0.034 C 
ATOM     36  C   UNL     1      37.366  -2.967 -29.280  0.00  0.00    +0.004 C 
ATOM     37  C   UNL     1      38.540  -4.995 -29.693  0.00  0.00    +0.100 C 
ATOM     38  C   UNL     1      38.334  -3.659 -30.000  0.00  0.00    +0.021 C 
ENDBRANCH  28  31
ENDBRANCH   7  23
TORSDOF 4
ENDMDL
MODEL 7
REMARK VINA RESULT:      -9.3     10.987     15.745
REMARK  Name = 71226662
REMARK  4 active torsions:
REMARK  status: ('A' for Active; 'I' for Inactive)
REMARK    1  A    between atoms: C_5  and  C_15
REMARK    2  A    between atoms: C_7  and  C_23
REMARK    3  A    between atoms: C_19  and  C_20
REMARK    4  A    between atoms: C_28  and  C_31
REMARK                            x       y       z     vdW  Elec       q    Type
REMARK                         _______ _______ _______ _____ _____    ______ ____
ROOT
ATOM      1  N   UNL     1      31.960  -9.948 -20.716  0.00  0.00    -0.251 N 
ATOM      2  N   UNL     1      32.576 -10.285 -22.821  0.00  0.00    -0.392 NA
ATOM      3  N   UNL     1      32.038  -7.741 -19.037  0.00  0.00    -0.231 NA
ATOM      4  N   UNL     1      32.984  -6.374 -20.654  0.00  0.00    -0.344 N 
ATOM      5  C   UNL     1      32.050 -10.839 -21.748  0.00  0.00    +0.182 C 
ATOM      6  C   UNL     1      32.462  -8.750 -21.161  0.00  0.00    +0.185 C 
ATOM      7  C   UNL     1      32.836  -8.982 -22.464  0.00  0.00    +0.136 C 
ATOM      8  C   UNL     1      31.490 -10.064 -19.424  0.00  0.00    +0.089 C 
ATOM      9  C   UNL     1      32.495  -7.602 -20.267  0.00  0.00    +0.128 C 
ATOM     10  C   UNL     1      31.544  -8.973 -18.641  0.00  0.00    +0.116 C 
ATOM     11  H   UNL     1      32.988  -5.623 -20.016  0.00  0.00    +0.143 HD
ATOM     12  H   UNL     1      33.330  -6.246 -21.566  0.00  0.00    +0.143 HD
ENDROOT
BRANCH   5  15
ATOM     13  O   UNL     1      32.273 -12.754 -24.406  0.00  0.00    -0.260 OA
ATOM     14  N   UNL     1      32.542 -13.261 -22.157  0.00  0.00    -0.263 N 
ATOM     15  C   UNL     1      31.588 -12.280 -21.630  0.00  0.00    +0.143 C 
ATOM     16  C   UNL     1      31.386 -12.713 -20.172  0.00  0.00    +0.030 C 
ATOM     17  C   UNL     1      32.707 -13.380 -19.803  0.00  0.00    +0.024 C 
ATOM     18  C   UNL     1      33.114 -14.078 -21.091  0.00  0.00    +0.095 C 
ATOM     19  C   UNL     1      32.757 -13.444 -23.515  0.00  0.00    +0.293 C 
BRANCH  19  20
ATOM     20  C   UNL     1      33.619 -14.537 -23.906  0.00  0.00    -0.007 C 
ATOM     21  C   UNL     1      34.335 -15.444 -24.230  0.00  0.00    -0.081 C 
ATOM     22  C   UNL     1      35.207 -16.549 -24.626  0.00  0.00    +0.090 C 
ENDBRANCH  19  20
ENDBRANCH   5  15
BRANCH   7  23
ATOM     23  C   UNL     1      33.419  -8.041 -23.371  0.00  0.00    +0.028 C 
ATOM     24  C   UNL     1      34.780  -7.745 -23.291  0.00  0.00    +0.002 C 
ATOM     25  C   UNL     1      32.625  -7.419 -24.334  0.00  0.00    +0.002 C 
ATOM     26  C   UNL     1      35.347  -6.827 -24.175  0.00  0.00    +0.005 C 
ATOM     27  C   UNL     1      33.192  -6.501 -25.218  0.00  0.00    +0.005 C 
ATOM     28  C   UNL     1      34.553  -6.205 -25.138  0.00  0.00    +0.054 C 
BRANCH  28  31
ATOM     29  O   UNL     1      36.333  -4.921 -25.909  0.00  0.00    -0.270 OA
ATOM     30  N   UNL     1      34.293  -4.749 -27.055  0.00  0.00    -0.266 N 
ATOM     31  C   UNL     1      35.145  -5.248 -26.061  0.00  0.00    +0.251 C 
ATOM     32  H   UNL     1      33.374  -5.104 -27.050  0.00  0.00    +0.157 HD
ATOM     33  N   UNL     1      33.596  -3.458 -28.928  0.00  0.00    -0.229 NA
ATOM     34  C   UNL     1      34.580  -3.798 -28.066  0.00  0.00    +0.134 C 
ATOM     35  C   UNL     1      35.862  -3.275 -28.106  0.00  0.00    +0.034 C 
ATOM     36  C   UNL     1      36.153  -2.341 -29.094  0.00  0.00    +0.004 C 
ATOM     37  C   UNL     1      33.916  -2.548 -29.876  0.00  0.00    +0.100 C 
ATOM     38  C   UNL     1      35.167  -1.965 -30.000  0.00  0.00    +0.021 C 
ENDBRANCH  28  31
ENDBRANCH   7  23
TORSDOF 4
ENDMDL
