MODEL 1
REMARK VINA RESULT:     -10.5      0.000      0.000
REMARK  Name = 71479709
REMARK  6 active torsions:
REMARK  status: ('A' for Active; 'I' for Inactive)
REMARK    1  A    between atoms: N_1  and  C_25
REMARK    2  A    between atoms: C_5  and  C_9
REMARK    3  A    between atoms: C_14  and  O_15
REMARK    4  A    between atoms: O_15  and  C_16
REMARK    5  A    between atoms: C_25  and  C_28
REMARK    6  A    between atoms: C_33  and  C_34
REMARK                            x       y       z     vdW  Elec       q    Type
REMARK                         _______ _______ _______ _____ _____    ______ ____
ROOT
ATOM      1  N   UNL     1      31.942 -11.207 -21.902  0.00  0.00    -0.321 N 
ATOM      2  N   UNL     1      31.786 -11.021 -19.575  0.00  0.00    -0.233 NA
ATOM      3  N   UNL     1      31.930  -8.859 -18.519  0.00  0.00    -0.234 NA
ATOM      4  C   UNL     1      31.940 -10.407 -20.766  0.00  0.00    +0.113 C 
ATOM      5  C   UNL     1      32.093  -9.043 -20.913  0.00  0.00    +0.129 C 
ATOM      6  C   UNL     1      32.081  -8.313 -19.743  0.00  0.00    +0.110 C 
ATOM      7  C   UNL     1      31.790 -10.199 -18.508  0.00  0.00    +0.252 C 
ATOM      8  H   UNL     1      32.054 -10.770 -22.777  0.00  0.00    +0.148 HD
ATOM      9  N   UNL     1      32.230  -6.904 -19.815  0.00  0.00    -0.346 N 
ATOM     10  H   UNL     1      32.223  -6.366 -18.990  0.00  0.00    +0.143 HD
ATOM     11  H   UNL     1      32.340  -6.466 -20.689  0.00  0.00    +0.143 HD
ENDROOT
BRANCH   5  12
ATOM     12  C   UNL     1      32.255  -8.420 -22.212  0.00  0.00    -0.009 C 
ATOM     13  C   UNL     1      31.137  -8.157 -23.005  0.00  0.00    -0.000 C 
ATOM     14  C   UNL     1      33.529  -8.083 -22.671  0.00  0.00    -0.000 C 
ATOM     15  C   UNL     1      31.294  -7.560 -24.255  0.00  0.00    +0.037 C 
ATOM     16  C   UNL     1      33.685  -7.485 -23.920  0.00  0.00    +0.037 C 
ATOM     17  C   UNL     1      32.567  -7.224 -24.713  0.00  0.00    +0.145 C 
BRANCH  17  18
ATOM     18  O   UNL     1      32.720  -6.641 -25.934  0.00  0.00    -0.453 OA
BRANCH  18  19
ATOM     19  C   UNL     1      33.034  -5.293 -25.970  0.00  0.00    +0.145 C 
ATOM     20  C   UNL     1      34.266  -4.876 -26.473  0.00  0.00    +0.037 C 
ATOM     21  C   UNL     1      32.117  -4.351 -25.503  0.00  0.00    +0.037 C 
ATOM     22  C   UNL     1      34.581  -3.518 -26.511  0.00  0.00    +0.003 C 
ATOM     23  C   UNL     1      32.432  -2.993 -25.539  0.00  0.00    +0.003 C 
ATOM     24  C   UNL     1      33.664  -2.576 -26.043  0.00  0.00    +0.000 C 
ENDBRANCH  18  19
ENDBRANCH  17  18
ENDBRANCH   5  12
BRANCH   1  25
ATOM     25  C   UNL     1      31.792 -12.638 -21.874  0.00  0.00    +0.088 C 
BRANCH  25  28
ATOM     26  O   UNL     1      35.325 -17.593 -20.554  0.00  0.00    -0.270 OA
ATOM     27  N   UNL     1      34.876 -15.655 -21.760  0.00  0.00    -0.276 N 
ATOM     28  C   UNL     1      33.167 -13.301 -21.839  0.00  0.00    +0.023 C 
ATOM     29  C   UNL     1      33.340 -14.134 -20.562  0.00  0.00    +0.023 C 
ATOM     30  C   UNL     1      33.380 -14.186 -23.074  0.00  0.00    +0.023 C 
ATOM     31  C   UNL     1      34.690 -14.845 -20.553  0.00  0.00    +0.094 C 
ATOM     32  C   UNL     1      34.722 -14.916 -23.023  0.00  0.00    +0.094 C 
ATOM     33  C   UNL     1      35.204 -17.002 -21.628  0.00  0.00    +0.249 C 
BRANCH  33  34
ATOM     34  C   UNL     1      35.427 -17.779 -22.864  0.00  0.00    +0.058 C 
ATOM     35  C   UNL     1      34.969 -19.031 -22.929  0.00  0.00    +0.005 C 
ENDBRANCH  33  34
ENDBRANCH  25  28
ENDBRANCH   1  25
TORSDOF 6
ENDMDL
MODEL 2
REMARK VINA RESULT:     -10.4      4.126     12.801
REMARK  Name = 71479709
REMARK  6 active torsions:
REMARK  status: ('A' for Active; 'I' for Inactive)
REMARK    1  A    between atoms: N_1  and  C_25
REMARK    2  A    between atoms: C_5  and  C_9
REMARK    3  A    between atoms: C_14  and  O_15
REMARK    4  A    between atoms: O_15  and  C_16
REMARK    5  A    between atoms: C_25  and  C_28
REMARK    6  A    between atoms: C_33  and  C_34
REMARK                            x       y       z     vdW  Elec       q    Type
REMARK                         _______ _______ _______ _____ _____    ______ ____
ROOT
ATOM      1  N   UNL     1      35.035 -16.552 -20.664  0.00  0.00    -0.321 N 
ATOM      2  N   UNL     1      34.667 -16.047 -22.919  0.00  0.00    -0.233 NA
ATOM      3  N   UNL     1      34.589 -17.811 -24.560  0.00  0.00    -0.234 NA
ATOM      4  C   UNL     1      34.887 -16.986 -21.975  0.00  0.00    +0.113 C 
ATOM      5  C   UNL     1      34.969 -18.338 -22.242  0.00  0.00    +0.129 C 
ATOM      6  C   UNL     1      34.812 -18.695 -23.565  0.00  0.00    +0.110 C 
ATOM      7  C   UNL     1      34.530 -16.523 -24.171  0.00  0.00    +0.252 C 
ATOM      8  H   UNL     1      35.195 -17.228 -19.967  0.00  0.00    +0.148 HD
ATOM      9  N   UNL     1      34.882 -20.068 -23.915  0.00  0.00    -0.346 N 
ATOM     10  H   UNL     1      34.771 -20.342 -24.854  0.00  0.00    +0.143 HD
ATOM     11  H   UNL     1      35.040 -20.745 -23.219  0.00  0.00    +0.143 HD
ENDROOT
BRANCH   5  12
ATOM     12  C   UNL     1      35.205 -19.317 -21.199  0.00  0.00    -0.009 C 
ATOM     13  C   UNL     1      36.497 -19.529 -20.719  0.00  0.00    -0.000 C 
ATOM     14  C   UNL     1      34.139 -20.051 -20.677  0.00  0.00    -0.000 C 
ATOM     15  C   UNL     1      36.724 -20.473 -19.718  0.00  0.00    +0.037 C 
ATOM     16  C   UNL     1      34.365 -20.994 -19.676  0.00  0.00    +0.037 C 
ATOM     17  C   UNL     1      35.659 -21.205 -19.197  0.00  0.00    +0.145 C 
BRANCH  17  18
ATOM     18  O   UNL     1      35.880 -22.128 -18.220  0.00  0.00    -0.453 OA
BRANCH  18  19
ATOM     19  C   UNL     1      34.817 -22.463 -17.398  0.00  0.00    +0.145 C 
ATOM     20  C   UNL     1      33.531 -22.571 -17.927  0.00  0.00    +0.037 C 
ATOM     21  C   UNL     1      35.033 -22.694 -16.039  0.00  0.00    +0.037 C 
ATOM     22  C   UNL     1      32.462 -22.910 -17.099  0.00  0.00    +0.003 C 
ATOM     23  C   UNL     1      33.963 -23.031 -15.210  0.00  0.00    +0.003 C 
ATOM     24  C   UNL     1      32.677 -23.139 -15.740  0.00  0.00    +0.000 C 
ENDBRANCH  18  19
ENDBRANCH  17  18
ENDBRANCH   5  12
BRANCH   1  25
ATOM     25  C   UNL     1      34.969 -15.170 -20.265  0.00  0.00    +0.088 C 
BRANCH  25  28
ATOM     26  O   UNL     1      30.875 -10.486 -20.533  0.00  0.00    -0.270 OA
ATOM     27  N   UNL     1      32.163 -12.146 -21.531  0.00  0.00    -0.276 N 
ATOM     28  C   UNL     1      33.798 -14.486 -20.966  0.00  0.00    +0.023 C 
ATOM     29  C   UNL     1      32.797 -13.930 -19.944  0.00  0.00    +0.023 C 
ATOM     30  C   UNL     1      34.292 -13.357 -21.882  0.00  0.00    +0.023 C 
ATOM     31  C   UNL     1      31.657 -13.193 -20.641  0.00  0.00    +0.094 C 
ATOM     32  C   UNL     1      33.130 -12.612 -22.538  0.00  0.00    +0.094 C 
ATOM     33  C   UNL     1      31.686 -10.845 -21.389  0.00  0.00    +0.249 C 
BRANCH  33  34
ATOM     34  C   UNL     1      32.183  -9.822 -22.330  0.00  0.00    +0.058 C 
ATOM     35  C   UNL     1      31.315  -8.956 -22.858  0.00  0.00    +0.005 C 
ENDBRANCH  33  34
ENDBRANCH  25  28
ENDBRANCH   1  25
TORSDOF 6
ENDMDL
MODEL 3
REMARK VINA RESULT:     -10.2     10.075     15.342
REMARK  Name = 71479709
REMARK  6 active torsions:
REMARK  status: ('A' for Active; 'I' for Inactive)
REMARK    1  A    between atoms: N_1  and  C_25
REMARK    2  A    between atoms: C_5  and  C_9
REMARK    3  A    between atoms: C_14  and  O_15
REMARK    4  A    between atoms: O_15  and  C_16
REMARK    5  A    between atoms: C_25  and  C_28
REMARK    6  A    between atoms: C_33  and  C_34
REMARK                            x       y       z     vdW  Elec       q    Type
REMARK                         _______ _______ _______ _____ _____    ______ ____
ROOT
ATOM      1  N   UNL     1      33.784 -23.258 -17.304  0.00  0.00    -0.321 N 
ATOM      2  N   UNL     1      35.867 -23.200 -16.242  0.00  0.00    -0.233 NA
ATOM      3  N   UNL     1      36.010 -23.361 -13.841  0.00  0.00    -0.234 NA
ATOM      4  C   UNL     1      34.526 -23.292 -16.130  0.00  0.00    +0.113 C 
ATOM      5  C   UNL     1      33.862 -23.420 -14.927  0.00  0.00    +0.129 C 
ATOM      6  C   UNL     1      34.664 -23.449 -13.804  0.00  0.00    +0.110 C 
ATOM      7  C   UNL     1      36.538 -23.240 -15.074  0.00  0.00    +0.252 C 
ATOM      8  H   UNL     1      32.804 -23.325 -17.235  0.00  0.00    +0.148 HD
ATOM      9  N   UNL     1      34.053 -23.580 -12.531  0.00  0.00    -0.346 N 
ATOM     10  H   UNL     1      34.609 -23.604 -11.719  0.00  0.00    +0.143 HD
ATOM     11  H   UNL     1      33.074 -23.649 -12.461  0.00  0.00    +0.143 HD
ENDROOT
BRANCH   5  12
ATOM     12  C   UNL     1      32.418 -23.519 -14.848  0.00  0.00    -0.009 C 
ATOM     13  C   UNL     1      31.799 -24.767 -14.916  0.00  0.00    -0.000 C 
ATOM     14  C   UNL     1      31.647 -22.366 -14.706  0.00  0.00    -0.000 C 
ATOM     15  C   UNL     1      30.410 -24.862 -14.843  0.00  0.00    +0.037 C 
ATOM     16  C   UNL     1      30.258 -22.460 -14.632  0.00  0.00    +0.037 C 
ATOM     17  C   UNL     1      29.639 -23.709 -14.701  0.00  0.00    +0.145 C 
BRANCH  17  18
ATOM     18  O   UNL     1      28.283 -23.800 -14.630  0.00  0.00    -0.453 OA
BRANCH  18  19
ATOM     19  C   UNL     1      27.539 -23.062 -15.535  0.00  0.00    +0.145 C 
ATOM     20  C   UNL     1      27.785 -23.181 -16.903  0.00  0.00    +0.037 C 
ATOM     21  C   UNL     1      26.543 -22.199 -15.079  0.00  0.00    +0.037 C 
ATOM     22  C   UNL     1      27.034 -22.438 -17.814  0.00  0.00    +0.003 C 
ATOM     23  C   UNL     1      25.793 -21.455 -15.990  0.00  0.00    +0.003 C 
ATOM     24  C   UNL     1      26.039 -21.574 -17.358  0.00  0.00    +0.000 C 
ENDBRANCH  18  19
ENDBRANCH  17  18
ENDBRANCH   5  12
BRANCH   1  25
ATOM     25  C   UNL     1      34.363 -23.127 -18.615  0.00  0.00    +0.088 C 
BRANCH  25  28
ATOM     26  O   UNL     1      36.871 -18.770 -22.289  0.00  0.00    -0.270 OA
ATOM     27  N   UNL     1      35.275 -19.495 -20.760  0.00  0.00    -0.276 N 
ATOM     28  C   UNL     1      34.618 -21.653 -18.922  0.00  0.00    +0.023 C 
ATOM     29  C   UNL     1      36.044 -21.442 -19.447  0.00  0.00    +0.023 C 
ATOM     30  C   UNL     1      33.601 -21.123 -19.943  0.00  0.00    +0.023 C 
ATOM     31  C   UNL     1      36.281 -19.979 -19.811  0.00  0.00    +0.094 C 
ATOM     32  C   UNL     1      33.883 -19.668 -20.319  0.00  0.00    +0.094 C 
ATOM     33  C   UNL     1      35.695 -18.899 -21.948  0.00  0.00    +0.249 C 
BRANCH  33  34
ATOM     34  C   UNL     1      34.657 -18.383 -22.862  0.00  0.00    +0.058 C 
ATOM     35  C   UNL     1      34.364 -19.079 -23.963  0.00  0.00    +0.005 C 
ENDBRANCH  33  34
ENDBRANCH  25  28
ENDBRANCH   1  25
TORSDOF 6
ENDMDL
MODEL 4
REMARK VINA RESULT:      -9.9     12.604     16.194
REMARK  Name = 71479709
REMARK  6 active torsions:
REMARK  status: ('A' for Active; 'I' for Inactive)
REMARK    1  A    between atoms: N_1  and  C_25
REMARK    2  A    between atoms: C_5  and  C_9
REMARK    3  A    between atoms: C_14  and  O_15
REMARK    4  A    between atoms: O_15  and  C_16
REMARK    5  A    between atoms: C_25  and  C_28
REMARK    6  A    between atoms: C_33  and  C_34
REMARK                            x       y       z     vdW  Elec       q    Type
REMARK                         _______ _______ _______ _____ _____    ______ ____
ROOT
ATOM      1  N   UNL     1      34.176 -24.764 -13.137  0.00  0.00    -0.321 N 
ATOM      2  N   UNL     1      34.835 -24.896 -10.897  0.00  0.00    -0.233 NA
ATOM      3  N   UNL     1      36.869 -23.829 -10.166  0.00  0.00    -0.234 NA
ATOM      4  C   UNL     1      35.091 -24.445 -12.142  0.00  0.00    +0.113 C 
ATOM      5  C   UNL     1      36.198 -23.691 -12.473  0.00  0.00    +0.129 C 
ATOM      6  C   UNL     1      37.062 -23.412 -11.434  0.00  0.00    +0.110 C 
ATOM      7  C   UNL     1      35.752 -24.557  -9.971  0.00  0.00    +0.252 C 
ATOM      8  H   UNL     1      34.352 -24.439 -14.050  0.00  0.00    +0.148 HD
ATOM      9  N   UNL     1      38.221 -22.639 -11.698  0.00  0.00    -0.346 N 
ATOM     10  H   UNL     1      38.849 -22.429 -10.968  0.00  0.00    +0.143 HD
ATOM     11  H   UNL     1      38.398 -22.312 -12.609  0.00  0.00    +0.143 HD
ENDROOT
BRANCH   5  12
ATOM     12  C   UNL     1      36.438 -23.222 -13.824  0.00  0.00    -0.009 C 
ATOM     13  C   UNL     1      37.631 -23.541 -14.473  0.00  0.00    -0.000 C 
ATOM     14  C   UNL     1      35.476 -22.450 -14.475  0.00  0.00    -0.000 C 
ATOM     15  C   UNL     1      37.862 -23.088 -15.771  0.00  0.00    +0.037 C 
ATOM     16  C   UNL     1      35.706 -21.997 -15.774  0.00  0.00    +0.037 C 
ATOM     17  C   UNL     1      36.900 -22.316 -16.421  0.00  0.00    +0.145 C 
BRANCH  17  18
ATOM     18  O   UNL     1      37.126 -21.873 -17.689  0.00  0.00    -0.453 OA
BRANCH  18  19
ATOM     19  C   UNL     1      36.024 -21.555 -18.466  0.00  0.00    +0.145 C 
ATOM     20  C   UNL     1      34.812 -22.214 -18.261  0.00  0.00    +0.037 C 
ATOM     21  C   UNL     1      36.127 -20.575 -19.453  0.00  0.00    +0.037 C 
ATOM     22  C   UNL     1      33.703 -21.893 -19.043  0.00  0.00    +0.003 C 
ATOM     23  C   UNL     1      35.018 -20.255 -20.236  0.00  0.00    +0.003 C 
ATOM     24  C   UNL     1      33.805 -20.914 -20.031  0.00  0.00    +0.000 C 
ENDBRANCH  18  19
ENDBRANCH  17  18
ENDBRANCH   5  12
BRANCH   1  25
ATOM     25  C   UNL     1      32.987 -25.543 -12.913  0.00  0.00    +0.088 C 
BRANCH  25  28
ATOM     26  O   UNL     1      29.590 -21.898 -16.649  0.00  0.00    -0.270 OA
ATOM     27  N   UNL     1      29.806 -23.377 -14.866  0.00  0.00    -0.276 N 
ATOM     28  C   UNL     1      31.751 -24.673 -13.133  0.00  0.00    +0.023 C 
ATOM     29  C   UNL     1      32.101 -23.423 -13.951  0.00  0.00    +0.023 C 
ATOM     30  C   UNL     1      30.643 -25.467 -13.838  0.00  0.00    +0.023 C 
ATOM     31  C   UNL     1      30.856 -22.583 -14.224  0.00  0.00    +0.094 C 
ATOM     32  C   UNL     1      29.422 -24.594 -14.133  0.00  0.00    +0.094 C 
ATOM     33  C   UNL     1      29.246 -22.923 -16.058  0.00  0.00    +0.249 C 
BRANCH  33  34
ATOM     34  C   UNL     1      28.160 -23.724 -16.657  0.00  0.00    +0.058 C 
ATOM     35  C   UNL     1      27.144 -23.091 -17.249  0.00  0.00    +0.005 C 
ENDBRANCH  33  34
ENDBRANCH  25  28
ENDBRANCH   1  25
TORSDOF 6
ENDMDL
MODEL 5
REMARK VINA RESULT:      -9.8      1.234      1.756
REMARK  Name = 71479709
REMARK  6 active torsions:
REMARK  status: ('A' for Active; 'I' for Inactive)
REMARK    1  A    between atoms: N_1  and  C_25
REMARK    2  A    between atoms: C_5  and  C_9
REMARK    3  A    between atoms: C_14  and  O_15
REMARK    4  A    between atoms: O_15  and  C_16
REMARK    5  A    between atoms: C_25  and  C_28
REMARK    6  A    between atoms: C_33  and  C_34
REMARK                            x       y       z     vdW  Elec       q    Type
REMARK                         _______ _______ _______ _____ _____    ______ ____
ROOT
ATOM      1  N   UNL     1      32.505 -10.534 -22.475  0.00  0.00    -0.321 N 
ATOM      2  N   UNL     1      31.735 -10.391 -20.271  0.00  0.00    -0.233 NA
ATOM      3  N   UNL     1      31.821  -8.291 -19.090  0.00  0.00    -0.234 NA
ATOM      4  C   UNL     1      32.279  -9.770 -21.338  0.00  0.00    +0.113 C 
ATOM      5  C   UNL     1      32.617  -8.432 -21.358  0.00  0.00    +0.129 C 
ATOM      6  C   UNL     1      32.364  -7.736 -20.194  0.00  0.00    +0.110 C 
ATOM      7  C   UNL     1      31.536  -9.603 -19.197  0.00  0.00    +0.252 C 
ATOM      8  H   UNL     1      32.902 -10.091 -23.260  0.00  0.00    +0.148 HD
ATOM      9  N   UNL     1      32.682  -6.355 -20.140  0.00  0.00    -0.346 N 
ATOM     10  H   UNL     1      32.508  -5.841 -19.318  0.00  0.00    +0.143 HD
ATOM     11  H   UNL     1      33.078  -5.911 -20.924  0.00  0.00    +0.143 HD
ENDROOT
BRANCH   5  12
ATOM     12  C   UNL     1      33.199  -7.799 -22.525  0.00  0.00    -0.009 C 
ATOM     13  C   UNL     1      34.583  -7.643 -22.618  0.00  0.00    -0.000 C 
ATOM     14  C   UNL     1      32.377  -7.345 -23.556  0.00  0.00    -0.000 C 
ATOM     15  C   UNL     1      35.142  -7.033 -23.740  0.00  0.00    +0.037 C 
ATOM     16  C   UNL     1      32.936  -6.735 -24.678  0.00  0.00    +0.037 C 
ATOM     17  C   UNL     1      34.319  -6.579 -24.769  0.00  0.00    +0.145 C 
BRANCH  17  18
ATOM     18  O   UNL     1      34.865  -5.981 -25.864  0.00  0.00    -0.453 OA
BRANCH  18  19
ATOM     19  C   UNL     1      34.008  -5.344 -26.746  0.00  0.00    +0.145 C 
ATOM     20  C   UNL     1      33.409  -4.136 -26.387  0.00  0.00    +0.037 C 
ATOM     21  C   UNL     1      33.743  -5.910 -27.992  0.00  0.00    +0.037 C 
ATOM     22  C   UNL     1      32.547  -3.494 -27.276  0.00  0.00    +0.003 C 
ATOM     23  C   UNL     1      32.880  -5.269 -28.881  0.00  0.00    +0.003 C 
ATOM     24  C   UNL     1      32.281  -4.061 -28.522  0.00  0.00    +0.000 C 
ENDBRANCH  18  19
ENDBRANCH  17  18
ENDBRANCH   5  12
BRANCH   1  25
ATOM     25  C   UNL     1      32.195 -11.936 -22.573  0.00  0.00    +0.088 C 
BRANCH  25  28
ATOM     26  O   UNL     1      35.065 -17.110 -20.631  0.00  0.00    -0.270 OA
ATOM     27  N   UNL     1      34.870 -15.284 -22.058  0.00  0.00    -0.276 N 
ATOM     28  C   UNL     1      33.475 -12.758 -22.437  0.00  0.00    +0.023 C 
ATOM     29  C   UNL     1      33.536 -13.453 -21.070  0.00  0.00    +0.023 C 
ATOM     30  C   UNL     1      33.577 -13.801 -23.559  0.00  0.00    +0.023 C 
ATOM     31  C   UNL     1      34.785 -14.323 -20.956  0.00  0.00    +0.094 C 
ATOM     32  C   UNL     1      34.816 -14.683 -23.400  0.00  0.00    +0.094 C 
ATOM     33  C   UNL     1      35.024 -16.638 -21.768  0.00  0.00    +0.249 C 
BRANCH  33  34
ATOM     34  C   UNL     1      35.150 -17.574 -22.901  0.00  0.00    +0.058 C 
ATOM     35  C   UNL     1      35.223 -18.883 -22.651  0.00  0.00    +0.005 C 
ENDBRANCH  33  34
ENDBRANCH  25  28
ENDBRANCH   1  25
TORSDOF 6
ENDMDL
MODEL 6
REMARK VINA RESULT:      -9.4     10.989     14.846
REMARK  Name = 71479709
REMARK  6 active torsions:
REMARK  status: ('A' for Active; 'I' for Inactive)
REMARK    1  A    between atoms: N_1  and  C_25
REMARK    2  A    between atoms: C_5  and  C_9
REMARK    3  A    between atoms: C_14  and  O_15
REMARK    4  A    between atoms: O_15  and  C_16
REMARK    5  A    between atoms: C_25  and  C_28
REMARK    6  A    between atoms: C_33  and  C_34
REMARK                            x       y       z     vdW  Elec       q    Type
REMARK                         _______ _______ _______ _____ _____    ______ ____
ROOT
ATOM      1  N   UNL     1      33.723 -23.263 -14.241  0.00  0.00    -0.321 N 
ATOM      2  N   UNL     1      35.322 -23.879 -12.649  0.00  0.00    -0.233 NA
ATOM      3  N   UNL     1      37.664 -23.877 -13.218  0.00  0.00    -0.234 NA
ATOM      4  C   UNL     1      35.055 -23.469 -13.906  0.00  0.00    +0.113 C 
ATOM      5  C   UNL     1      36.024 -23.243 -14.862  0.00  0.00    +0.129 C 
ATOM      6  C   UNL     1      37.324 -23.467 -14.457  0.00  0.00    +0.110 C 
ATOM      7  C   UNL     1      36.628 -24.062 -12.377  0.00  0.00    +0.252 C 
ATOM      8  H   UNL     1      33.516 -22.963 -15.156  0.00  0.00    +0.148 HD
ATOM      9  N   UNL     1      38.375 -23.254 -15.386  0.00  0.00    -0.346 N 
ATOM     10  H   UNL     1      39.309 -23.408 -15.115  0.00  0.00    +0.143 HD
ATOM     11  H   UNL     1      38.170 -22.952 -16.300  0.00  0.00    +0.143 HD
ENDROOT
BRANCH   5  12
ATOM     12  C   UNL     1      35.698 -22.800 -16.203  0.00  0.00    -0.009 C 
ATOM     13  C   UNL     1      34.490 -23.180 -16.789  0.00  0.00    -0.000 C 
ATOM     14  C   UNL     1      36.592 -21.995 -16.909  0.00  0.00    -0.000 C 
ATOM     15  C   UNL     1      34.177 -22.755 -18.080  0.00  0.00    +0.037 C 
ATOM     16  C   UNL     1      36.279 -21.569 -18.199  0.00  0.00    +0.037 C 
ATOM     17  C   UNL     1      35.071 -21.950 -18.785  0.00  0.00    +0.145 C 
BRANCH  17  18
ATOM     18  O   UNL     1      34.767 -21.536 -20.046  0.00  0.00    -0.453 OA
BRANCH  18  19
ATOM     19  C   UNL     1      35.297 -20.331 -20.474  0.00  0.00    +0.145 C 
ATOM     20  C   UNL     1      36.672 -20.106 -20.399  0.00  0.00    +0.037 C 
ATOM     21  C   UNL     1      34.456 -19.341 -20.982  0.00  0.00    +0.037 C 
ATOM     22  C   UNL     1      37.205 -18.893 -20.832  0.00  0.00    +0.003 C 
ATOM     23  C   UNL     1      34.989 -18.126 -21.413  0.00  0.00    +0.003 C 
ATOM     24  C   UNL     1      36.364 -17.902 -21.338  0.00  0.00    +0.000 C 
ENDBRANCH  18  19
ENDBRANCH  17  18
ENDBRANCH   5  12
BRANCH   1  25
ATOM     25  C   UNL     1      32.627 -23.465 -13.331  0.00  0.00    +0.088 C 
BRANCH  25  28
ATOM     26  O   UNL     1      26.624 -22.726 -14.812  0.00  0.00    -0.270 OA
ATOM     27  N   UNL     1      28.779 -23.460 -15.286  0.00  0.00    -0.276 N 
ATOM     28  C   UNL     1      31.395 -23.934 -14.102  0.00  0.00    +0.023 C 
ATOM     29  C   UNL     1      30.129 -23.802 -13.245  0.00  0.00    +0.023 C 
ATOM     30  C   UNL     1      31.230 -23.139 -15.405  0.00  0.00    +0.023 C 
ATOM     31  C   UNL     1      28.890 -24.213 -14.034  0.00  0.00    +0.094 C 
ATOM     32  C   UNL     1      29.962 -23.544 -16.157  0.00  0.00    +0.094 C 
ATOM     33  C   UNL     1      27.598 -22.777 -15.565  0.00  0.00    +0.249 C 
BRANCH  33  34
ATOM     34  C   UNL     1      27.503 -22.065 -16.854  0.00  0.00    +0.058 C 
ATOM     35  C   UNL     1      26.319 -21.583 -17.238  0.00  0.00    +0.005 C 
ENDBRANCH  33  34
ENDBRANCH  25  28
ENDBRANCH   1  25
TORSDOF 6
ENDMDL
MODEL 7
REMARK VINA RESULT:      -9.4     10.041     16.367
REMARK  Name = 71479709
REMARK  6 active torsions:
REMARK  status: ('A' for Active; 'I' for Inactive)
REMARK    1  A    between atoms: N_1  and  C_25
REMARK    2  A    between atoms: C_5  and  C_9
REMARK    3  A    between atoms: C_14  and  O_15
REMARK    4  A    between atoms: O_15  and  C_16
REMARK    5  A    between atoms: C_25  and  C_28
REMARK    6  A    between atoms: C_33  and  C_34
REMARK                            x       y       z     vdW  Elec       q    Type
REMARK                         _______ _______ _______ _____ _____    ______ ____
ROOT
ATOM      1  N   UNL     1      33.717 -23.068 -17.253  0.00  0.00    -0.321 N 
ATOM      2  N   UNL     1      31.406 -22.718 -17.152  0.00  0.00    -0.233 NA
ATOM      3  N   UNL     1      30.255 -22.822 -15.037  0.00  0.00    -0.234 NA
ATOM      4  C   UNL     1      32.554 -22.988 -16.497  0.00  0.00    +0.113 C 
ATOM      5  C   UNL     1      32.633 -23.184 -15.133  0.00  0.00    +0.129 C 
ATOM      6  C   UNL     1      31.439 -23.089 -14.448  0.00  0.00    +0.110 C 
ATOM      7  C   UNL     1      30.310 -22.650 -16.371  0.00  0.00    +0.252 C 
ATOM      8  H   UNL     1      34.561 -23.264 -16.786  0.00  0.00    +0.148 HD
ATOM      9  N   UNL     1      31.441 -23.276 -13.042  0.00  0.00    -0.346 N 
ATOM     10  H   UNL     1      30.599 -23.211 -12.536  0.00  0.00    +0.143 HD
ATOM     11  H   UNL     1      32.285 -23.471 -12.574  0.00  0.00    +0.143 HD
ENDROOT
BRANCH   5  12
ATOM     12  C   UNL     1      33.887 -23.471 -14.465  0.00  0.00    -0.009 C 
ATOM     13  C   UNL     1      34.053 -24.673 -13.778  0.00  0.00    -0.000 C 
ATOM     14  C   UNL     1      34.928 -22.544 -14.508  0.00  0.00    -0.000 C 
ATOM     15  C   UNL     1      35.258 -24.948 -13.133  0.00  0.00    +0.037 C 
ATOM     16  C   UNL     1      36.134 -22.818 -13.864  0.00  0.00    +0.037 C 
ATOM     17  C   UNL     1      36.298 -24.020 -13.176  0.00  0.00    +0.145 C 
BRANCH  17  18
ATOM     18  O   UNL     1      37.475 -24.288 -12.546  0.00  0.00    -0.453 OA
BRANCH  18  19
ATOM     19  C   UNL     1      38.505 -24.820 -13.303  0.00  0.00    +0.145 C 
ATOM     20  C   UNL     1      38.803 -24.281 -14.554  0.00  0.00    +0.037 C 
ATOM     21  C   UNL     1      39.246 -25.896 -12.814  0.00  0.00    +0.037 C 
ATOM     22  C   UNL     1      39.841 -24.817 -15.316  0.00  0.00    +0.003 C 
ATOM     23  C   UNL     1      40.283 -26.433 -13.576  0.00  0.00    +0.003 C 
ATOM     24  C   UNL     1      40.581 -25.893 -14.827  0.00  0.00    +0.000 C 
ENDBRANCH  18  19
ENDBRANCH  17  18
ENDBRANCH   5  12
BRANCH   1  25
ATOM     25  C   UNL     1      33.759 -22.883 -18.680  0.00  0.00    +0.088 C 
BRANCH  25  28
ATOM     26  O   UNL     1      36.938 -19.002 -22.369  0.00  0.00    -0.270 OA
ATOM     27  N   UNL     1      35.230 -19.460 -20.858  0.00  0.00    -0.276 N 
ATOM     28  C   UNL     1      34.233 -21.467 -19.002  0.00  0.00    +0.023 C 
ATOM     29  C   UNL     1      35.683 -21.477 -19.505  0.00  0.00    +0.023 C 
ATOM     30  C   UNL     1      33.322 -20.810 -20.047  0.00  0.00    +0.023 C 
ATOM     31  C   UNL     1      36.139 -20.071 -19.886  0.00  0.00    +0.094 C 
ATOM     32  C   UNL     1      33.821 -19.418 -20.438  0.00  0.00    +0.094 C 
ATOM     33  C   UNL     1      35.751 -18.951 -22.046  0.00  0.00    +0.249 C 
BRANCH  33  34
ATOM     34  C   UNL     1      34.815 -18.302 -22.985  0.00  0.00    +0.058 C 
ATOM     35  C   UNL     1      34.260 -19.036 -23.952  0.00  0.00    +0.005 C 
ENDBRANCH  33  34
ENDBRANCH  25  28
ENDBRANCH   1  25
TORSDOF 6
ENDMDL
MODEL 8
REMARK VINA RESULT:      -8.8      2.808      9.337
REMARK  Name = 71479709
REMARK  6 active torsions:
REMARK  status: ('A' for Active; 'I' for Inactive)
REMARK    1  A    between atoms: N_1  and  C_25
REMARK    2  A    between atoms: C_5  and  C_9
REMARK    3  A    between atoms: C_14  and  O_15
REMARK    4  A    between atoms: O_15  and  C_16
REMARK    5  A    between atoms: C_25  and  C_28
REMARK    6  A    between atoms: C_33  and  C_34
REMARK                            x       y       z     vdW  Elec       q    Type
REMARK                         _______ _______ _______ _____ _____    ______ ____
ROOT
ATOM      1  N   UNL     1      32.138  -6.984 -24.065  0.00  0.00    -0.321 N 
ATOM      2  N   UNL     1      32.282  -5.350 -22.397  0.00  0.00    -0.233 NA
ATOM      3  N   UNL     1      32.681  -5.985 -20.107  0.00  0.00    -0.234 NA
ATOM      4  C   UNL     1      32.321  -6.657 -22.727  0.00  0.00    +0.113 C 
ATOM      5  C   UNL     1      32.534  -7.673 -21.817  0.00  0.00    +0.129 C 
ATOM      6  C   UNL     1      32.708  -7.273 -20.508  0.00  0.00    +0.110 C 
ATOM      7  C   UNL     1      32.467  -5.089 -21.089  0.00  0.00    +0.252 C 
ATOM      8  H   UNL     1      32.165  -7.935 -24.317  0.00  0.00    +0.148 HD
ATOM      9  N   UNL     1      32.934  -8.261 -19.516  0.00  0.00    -0.346 N 
ATOM     10  H   UNL     1      33.062  -7.995 -18.577  0.00  0.00    +0.143 HD
ATOM     11  H   UNL     1      32.963  -9.212 -19.768  0.00  0.00    +0.143 HD
ENDROOT
BRANCH   5  12
ATOM     12  C   UNL     1      32.571  -9.067 -22.211  0.00  0.00    -0.009 C 
ATOM     13  C   UNL     1      31.536  -9.926 -21.841  0.00  0.00    -0.000 C 
ATOM     14  C   UNL     1      33.644  -9.552 -22.959  0.00  0.00    -0.000 C 
ATOM     15  C   UNL     1      31.574 -11.267 -22.218  0.00  0.00    +0.037 C 
ATOM     16  C   UNL     1      33.682 -10.894 -23.337  0.00  0.00    +0.037 C 
ATOM     17  C   UNL     1      32.646 -11.752 -22.966  0.00  0.00    +0.145 C 
BRANCH  17  18
ATOM     18  O   UNL     1      32.684 -13.062 -23.333  0.00  0.00    -0.453 OA
BRANCH  18  19
ATOM     19  C   UNL     1      33.426 -13.930 -22.550  0.00  0.00    +0.145 C 
ATOM     20  C   UNL     1      33.378 -13.830 -21.159  0.00  0.00    +0.037 C 
ATOM     21  C   UNL     1      34.221 -14.905 -23.151  0.00  0.00    +0.037 C 
ATOM     22  C   UNL     1      34.125 -14.705 -20.370  0.00  0.00    +0.003 C 
ATOM     23  C   UNL     1      34.969 -15.779 -22.362  0.00  0.00    +0.003 C 
ATOM     24  C   UNL     1      34.921 -15.679 -20.972  0.00  0.00    +0.000 C 
ENDBRANCH  18  19
ENDBRANCH  17  18
ENDBRANCH   5  12
BRANCH   1  25
ATOM     25  C   UNL     1      31.909  -6.014 -25.103  0.00  0.00    +0.088 C 
BRANCH  25  28
ATOM     26  O   UNL     1      36.107  -2.923 -28.508  0.00  0.00    -0.270 OA
ATOM     27  N   UNL     1      35.394  -4.806 -27.344  0.00  0.00    -0.276 N 
ATOM     28  C   UNL     1      33.070  -6.034 -26.094  0.00  0.00    +0.023 C 
ATOM     29  C   UNL     1      32.935  -4.900 -27.119  0.00  0.00    +0.023 C 
ATOM     30  C   UNL     1      34.415  -5.920 -25.362  0.00  0.00    +0.023 C 
ATOM     31  C   UNL     1      34.126  -4.881 -28.073  0.00  0.00    +0.094 C 
ATOM     32  C   UNL     1      35.588  -5.866 -26.342  0.00  0.00    +0.094 C 
ATOM     33  C   UNL     1      36.301  -3.798 -27.663  0.00  0.00    +0.249 C 
BRANCH  33  34
ATOM     34  C   UNL     1      37.587  -3.777 -26.939  0.00  0.00    +0.058 C 
ATOM     35  C   UNL     1      38.675  -4.259 -27.545  0.00  0.00    +0.005 C 
ENDBRANCH  33  34
ENDBRANCH  25  28
ENDBRANCH   1  25
TORSDOF 6
ENDMDL
MODEL 9
REMARK VINA RESULT:      -8.4      2.206     10.582
REMARK  Name = 71479709
REMARK  6 active torsions:
REMARK  status: ('A' for Active; 'I' for Inactive)
REMARK    1  A    between atoms: N_1  and  C_25
REMARK    2  A    between atoms: C_5  and  C_9
REMARK    3  A    between atoms: C_14  and  O_15
REMARK    4  A    between atoms: O_15  and  C_16
REMARK    5  A    between atoms: C_25  and  C_28
REMARK    6  A    between atoms: C_33  and  C_34
REMARK                            x       y       z     vdW  Elec       q    Type
REMARK                         _______ _______ _______ _____ _____    ______ ____
ROOT
ATOM      1  N   UNL     1      34.179 -12.322 -23.235  0.00  0.00    -0.321 N 
ATOM      2  N   UNL     1      32.506 -11.148 -22.098  0.00  0.00    -0.233 NA
ATOM      3  N   UNL     1      31.371 -12.159 -20.227  0.00  0.00    -0.234 NA
ATOM      4  C   UNL     1      33.234 -12.277 -22.218  0.00  0.00    +0.113 C 
ATOM      5  C   UNL     1      33.091 -13.374 -21.393  0.00  0.00    +0.129 C 
ATOM      6  C   UNL     1      32.134 -13.257 -20.406  0.00  0.00    +0.110 C 
ATOM      7  C   UNL     1      31.606 -11.157 -21.095  0.00  0.00    +0.252 C 
ATOM      8  H   UNL     1      34.716 -13.142 -23.332  0.00  0.00    +0.148 HD
ATOM      9  N   UNL     1      31.932 -14.344 -19.517  0.00  0.00    -0.346 N 
ATOM     10  H   UNL     1      31.255 -14.278 -18.806  0.00  0.00    +0.143 HD
ATOM     11  H   UNL     1      32.470 -15.163 -19.612  0.00  0.00    +0.143 HD
ENDROOT
BRANCH   5  12
ATOM     12  C   UNL     1      33.894 -14.570 -21.553  0.00  0.00    -0.009 C 
ATOM     13  C   UNL     1      34.447 -15.195 -20.434  0.00  0.00    -0.000 C 
ATOM     14  C   UNL     1      34.116 -15.097 -22.825  0.00  0.00    -0.000 C 
ATOM     15  C   UNL     1      35.221 -16.344 -20.589  0.00  0.00    +0.037 C 
ATOM     16  C   UNL     1      34.890 -16.246 -22.980  0.00  0.00    +0.037 C 
ATOM     17  C   UNL     1      35.443 -16.870 -21.861  0.00  0.00    +0.145 C 
BRANCH  17  18
ATOM     18  O   UNL     1      36.200 -17.991 -22.012  0.00  0.00    -0.453 OA
BRANCH  18  19
ATOM     19  C   UNL     1      35.977 -19.042 -21.138  0.00  0.00    +0.145 C 
ATOM     20  C   UNL     1      34.717 -19.637 -21.068  0.00  0.00    +0.037 C 
ATOM     21  C   UNL     1      37.013 -19.506 -20.327  0.00  0.00    +0.037 C 
ATOM     22  C   UNL     1      34.493 -20.695 -20.188  0.00  0.00    +0.003 C 
ATOM     23  C   UNL     1      36.789 -20.564 -19.447  0.00  0.00    +0.003 C 
ATOM     24  C   UNL     1      35.529 -21.159 -19.377  0.00  0.00    +0.000 C 
ENDBRANCH  18  19
ENDBRANCH  17  18
ENDBRANCH   5  12
BRANCH   1  25
ATOM     25  C   UNL     1      34.417 -11.243 -24.156  0.00  0.00    +0.088 C 
BRANCH  25  28
ATOM     26  O   UNL     1      33.991  -5.034 -24.377  0.00  0.00    -0.270 OA
ATOM     27  N   UNL     1      33.149  -7.131 -23.825  0.00  0.00    -0.276 N 
ATOM     28  C   UNL     1      33.864  -9.941 -23.580  0.00  0.00    +0.023 C 
ATOM     29  C   UNL     1      34.926  -8.834 -23.610  0.00  0.00    +0.023 C 
ATOM     30  C   UNL     1      32.616  -9.490 -24.351  0.00  0.00    +0.023 C 
ATOM     31  C   UNL     1      34.357  -7.517 -23.091  0.00  0.00    +0.094 C 
ATOM     32  C   UNL     1      32.087  -8.150 -23.837  0.00  0.00    +0.094 C 
ATOM     33  C   UNL     1      33.083  -5.866 -24.404  0.00  0.00    +0.249 C 
BRANCH  33  34
ATOM     34  C   UNL     1      31.835  -5.492 -25.099  0.00  0.00    +0.058 C 
ATOM     35  C   UNL     1      30.938  -4.742 -24.454  0.00  0.00    +0.005 C 
ENDBRANCH  33  34
ENDBRANCH  25  28
ENDBRANCH   1  25
TORSDOF 6
ENDMDL
