MODEL 1
REMARK VINA RESULT:     -12.0      0.000      0.000
REMARK  Name = 9969613
REMARK  5 active torsions:
REMARK  status: ('A' for Active; 'I' for Inactive)
REMARK    1  A    between atoms: C_3  and  O_7
REMARK    2  A    between atoms: C_4  and  O_17
REMARK    3  A    between atoms: O_7  and  C_13
REMARK    4  A    between atoms: O_17  and  C_21
REMARK    5  A    between atoms: C_18  and  N_24
REMARK                            x       y       z     vdW  Elec       q    Type
REMARK                         _______ _______ _______ _____ _____    ______ ____
ROOT
ATOM      1  N   UNL     1      34.659 -23.218 -16.272  0.00  0.00    -0.283 NA
ATOM      2  N   UNL     1      32.289 -23.188 -16.712  0.00  0.00    -0.151 NA
ATOM      3  C   UNL     1      34.367 -23.065 -14.970  0.00  0.00    +0.296 C 
ATOM      4  C   UNL     1      33.582 -23.271 -17.080  0.00  0.00    +0.260 C 
ATOM      5  C   UNL     1      33.099 -22.967 -14.456  0.00  0.00    +0.094 C 
ATOM      6  C   UNL     1      32.083 -23.036 -15.386  0.00  0.00    +0.119 C 
ENDROOT
BRANCH   3   7
ATOM      7  O   UNL     1      35.443 -23.004 -14.100  0.00  0.00    -0.427 OA
BRANCH   7  13
ATOM      8  O   UNL     1      39.980 -24.622 -14.329  0.00  0.00    -0.435 OA
ATOM      9  O   UNL     1      39.251 -26.918 -14.363  0.00  0.00    -0.435 OA
ATOM     10  C   UNL     1      38.626 -24.734 -14.278  0.00  0.00    +0.179 C 
ATOM     11  C   UNL     1      38.208 -26.046 -14.296  0.00  0.00    +0.177 C 
ATOM     12  C   UNL     1      37.728 -23.689 -14.212  0.00  0.00    +0.078 C 
ATOM     13  C   UNL     1      36.367 -24.003 -14.165  0.00  0.00    +0.151 C 
ATOM     14  C   UNL     1      36.871 -26.383 -14.251  0.00  0.00    +0.043 C 
ATOM     15  C   UNL     1      40.370 -26.008 -14.383  0.00  0.00    +0.429 C 
ATOM     16  C   UNL     1      35.941 -25.342 -14.186  0.00  0.00    +0.041 C 
ENDBRANCH   7  13
ENDBRANCH   3   7
BRANCH   4  17
ATOM     17  O   UNL     1      33.829 -23.428 -18.424  0.00  0.00    -0.383 OA
BRANCH  17  21
ATOM     18  C   UNL     1      34.665 -19.998 -20.607  0.00  0.00    +0.057 C 
ATOM     19  C   UNL     1      35.704 -20.831 -20.193  0.00  0.00    +0.018 C 
ATOM     20  C   UNL     1      33.345 -20.317 -20.288  0.00  0.00    +0.018 C 
ATOM     21  C   UNL     1      34.106 -22.289 -19.149  0.00  0.00    +0.160 C 
ATOM     22  C   UNL     1      35.422 -21.984 -19.459  0.00  0.00    +0.040 C 
ATOM     23  C   UNL     1      33.064 -21.470 -19.554  0.00  0.00    +0.040 C 
BRANCH  18  24
ATOM     24  N   UNL     1      34.943 -18.855 -21.335  0.00  0.00    -0.246 N 
ATOM     25  N   UNL     1      35.458 -16.732 -21.776  0.00  0.00    -0.224 NA
ATOM     26  C   UNL     1      34.979 -18.745 -22.702  0.00  0.00    +0.092 C 
ATOM     27  C   UNL     1      35.239 -17.616 -20.827  0.00  0.00    +0.172 C 
ATOM     28  C   UNL     1      35.298 -17.430 -22.947  0.00  0.00    +0.117 C 
ENDBRANCH  18  24
ENDBRANCH  17  21
ENDBRANCH   4  17
TORSDOF 5
ENDMDL
MODEL 2
REMARK VINA RESULT:     -11.7      4.373      8.292
REMARK  Name = 9969613
REMARK  5 active torsions:
REMARK  status: ('A' for Active; 'I' for Inactive)
REMARK    1  A    between atoms: C_3  and  O_7
REMARK    2  A    between atoms: C_4  and  O_17
REMARK    3  A    between atoms: O_7  and  C_13
REMARK    4  A    between atoms: O_17  and  C_21
REMARK    5  A    between atoms: C_18  and  N_24
REMARK                            x       y       z     vdW  Elec       q    Type
REMARK                         _______ _______ _______ _____ _____    ______ ____
ROOT
ATOM      1  N   UNL     1      35.483 -17.476 -22.611  0.00  0.00    -0.283 NA
ATOM      2  N   UNL     1      34.202 -17.620 -24.648  0.00  0.00    -0.151 NA
ATOM      3  C   UNL     1      35.263 -18.789 -22.439  0.00  0.00    +0.296 C 
ATOM      4  C   UNL     1      34.930 -16.960 -23.725  0.00  0.00    +0.260 C 
ATOM      5  C   UNL     1      34.542 -19.583 -23.296  0.00  0.00    +0.094 C 
ATOM      6  C   UNL     1      34.028 -18.936 -24.401  0.00  0.00    +0.119 C 
ENDROOT
BRANCH   3   7
ATOM      7  O   UNL     1      35.813 -19.364 -21.306  0.00  0.00    -0.427 OA
BRANCH   7  13
ATOM      8  O   UNL     1      34.988 -22.879 -18.109  0.00  0.00    -0.435 OA
ATOM      9  O   UNL     1      32.627 -22.402 -18.065  0.00  0.00    -0.435 OA
ATOM     10  C   UNL     1      34.654 -21.850 -18.934  0.00  0.00    +0.179 C 
ATOM     11  C   UNL     1      33.305 -21.576 -18.908  0.00  0.00    +0.177 C 
ATOM     12  C   UNL     1      35.525 -21.130 -19.725  0.00  0.00    +0.078 C 
ATOM     13  C   UNL     1      34.992 -20.103 -20.509  0.00  0.00    +0.151 C 
ATOM     14  C   UNL     1      32.753 -20.569 -19.673  0.00  0.00    +0.043 C 
ATOM     15  C   UNL     1      33.700 -23.224 -17.562  0.00  0.00    +0.429 C 
ATOM     16  C   UNL     1      33.615 -19.825 -20.484  0.00  0.00    +0.041 C 
ENDBRANCH   7  13
ENDBRANCH   3   7
BRANCH   4  17
ATOM     17  O   UNL     1      35.128 -15.617 -23.946  0.00  0.00    -0.383 OA
BRANCH  17  21
ATOM     18  C   UNL     1      32.863 -12.971 -21.688  0.00  0.00    +0.057 C 
ATOM     19  C   UNL     1      32.660 -13.064 -23.065  0.00  0.00    +0.018 C 
ATOM     20  C   UNL     1      33.827 -13.768 -21.070  0.00  0.00    +0.018 C 
ATOM     21  C   UNL     1      34.376 -14.739 -23.196  0.00  0.00    +0.160 C 
ATOM     22  C   UNL     1      33.421 -13.954 -23.823  0.00  0.00    +0.040 C 
ATOM     23  C   UNL     1      34.588 -14.657 -21.829  0.00  0.00    +0.040 C 
BRANCH  18  24
ATOM     24  N   UNL     1      32.108 -12.090 -20.936  0.00  0.00    -0.246 N 
ATOM     25  N   UNL     1      31.380 -10.943 -19.169  0.00  0.00    -0.224 NA
ATOM     26  C   UNL     1      31.080 -11.302 -21.387  0.00  0.00    +0.092 C 
ATOM     27  C   UNL     1      32.247 -11.834 -19.595  0.00  0.00    +0.172 C 
ATOM     28  C   UNL     1      30.649 -10.607 -20.281  0.00  0.00    +0.117 C 
ENDBRANCH  18  24
ENDBRANCH  17  21
ENDBRANCH   4  17
TORSDOF 5
ENDMDL
MODEL 3
REMARK VINA RESULT:     -11.7      2.796      5.485
REMARK  Name = 9969613
REMARK  5 active torsions:
REMARK  status: ('A' for Active; 'I' for Inactive)
REMARK    1  A    between atoms: C_3  and  O_7
REMARK    2  A    between atoms: C_4  and  O_17
REMARK    3  A    between atoms: O_7  and  C_13
REMARK    4  A    between atoms: O_17  and  C_21
REMARK    5  A    between atoms: C_18  and  N_24
REMARK                            x       y       z     vdW  Elec       q    Type
REMARK                         _______ _______ _______ _____ _____    ______ ____
ROOT
ATOM      1  N   UNL     1      33.502 -23.442 -16.161  0.00  0.00    -0.283 NA
ATOM      2  N   UNL     1      35.753 -22.676 -16.554  0.00  0.00    -0.151 NA
ATOM      3  C   UNL     1      33.734 -23.293 -14.847  0.00  0.00    +0.296 C 
ATOM      4  C   UNL     1      34.544 -23.118 -16.950  0.00  0.00    +0.260 C 
ATOM      5  C   UNL     1      34.915 -22.853 -14.304  0.00  0.00    +0.094 C 
ATOM      6  C   UNL     1      35.905 -22.554 -15.217  0.00  0.00    +0.119 C 
ENDROOT
BRANCH   3   7
ATOM      7  O   UNL     1      32.690 -23.614 -13.995  0.00  0.00    -0.427 OA
BRANCH   7  13
ATOM      8  O   UNL     1      28.875 -22.123 -16.540  0.00  0.00    -0.435 OA
ATOM      9  O   UNL     1      27.752 -24.236 -16.257  0.00  0.00    -0.435 OA
ATOM     10  C   UNL     1      29.610 -23.005 -15.809  0.00  0.00    +0.179 C 
ATOM     11  C   UNL     1      28.970 -24.213 -15.648  0.00  0.00    +0.177 C 
ATOM     12  C   UNL     1      30.858 -22.768 -15.270  0.00  0.00    +0.078 C 
ATOM     13  C   UNL     1      31.459 -23.802 -14.546  0.00  0.00    +0.151 C 
ATOM     14  C   UNL     1      29.541 -25.249 -14.938  0.00  0.00    +0.043 C 
ATOM     15  C   UNL     1      27.700 -22.910 -16.820  0.00  0.00    +0.429 C 
ATOM     16  C   UNL     1      30.804 -25.034 -14.380  0.00  0.00    +0.041 C 
ENDBRANCH   7  13
ENDBRANCH   3   7
BRANCH   4  17
ATOM     17  O   UNL     1      34.354 -23.253 -18.306  0.00  0.00    -0.383 OA
BRANCH  17  21
ATOM     18  C   UNL     1      34.862 -19.856 -20.637  0.00  0.00    +0.057 C 
ATOM     19  C   UNL     1      35.971 -20.608 -20.248  0.00  0.00    +0.018 C 
ATOM     20  C   UNL     1      33.582 -20.246 -20.242  0.00  0.00    +0.018 C 
ATOM     21  C   UNL     1      34.523 -22.125 -19.080  0.00  0.00    +0.160 C 
ATOM     22  C   UNL     1      35.800 -21.749 -19.465  0.00  0.00    +0.040 C 
ATOM     23  C   UNL     1      33.412 -21.388 -19.459  0.00  0.00    +0.040 C 
BRANCH  18  24
ATOM     24  N   UNL     1      35.031 -18.724 -21.413  0.00  0.00    -0.246 N 
ATOM     25  N   UNL     1      35.163 -17.435 -23.226  0.00  0.00    -0.224 NA
ATOM     26  C   UNL     1      35.299 -17.457 -20.963  0.00  0.00    +0.092 C 
ATOM     27  C   UNL     1      34.959 -18.655 -22.781  0.00  0.00    +0.172 C 
ATOM     28  C   UNL     1      35.376 -16.683 -22.098  0.00  0.00    +0.117 C 
ENDBRANCH  18  24
ENDBRANCH  17  21
ENDBRANCH   4  17
TORSDOF 5
ENDMDL
MODEL 4
REMARK VINA RESULT:     -11.7      0.892      1.445
REMARK  Name = 9969613
REMARK  5 active torsions:
REMARK  status: ('A' for Active; 'I' for Inactive)
REMARK    1  A    between atoms: C_3  and  O_7
REMARK    2  A    between atoms: C_4  and  O_17
REMARK    3  A    between atoms: O_7  and  C_13
REMARK    4  A    between atoms: O_17  and  C_21
REMARK    5  A    between atoms: C_18  and  N_24
REMARK                            x       y       z     vdW  Elec       q    Type
REMARK                         _______ _______ _______ _____ _____    ______ ____
ROOT
ATOM      1  N   UNL     1      35.192 -22.990 -16.651  0.00  0.00    -0.283 NA
ATOM      2  N   UNL     1      33.053 -22.820 -17.749  0.00  0.00    -0.151 NA
ATOM      3  C   UNL     1      34.531 -23.068 -15.485  0.00  0.00    +0.296 C 
ATOM      4  C   UNL     1      34.399 -22.868 -17.733  0.00  0.00    +0.260 C 
ATOM      5  C   UNL     1      33.165 -23.032 -15.354  0.00  0.00    +0.094 C 
ATOM      6  C   UNL     1      32.466 -22.905 -16.536  0.00  0.00    +0.119 C 
ENDROOT
BRANCH   3   7
ATOM      7  O   UNL     1      35.305 -23.194 -14.343  0.00  0.00    -0.427 OA
BRANCH   7  13
ATOM      8  O   UNL     1      39.897 -24.652 -14.142  0.00  0.00    -0.435 OA
ATOM      9  O   UNL     1      39.257 -26.970 -14.293  0.00  0.00    -0.435 OA
ATOM     10  C   UNL     1      38.548 -24.811 -14.230  0.00  0.00    +0.179 C 
ATOM     11  C   UNL     1      38.182 -26.136 -14.315  0.00  0.00    +0.177 C 
ATOM     12  C   UNL     1      37.612 -23.798 -14.236  0.00  0.00    +0.078 C 
ATOM     13  C   UNL     1      36.265 -24.160 -14.334  0.00  0.00    +0.151 C 
ATOM     14  C   UNL     1      36.860 -26.519 -14.413  0.00  0.00    +0.043 C 
ATOM     15  C   UNL     1      40.339 -26.023 -14.182  0.00  0.00    +0.429 C 
ATOM     16  C   UNL     1      35.892 -25.512 -14.422  0.00  0.00    +0.041 C 
ENDBRANCH   7  13
ENDBRANCH   3   7
BRANCH   4  17
ATOM     17  O   UNL     1      35.031 -22.785 -18.952  0.00  0.00    -0.383 OA
BRANCH  17  21
ATOM     18  C   UNL     1      35.078 -19.074 -20.811  0.00  0.00    +0.057 C 
ATOM     19  C   UNL     1      33.875 -19.764 -20.663  0.00  0.00    +0.018 C 
ATOM     20  C   UNL     1      36.265 -19.631 -20.335  0.00  0.00    +0.018 C 
ATOM     21  C   UNL     1      35.047 -21.553 -19.569  0.00  0.00    +0.160 C 
ATOM     22  C   UNL     1      33.860 -21.012 -20.037  0.00  0.00    +0.040 C 
ATOM     23  C   UNL     1      36.249 -20.878 -19.710  0.00  0.00    +0.040 C 
BRANCH  18  24
ATOM     24  N   UNL     1      35.094 -17.838 -21.430  0.00  0.00    -0.246 N 
ATOM     25  N   UNL     1      35.185 -16.316 -23.056  0.00  0.00    -0.224 NA
ATOM     26  C   UNL     1      35.002 -16.615 -20.817  0.00  0.00    +0.092 C 
ATOM     27  C   UNL     1      35.202 -17.601 -22.777  0.00  0.00    +0.172 C 
ATOM     28  C   UNL     1      35.061 -15.696 -21.838  0.00  0.00    +0.117 C 
ENDBRANCH  18  24
ENDBRANCH  17  21
ENDBRANCH   4  17
TORSDOF 5
ENDMDL
MODEL 5
REMARK VINA RESULT:     -11.0      4.579      8.276
REMARK  Name = 9969613
REMARK  5 active torsions:
REMARK  status: ('A' for Active; 'I' for Inactive)
REMARK    1  A    between atoms: C_3  and  O_7
REMARK    2  A    between atoms: C_4  and  O_17
REMARK    3  A    between atoms: O_7  and  C_13
REMARK    4  A    between atoms: O_17  and  C_21
REMARK    5  A    between atoms: C_18  and  N_24
REMARK                            x       y       z     vdW  Elec       q    Type
REMARK                         _______ _______ _______ _____ _____    ______ ____
ROOT
ATOM      1  N   UNL     1      35.361 -17.553 -20.617  0.00  0.00    -0.283 NA
ATOM      2  N   UNL     1      34.814 -16.170 -22.514  0.00  0.00    -0.151 NA
ATOM      3  C   UNL     1      35.632 -18.544 -21.482  0.00  0.00    +0.296 C 
ATOM      4  C   UNL     1      34.961 -16.404 -21.195  0.00  0.00    +0.260 C 
ATOM      5  C   UNL     1      35.526 -18.445 -22.847  0.00  0.00    +0.094 C 
ATOM      6  C   UNL     1      35.106 -17.217 -23.315  0.00  0.00    +0.119 C 
ENDROOT
BRANCH   3   7
ATOM      7  O   UNL     1      36.048 -19.746 -20.934  0.00  0.00    -0.427 OA
BRANCH   7  13
ATOM      8  O   UNL     1      34.913 -22.972 -17.534  0.00  0.00    -0.435 OA
ATOM      9  O   UNL     1      32.553 -22.601 -17.848  0.00  0.00    -0.435 OA
ATOM     10  C   UNL     1      34.660 -22.043 -18.495  0.00  0.00    +0.179 C 
ATOM     11  C   UNL     1      33.312 -21.830 -18.674  0.00  0.00    +0.177 C 
ATOM     12  C   UNL     1      35.606 -21.363 -19.234  0.00  0.00    +0.078 C 
ATOM     13  C   UNL     1      35.151 -20.441 -20.181  0.00  0.00    +0.151 C 
ATOM     14  C   UNL     1      32.836 -20.926 -19.602  0.00  0.00    +0.043 C 
ATOM     15  C   UNL     1      33.575 -23.321 -17.128  0.00  0.00    +0.429 C 
ATOM     16  C   UNL     1      33.774 -20.225 -20.364  0.00  0.00    +0.041 C 
ENDBRANCH   7  13
ENDBRANCH   3   7
BRANCH   4  17
ATOM     17  O   UNL     1      34.672 -15.359 -20.350  0.00  0.00    -0.383 OA
BRANCH  17  21
ATOM     18  C   UNL     1      32.858 -12.018 -22.018  0.00  0.00    +0.057 C 
ATOM     19  C   UNL     1      32.333 -12.592 -20.860  0.00  0.00    +0.018 C 
ATOM     20  C   UNL     1      33.994 -12.567 -22.615  0.00  0.00    +0.018 C 
ATOM     21  C   UNL     1      34.070 -14.249 -20.904  0.00  0.00    +0.160 C 
ATOM     22  C   UNL     1      32.943 -13.714 -20.300  0.00  0.00    +0.040 C 
ATOM     23  C   UNL     1      34.603 -13.690 -22.054  0.00  0.00    +0.040 C 
BRANCH  18  24
ATOM     24  N   UNL     1      32.255 -10.905 -22.574  0.00  0.00    -0.246 N 
ATOM     25  N   UNL     1      30.745  -9.305 -22.928  0.00  0.00    -0.224 NA
ATOM     26  C   UNL     1      32.751 -10.128 -23.589  0.00  0.00    +0.092 C 
ATOM     27  C   UNL     1      31.046 -10.366 -22.212  0.00  0.00    +0.172 C 
ATOM     28  C   UNL     1      31.803  -9.151 -23.788  0.00  0.00    +0.117 C 
ENDBRANCH  18  24
ENDBRANCH  17  21
ENDBRANCH   4  17
TORSDOF 5
ENDMDL
MODEL 6
REMARK VINA RESULT:     -10.9      3.728      7.409
REMARK  Name = 9969613
REMARK  5 active torsions:
REMARK  status: ('A' for Active; 'I' for Inactive)
REMARK    1  A    between atoms: C_3  and  O_7
REMARK    2  A    between atoms: C_4  and  O_17
REMARK    3  A    between atoms: O_7  and  C_13
REMARK    4  A    between atoms: O_17  and  C_21
REMARK    5  A    between atoms: C_18  and  N_24
REMARK                            x       y       z     vdW  Elec       q    Type
REMARK                         _______ _______ _______ _____ _____    ______ ____
ROOT
ATOM      1  N   UNL     1      34.389 -24.283 -14.182  0.00  0.00    -0.283 NA
ATOM      2  N   UNL     1      34.812 -23.910 -11.838  0.00  0.00    -0.151 NA
ATOM      3  C   UNL     1      35.593 -23.745 -14.433  0.00  0.00    +0.296 C 
ATOM      4  C   UNL     1      34.065 -24.334 -12.876  0.00  0.00    +0.260 C 
ATOM      5  C   UNL     1      36.457 -23.273 -13.476  0.00  0.00    +0.094 C 
ATOM      6  C   UNL     1      36.008 -23.382 -12.176  0.00  0.00    +0.119 C 
ENDROOT
BRANCH   3   7
ATOM      7  O   UNL     1      35.971 -23.670 -15.763  0.00  0.00    -0.427 OA
BRANCH   7  13
ATOM      8  O   UNL     1      34.948 -20.822 -19.517  0.00  0.00    -0.435 OA
ATOM      9  O   UNL     1      32.590 -21.277 -19.330  0.00  0.00    -0.435 OA
ATOM     10  C   UNL     1      34.666 -21.672 -18.493  0.00  0.00    +0.179 C 
ATOM     11  C   UNL     1      33.319 -21.933 -18.386  0.00  0.00    +0.177 C 
ATOM     12  C   UNL     1      35.585 -22.236 -17.632  0.00  0.00    +0.078 C 
ATOM     13  C   UNL     1      35.102 -23.090 -16.636  0.00  0.00    +0.151 C 
ATOM     14  C   UNL     1      32.816 -22.771 -17.412  0.00  0.00    +0.043 C 
ATOM     15  C   UNL     1      33.629 -20.576 -20.043  0.00  0.00    +0.429 C 
ATOM     16  C   UNL     1      33.726 -23.355 -16.526  0.00  0.00    +0.041 C 
ENDBRANCH   7  13
ENDBRANCH   3   7
BRANCH   4  17
ATOM     17  O   UNL     1      32.839 -24.878 -12.568  0.00  0.00    -0.383 OA
BRANCH  17  21
ATOM     18  C   UNL     1      29.593 -23.642 -14.841  0.00  0.00    +0.057 C 
ATOM     19  C   UNL     1      29.801 -25.000 -14.602  0.00  0.00    +0.018 C 
ATOM     20  C   UNL     1      30.476 -22.698 -14.315  0.00  0.00    +0.018 C 
ATOM     21  C   UNL     1      31.761 -24.467 -13.322  0.00  0.00    +0.160 C 
ATOM     22  C   UNL     1      30.892 -25.415 -13.838  0.00  0.00    +0.040 C 
ATOM     23  C   UNL     1      31.567 -23.114 -13.551  0.00  0.00    +0.040 C 
BRANCH  18  24
ATOM     24  N   UNL     1      28.512 -23.229 -15.597  0.00  0.00    -0.246 N 
ATOM     25  N   UNL     1      27.110 -23.064 -17.322  0.00  0.00    -0.224 NA
ATOM     26  C   UNL     1      27.539 -22.340 -15.217  0.00  0.00    +0.092 C 
ATOM     27  C   UNL     1      28.205 -23.634 -16.872  0.00  0.00    +0.172 C 
ATOM     28  C   UNL     1      26.690 -22.256 -16.295  0.00  0.00    +0.117 C 
ENDBRANCH  18  24
ENDBRANCH  17  21
ENDBRANCH   4  17
TORSDOF 5
ENDMDL
MODEL 7
REMARK VINA RESULT:     -10.7      5.573     11.762
REMARK  Name = 9969613
REMARK  5 active torsions:
REMARK  status: ('A' for Active; 'I' for Inactive)
REMARK    1  A    between atoms: C_3  and  O_7
REMARK    2  A    between atoms: C_4  and  O_17
REMARK    3  A    between atoms: O_7  and  C_13
REMARK    4  A    between atoms: O_17  and  C_21
REMARK    5  A    between atoms: C_18  and  N_24
REMARK                            x       y       z     vdW  Elec       q    Type
REMARK                         _______ _______ _______ _____ _____    ______ ____
ROOT
ATOM      1  N   UNL     1      34.829 -16.470 -22.937  0.00  0.00    -0.283 NA
ATOM      2  N   UNL     1      35.211 -16.775 -20.576  0.00  0.00    -0.151 NA
ATOM      3  C   UNL     1      34.461 -15.209 -22.662  0.00  0.00    +0.296 C 
ATOM      4  C   UNL     1      35.189 -17.191 -21.857  0.00  0.00    +0.260 C 
ATOM      5  C   UNL     1      34.437 -14.653 -21.407  0.00  0.00    +0.094 C 
ATOM      6  C   UNL     1      34.827 -15.495 -20.387  0.00  0.00    +0.119 C 
ENDROOT
BRANCH   3   7
ATOM      7  O   UNL     1      34.082 -14.427 -23.741  0.00  0.00    -0.427 OA
BRANCH   7  13
ATOM      8  O   UNL     1      30.893 -11.398 -21.766  0.00  0.00    -0.435 OA
ATOM      9  O   UNL     1      32.058  -9.473 -22.627  0.00  0.00    -0.435 OA
ATOM     10  C   UNL     1      31.997 -11.741 -22.483  0.00  0.00    +0.179 C 
ATOM     11  C   UNL     1      32.664 -10.642 -22.974  0.00  0.00    +0.177 C 
ATOM     12  C   UNL     1      32.443 -13.025 -22.719  0.00  0.00    +0.078 C 
ATOM     13  C   UNL     1      33.604 -13.179 -23.482  0.00  0.00    +0.151 C 
ATOM     14  C   UNL     1      33.812 -10.766 -23.731  0.00  0.00    +0.043 C 
ATOM     15  C   UNL     1      30.938  -9.961 -21.861  0.00  0.00    +0.429 C 
ATOM     16  C   UNL     1      34.283 -12.056 -23.985  0.00  0.00    +0.041 C 
ENDBRANCH   7  13
ENDBRANCH   3   7
BRANCH   4  17
ATOM     17  O   UNL     1      35.575 -18.491 -22.088  0.00  0.00    -0.383 OA
BRANCH  17  21
ATOM     18  C   UNL     1      34.856 -21.244 -19.065  0.00  0.00    +0.057 C 
ATOM     19  C   UNL     1      33.793 -20.732 -19.809  0.00  0.00    +0.018 C 
ATOM     20  C   UNL     1      36.161 -20.832 -19.337  0.00  0.00    +0.018 C 
ATOM     21  C   UNL     1      35.337 -19.406 -21.084  0.00  0.00    +0.160 C 
ATOM     22  C   UNL     1      34.035 -19.807 -20.825  0.00  0.00    +0.040 C 
ATOM     23  C   UNL     1      36.402 -19.907 -20.353  0.00  0.00    +0.040 C 
BRANCH  18  24
ATOM     24  N   UNL     1      34.617 -22.161 -18.058  0.00  0.00    -0.246 N 
ATOM     25  N   UNL     1      34.958 -23.407 -16.242  0.00  0.00    -0.224 NA
ATOM     26  C   UNL     1      33.474 -22.898 -17.878  0.00  0.00    +0.092 C 
ATOM     27  C   UNL     1      35.476 -22.505 -17.046  0.00  0.00    +0.172 C 
ATOM     28  C   UNL     1      33.710 -23.656 -16.755  0.00  0.00    +0.117 C 
ENDBRANCH  18  24
ENDBRANCH  17  21
ENDBRANCH   4  17
TORSDOF 5
ENDMDL
MODEL 8
REMARK VINA RESULT:     -10.5      5.961      9.832
REMARK  Name = 9969613
REMARK  5 active torsions:
REMARK  status: ('A' for Active; 'I' for Inactive)
REMARK    1  A    between atoms: C_3  and  O_7
REMARK    2  A    between atoms: C_4  and  O_17
REMARK    3  A    between atoms: O_7  and  C_13
REMARK    4  A    between atoms: O_17  and  C_21
REMARK    5  A    between atoms: C_18  and  N_24
REMARK                            x       y       z     vdW  Elec       q    Type
REMARK                         _______ _______ _______ _____ _____    ______ ____
ROOT
ATOM      1  N   UNL     1      34.760 -15.934 -22.999  0.00  0.00    -0.283 NA
ATOM      2  N   UNL     1      34.109 -14.224 -21.430  0.00  0.00    -0.151 NA
ATOM      3  C   UNL     1      35.193 -16.657 -21.954  0.00  0.00    +0.296 C 
ATOM      4  C   UNL     1      34.234 -14.739 -22.669  0.00  0.00    +0.260 C 
ATOM      5  C   UNL     1      35.128 -16.258 -20.643  0.00  0.00    +0.094 C 
ATOM      6  C   UNL     1      34.569 -15.014 -20.436  0.00  0.00    +0.119 C 
ENDROOT
BRANCH   3   7
ATOM      7  O   UNL     1      35.742 -17.895 -22.245  0.00  0.00    -0.427 OA
BRANCH   7  13
ATOM      8  O   UNL     1      32.978 -21.057 -19.875  0.00  0.00    -0.435 OA
ATOM      9  O   UNL     1      34.865 -21.917 -18.648  0.00  0.00    -0.435 OA
ATOM     10  C   UNL     1      34.139 -20.432 -20.208  0.00  0.00    +0.179 C 
ATOM     11  C   UNL     1      35.218 -20.923 -19.508  0.00  0.00    +0.177 C 
ATOM     12  C   UNL     1      34.277 -19.417 -21.134  0.00  0.00    +0.078 C 
ATOM     13  C   UNL     1      35.557 -18.897 -21.342  0.00  0.00    +0.151 C 
ATOM     14  C   UNL     1      36.492 -20.426 -19.694  0.00  0.00    +0.043 C 
ATOM     15  C   UNL     1      33.445 -21.997 -18.887  0.00  0.00    +0.429 C 
ATOM     16  C   UNL     1      36.658 -19.398 -20.625  0.00  0.00    +0.041 C 
ENDBRANCH   7  13
ENDBRANCH   3   7
BRANCH   4  17
ATOM     17  O   UNL     1      33.776 -13.961 -23.706  0.00  0.00    -0.383 OA
BRANCH  17  21
ATOM     18  C   UNL     1      32.384 -10.166 -22.758  0.00  0.00    +0.057 C 
ATOM     19  C   UNL     1      31.697 -11.294 -22.308  0.00  0.00    +0.018 C 
ATOM     20  C   UNL     1      33.540 -10.314 -23.526  0.00  0.00    +0.018 C 
ATOM     21  C   UNL     1      33.314 -12.701 -23.391  0.00  0.00    +0.160 C 
ATOM     22  C   UNL     1      32.165 -12.569 -22.627  0.00  0.00    +0.040 C 
ATOM     23  C   UNL     1      34.007 -11.589 -23.845  0.00  0.00    +0.040 C 
BRANCH  18  24
ATOM     24  N   UNL     1      31.921  -8.902 -22.442  0.00  0.00    -0.246 N 
ATOM     25  N   UNL     1      31.568  -7.038 -21.273  0.00  0.00    -0.224 NA
ATOM     26  C   UNL     1      31.161  -8.087 -23.241  0.00  0.00    +0.092 C 
ATOM     27  C   UNL     1      32.138  -8.223 -21.271  0.00  0.00    +0.172 C 
ATOM     28  C   UNL     1      30.957  -6.947 -22.499  0.00  0.00    +0.117 C 
ENDBRANCH  18  24
ENDBRANCH  17  21
ENDBRANCH   4  17
TORSDOF 5
ENDMDL
MODEL 9
REMARK VINA RESULT:     -10.5      4.585     10.597
REMARK  Name = 9969613
REMARK  5 active torsions:
REMARK  status: ('A' for Active; 'I' for Inactive)
REMARK    1  A    between atoms: C_3  and  O_7
REMARK    2  A    between atoms: C_4  and  O_17
REMARK    3  A    between atoms: O_7  and  C_13
REMARK    4  A    between atoms: O_17  and  C_21
REMARK    5  A    between atoms: C_18  and  N_24
REMARK                            x       y       z     vdW  Elec       q    Type
REMARK                         _______ _______ _______ _____ _____    ______ ____
ROOT
ATOM      1  N   UNL     1      35.917 -17.397 -22.180  0.00  0.00    -0.283 NA
ATOM      2  N   UNL     1      34.934 -19.362 -23.171  0.00  0.00    -0.151 NA
ATOM      3  C   UNL     1      35.220 -16.665 -23.063  0.00  0.00    +0.296 C 
ATOM      4  C   UNL     1      35.729 -18.726 -22.289  0.00  0.00    +0.260 C 
ATOM      5  C   UNL     1      34.374 -17.178 -24.015  0.00  0.00    +0.094 C 
ATOM      6  C   UNL     1      34.268 -18.554 -24.023  0.00  0.00    +0.119 C 
ENDROOT
BRANCH   3   7
ATOM      7  O   UNL     1      35.381 -15.291 -22.991  0.00  0.00    -0.427 OA
BRANCH   7  13
ATOM      8  O   UNL     1      32.052 -11.821 -22.620  0.00  0.00    -0.435 OA
ATOM      9  O   UNL     1      31.620 -12.364 -20.313  0.00  0.00    -0.435 OA
ATOM     10  C   UNL     1      32.821 -12.854 -22.179  0.00  0.00    +0.179 C 
ATOM     11  C   UNL     1      32.574 -13.165 -20.861  0.00  0.00    +0.177 C 
ATOM     12  C   UNL     1      33.755 -13.545 -22.924  0.00  0.00    +0.078 C 
ATOM     13  C   UNL     1      34.450 -14.581 -22.295  0.00  0.00    +0.151 C 
ATOM     14  C   UNL     1      33.247 -14.182 -20.216  0.00  0.00    +0.043 C 
ATOM     15  C   UNL     1      31.294 -11.516 -21.433  0.00  0.00    +0.429 C 
ATOM     16  C   UNL     1      34.198 -14.897 -20.949  0.00  0.00    +0.041 C 
ENDBRANCH   7  13
ENDBRANCH   3   7
BRANCH   4  17
ATOM     17  O   UNL     1      36.422 -19.519 -21.404  0.00  0.00    -0.383 OA
BRANCH  17  21
ATOM     18  C   UNL     1      34.197 -21.627 -18.605  0.00  0.00    +0.057 C 
ATOM     19  C   UNL     1      35.586 -21.741 -18.620  0.00  0.00    +0.018 C 
ATOM     20  C   UNL     1      33.554 -20.804 -19.530  0.00  0.00    +0.018 C 
ATOM     21  C   UNL     1      35.683 -20.219 -20.474  0.00  0.00    +0.160 C 
ATOM     22  C   UNL     1      36.334 -21.032 -19.561  0.00  0.00    +0.040 C 
ATOM     23  C   UNL     1      34.302 -20.096 -20.471  0.00  0.00    +0.040 C 
BRANCH  18  24
ATOM     24  N   UNL     1      33.455 -22.329 -17.672  0.00  0.00    -0.246 N 
ATOM     25  N   UNL     1      32.981 -23.727 -16.002  0.00  0.00    -0.224 NA
ATOM     26  C   UNL     1      32.098 -22.260 -17.487  0.00  0.00    +0.092 C 
ATOM     27  C   UNL     1      33.937 -23.226 -16.753  0.00  0.00    +0.172 C 
ATOM     28  C   UNL     1      31.832 -23.129 -16.455  0.00  0.00    +0.117 C 
ENDBRANCH  18  24
ENDBRANCH  17  21
ENDBRANCH   4  17
TORSDOF 5
ENDMDL
