MODEL 1
REMARK VINA RESULT:     -10.4      0.000      0.000
REMARK  Name = 11256664
REMARK  7 active torsions:
REMARK  status: ('A' for Active; 'I' for Inactive)
REMARK    1  A    between atoms: C_5  and  O_21
REMARK    2  A    between atoms: CA_7  and  C_14
REMARK    3  A    between atoms: C_9  and  O_23
REMARK    4  A    between atoms: N_13  and  CA_16
REMARK    5  A    between atoms: CA_16  and  C_18
REMARK    6  A    between atoms: C_18  and  O_19
REMARK    7  A    between atoms: O_23  and  C_24
REMARK                            x       y       z     vdW  Elec       q    Type
REMARK                         _______ _______ _______ _____ _____    ______ ____
ROOT
ATOM      1  N   UNL     1      33.146 -21.760 -19.053  0.00  0.00    -0.403 NA
ATOM      2  C   UNL     1      34.556 -20.165 -20.230  0.00  0.00    +0.027 C 
ATOM      3  C   UNL     1      35.687 -20.646 -19.538  0.00  0.00    +0.014 C 
ATOM      4  C   UNL     1      33.325 -20.758 -19.945  0.00  0.00    +0.109 C 
ATOM      5  C   UNL     1      35.523 -21.682 -18.611  0.00  0.00    +0.190 C 
ATOM      6  C   UNL     1      34.699 -19.125 -21.164  0.00  0.00    +0.039 C 
ATOM      7  CA  UNL     1      34.251 -22.195 -18.410  0.00  0.00    +0.192 C 
ATOM      8  C   UNL     1      36.943 -20.073 -19.798  0.00  0.00    +0.002 C 
ATOM      9  C   UNL     1      35.954 -18.568 -21.410  0.00  0.00    +0.145 C 
ATOM     10  C   UNL     1      37.073 -19.041 -20.728  0.00  0.00    +0.037 C 
ATOM     11  C   UNL     1      32.071 -20.313 -20.629  0.00  0.00    +0.066 C 
ENDROOT
BRANCH   7  14
ATOM     12  O   UNL     1      33.608 -24.379 -17.851  0.00  0.00    -0.268 OA
ATOM     13  N   UNL     1      34.297 -23.005 -16.115  0.00  0.00    -0.290 N 
ATOM     14  C   ACE A   1      34.017 -23.272 -17.460  0.00  0.00    +0.275 C 
ATOM     15  H   UNL     1      34.618 -22.105 -15.877  0.00  0.00    +0.150 HD
BRANCH  13  16
ATOM     16  CA  UNL     1      34.140 -23.978 -15.058  0.00  0.00    +0.201 C 
BRANCH  16  18
ATOM     17  OXT UNL     1      36.499 -24.420 -15.234  0.00  0.00    -0.248 OA
ATOM     18  C   UNL     1      35.442 -24.610 -14.643  0.00  0.00    +0.334 C 
BRANCH  18  19
ATOM     19  O   UNL     1      35.335 -25.408 -13.556  0.00  0.00    -0.479 OA
ATOM     20  H   UNL     1      34.652 -26.048 -13.510  0.00  0.00    +0.295 HD
ENDBRANCH  18  19
ENDBRANCH  16  18
ENDBRANCH  13  16
ENDBRANCH   7  14
BRANCH   5  21
ATOM     21  O   UNL     1      36.580 -22.186 -17.914  0.00  0.00    -0.373 OA
ATOM     22  H   UNL     1      37.330 -21.649 -17.749  0.00  0.00    +0.211 HD
ENDBRANCH   5  21
BRANCH   9  23
ATOM     23  O   UNL     1      36.085 -17.560 -22.316  0.00  0.00    -0.453 OA
BRANCH  23  24
ATOM     24  C   UNL     1      35.351 -16.405 -22.104  0.00  0.00    +0.145 C 
ATOM     25  C   UNL     1      34.937 -15.660 -23.194  0.00  0.00    +0.037 C 
ATOM     26  C   UNL     1      35.052 -16.025 -20.808  0.00  0.00    +0.037 C 
ATOM     27  C   UNL     1      34.198 -14.496 -22.981  0.00  0.00    +0.003 C 
ATOM     28  C   UNL     1      34.314 -14.861 -20.595  0.00  0.00    +0.003 C 
ATOM     29  C   UNL     1      33.887 -14.097 -21.680  0.00  0.00    +0.000 C 
ENDBRANCH  23  24
ENDBRANCH   9  23
TORSDOF 7
ENDMDL
MODEL 2
REMARK VINA RESULT:     -10.3      5.209     10.212
REMARK  Name = 11256664
REMARK  7 active torsions:
REMARK  status: ('A' for Active; 'I' for Inactive)
REMARK    1  A    between atoms: C_5  and  O_21
REMARK    2  A    between atoms: CA_7  and  C_14
REMARK    3  A    between atoms: C_9  and  O_23
REMARK    4  A    between atoms: N_13  and  CA_16
REMARK    5  A    between atoms: CA_16  and  C_18
REMARK    6  A    between atoms: C_18  and  O_19
REMARK    7  A    between atoms: O_23  and  C_24
REMARK                            x       y       z     vdW  Elec       q    Type
REMARK                         _______ _______ _______ _____ _____    ______ ____
ROOT
ATOM      1  N   UNL     1      32.565 -12.680 -23.391  0.00  0.00    -0.403 NA
ATOM      2  C   UNL     1      33.865 -14.590 -22.630  0.00  0.00    +0.027 C 
ATOM      3  C   UNL     1      33.697 -14.177 -21.292  0.00  0.00    +0.014 C 
ATOM      4  C   UNL     1      33.279 -13.804 -23.625  0.00  0.00    +0.109 C 
ATOM      5  C   UNL     1      32.962 -13.016 -21.029  0.00  0.00    +0.190 C 
ATOM      6  C   UNL     1      34.600 -15.752 -22.915  0.00  0.00    +0.039 C 
ATOM      7  CA  UNL     1      32.425 -12.315 -22.098  0.00  0.00    +0.192 C 
ATOM      8  C   UNL     1      34.273 -14.941 -20.264  0.00  0.00    +0.002 C 
ATOM      9  C   UNL     1      35.164 -16.499 -21.882  0.00  0.00    +0.145 C 
ATOM     10  C   UNL     1      35.002 -16.095 -20.559  0.00  0.00    +0.037 C 
ATOM     11  C   UNL     1      33.404 -14.164 -25.072  0.00  0.00    +0.066 C 
ENDROOT
BRANCH   7  14
ATOM     12  O   UNL     1      30.429 -11.086 -22.118  0.00  0.00    -0.268 OA
ATOM     13  N   UNL     1      32.341  -9.985 -21.401  0.00  0.00    -0.290 N 
ATOM     14  C   ACE A   1      31.651 -11.101 -21.888  0.00  0.00    +0.275 C 
ATOM     15  H   UNL     1      33.309 -10.069 -21.243  0.00  0.00    +0.150 HD
BRANCH  13  16
ATOM     16  CA  UNL     1      31.708  -8.717 -21.120  0.00  0.00    +0.201 C 
BRANCH  16  18
ATOM     17  OXT UNL     1      32.687  -6.665 -20.330  0.00  0.00    -0.248 OA
ATOM     18  C   UNL     1      32.500  -7.864 -20.164  0.00  0.00    +0.334 C 
BRANCH  18  19
ATOM     19  O   UNL     1      32.987  -8.550 -19.103  0.00  0.00    -0.479 OA
ATOM     20  H   UNL     1      32.426  -9.122 -18.617  0.00  0.00    +0.295 HD
ENDBRANCH  18  19
ENDBRANCH  16  18
ENDBRANCH  13  16
ENDBRANCH   7  14
BRANCH   5  21
ATOM     21  O   UNL     1      32.769 -12.570 -19.756  0.00  0.00    -0.373 OA
ATOM     22  H   UNL     1      32.187 -11.853 -19.594  0.00  0.00    +0.211 HD
ENDBRANCH   5  21
BRANCH   9  23
ATOM     23  O   UNL     1      35.877 -17.625 -22.166  0.00  0.00    -0.453 OA
BRANCH  23  24
ATOM     24  C   UNL     1      35.745 -18.703 -21.306  0.00  0.00    +0.145 C 
ATOM     25  C   UNL     1      36.854 -19.145 -20.606  0.00  0.00    +0.037 C 
ATOM     26  C   UNL     1      34.510 -19.310 -21.170  0.00  0.00    +0.037 C 
ATOM     27  C   UNL     1      36.723 -20.231 -19.741  0.00  0.00    +0.003 C 
ATOM     28  C   UNL     1      34.379 -20.397 -20.306  0.00  0.00    +0.003 C 
ATOM     29  C   UNL     1      35.485 -20.857 -19.592  0.00  0.00    +0.000 C 
ENDBRANCH  23  24
ENDBRANCH   9  23
TORSDOF 7
ENDMDL
MODEL 3
REMARK VINA RESULT:     -10.2      2.311      3.892
REMARK  Name = 11256664
REMARK  7 active torsions:
REMARK  status: ('A' for Active; 'I' for Inactive)
REMARK    1  A    between atoms: C_5  and  O_21
REMARK    2  A    between atoms: CA_7  and  C_14
REMARK    3  A    between atoms: C_9  and  O_23
REMARK    4  A    between atoms: N_13  and  CA_16
REMARK    5  A    between atoms: CA_16  and  C_18
REMARK    6  A    between atoms: C_18  and  O_19
REMARK    7  A    between atoms: O_23  and  C_24
REMARK                            x       y       z     vdW  Elec       q    Type
REMARK                         _______ _______ _______ _____ _____    ______ ____
ROOT
ATOM      1  N   UNL     1      34.600 -23.443 -15.305  0.00  0.00    -0.403 NA
ATOM      2  C   UNL     1      34.650 -22.318 -17.461  0.00  0.00    +0.027 C 
ATOM      3  C   UNL     1      36.028 -22.066 -17.304  0.00  0.00    +0.014 C 
ATOM      4  C   UNL     1      33.998 -23.005 -16.434  0.00  0.00    +0.109 C 
ATOM      5  C   UNL     1      36.670 -22.511 -16.142  0.00  0.00    +0.190 C 
ATOM      6  C   UNL     1      33.987 -21.879 -18.620  0.00  0.00    +0.039 C 
ATOM      7  CA  UNL     1      35.921 -23.184 -15.189  0.00  0.00    +0.192 C 
ATOM      8  C   UNL     1      36.717 -21.377 -18.315  0.00  0.00    +0.002 C 
ATOM      9  C   UNL     1      34.687 -21.197 -19.614  0.00  0.00    +0.145 C 
ATOM     10  C   UNL     1      36.048 -20.946 -19.462  0.00  0.00    +0.037 C 
ATOM     11  C   UNL     1      32.538 -23.317 -16.513  0.00  0.00    +0.066 C 
ENDROOT
BRANCH   7  14
ATOM     12  O   UNL     1      37.495 -24.456 -14.005  0.00  0.00    -0.268 OA
ATOM     13  N   UNL     1      35.999 -23.198 -12.756  0.00  0.00    -0.290 N 
ATOM     14  C   ACE A   1      36.531 -23.671 -13.961  0.00  0.00    +0.275 C 
ATOM     15  H   UNL     1      35.234 -22.579 -12.797  0.00  0.00    +0.150 HD
BRANCH  13  16
ATOM     16  CA  UNL     1      36.511 -23.569 -11.457  0.00  0.00    +0.201 C 
BRANCH  16  18
ATOM     17  OXT UNL     1      35.596 -24.546  -9.456  0.00  0.00    -0.248 OA
ATOM     18  C   UNL     1      35.557 -24.435 -10.676  0.00  0.00    +0.334 C 
BRANCH  18  19
ATOM     19  O   UNL     1      34.653 -25.080 -11.450  0.00  0.00    -0.479 OA
ATOM     20  H   UNL     1      33.840 -25.365 -11.082  0.00  0.00    +0.295 HD
ENDBRANCH  18  19
ENDBRANCH  16  18
ENDBRANCH  13  16
ENDBRANCH   7  14
BRANCH   5  21
ATOM     21  O   UNL     1      37.999 -22.296 -15.937  0.00  0.00    -0.373 OA
ATOM     22  H   UNL     1      38.323 -21.420 -15.850  0.00  0.00    +0.211 HD
ENDBRANCH   5  21
BRANCH   9  23
ATOM     23  O   UNL     1      34.038 -20.773 -20.734  0.00  0.00    -0.453 OA
BRANCH  23  24
ATOM     24  C   UNL     1      34.530 -19.648 -21.375  0.00  0.00    +0.145 C 
ATOM     25  C   UNL     1      34.923 -18.559 -20.617  0.00  0.00    +0.037 C 
ATOM     26  C   UNL     1      34.614 -19.641 -22.755  0.00  0.00    +0.037 C 
ATOM     27  C   UNL     1      35.417 -17.425 -21.262  0.00  0.00    +0.003 C 
ATOM     28  C   UNL     1      35.107 -18.507 -23.400  0.00  0.00    +0.003 C 
ATOM     29  C   UNL     1      35.509 -17.399 -22.654  0.00  0.00    +0.000 C 
ENDBRANCH  23  24
ENDBRANCH   9  23
TORSDOF 7
ENDMDL
MODEL 4
REMARK VINA RESULT:     -10.1      4.231      9.717
REMARK  Name = 11256664
REMARK  7 active torsions:
REMARK  status: ('A' for Active; 'I' for Inactive)
REMARK    1  A    between atoms: C_5  and  O_21
REMARK    2  A    between atoms: CA_7  and  C_14
REMARK    3  A    between atoms: C_9  and  O_23
REMARK    4  A    between atoms: N_13  and  CA_16
REMARK    5  A    between atoms: CA_16  and  C_18
REMARK    6  A    between atoms: C_18  and  O_19
REMARK    7  A    between atoms: O_23  and  C_24
REMARK                            x       y       z     vdW  Elec       q    Type
REMARK                         _______ _______ _______ _____ _____    ______ ____
ROOT
ATOM      1  N   UNL     1      34.149 -14.125 -22.028  0.00  0.00    -0.403 NA
ATOM      2  C   UNL     1      34.945 -16.412 -21.799  0.00  0.00    +0.027 C 
ATOM      3  C   UNL     1      34.765 -16.618 -23.182  0.00  0.00    +0.014 C 
ATOM      4  C   UNL     1      34.621 -15.153 -21.287  0.00  0.00    +0.109 C 
ATOM      5  C   UNL     1      34.278 -15.567 -23.966  0.00  0.00    +0.190 C 
ATOM      6  C   UNL     1      35.434 -17.455 -20.995  0.00  0.00    +0.039 C 
ATOM      7  CA  UNL     1      33.989 -14.359 -23.348  0.00  0.00    +0.192 C 
ATOM      8  C   UNL     1      35.080 -17.871 -23.733  0.00  0.00    +0.002 C 
ATOM      9  C   UNL     1      35.742 -18.693 -21.558  0.00  0.00    +0.145 C 
ATOM     10  C   UNL     1      35.565 -18.901 -22.924  0.00  0.00    +0.037 C 
ATOM     11  C   UNL     1      34.779 -14.843 -19.833  0.00  0.00    +0.066 C 
ENDROOT
BRANCH   7  14
ATOM     12  O   UNL     1      32.938 -13.407 -25.215  0.00  0.00    -0.268 OA
ATOM     13  N   UNL     1      33.609 -11.962 -23.529  0.00  0.00    -0.290 N 
ATOM     14  C   ACE A   1      33.479 -13.229 -24.110  0.00  0.00    +0.275 C 
ATOM     15  H   UNL     1      34.049 -11.895 -22.651  0.00  0.00    +0.150 HD
BRANCH  13  16
ATOM     16  CA  UNL     1      33.131 -10.748 -24.149  0.00  0.00    +0.201 C 
BRANCH  16  18
ATOM     17  OXT UNL     1      32.752  -8.700 -22.942  0.00  0.00    -0.248 OA
ATOM     18  C   UNL     1      32.398  -9.847 -23.190  0.00  0.00    +0.334 C 
BRANCH  18  19
ATOM     19  O   UNL     1      31.312 -10.425 -22.627  0.00  0.00    -0.479 OA
ATOM     20  H   UNL     1      30.568  -9.903 -22.400  0.00  0.00    +0.295 HD
ENDBRANCH  18  19
ENDBRANCH  16  18
ENDBRANCH  13  16
ENDBRANCH   7  14
BRANCH   5  21
ATOM     21  O   UNL     1      34.084 -15.710 -25.307  0.00  0.00    -0.373 OA
ATOM     22  H   UNL     1      33.418 -16.289 -25.625  0.00  0.00    +0.211 HD
ENDBRANCH   5  21
BRANCH   9  23
ATOM     23  O   UNL     1      36.214 -19.700 -20.773  0.00  0.00    -0.453 OA
BRANCH  23  24
ATOM     24  C   UNL     1      35.288 -20.465 -20.083  0.00  0.00    +0.145 C 
ATOM     25  C   UNL     1      33.941 -20.178 -20.220  0.00  0.00    +0.037 C 
ATOM     26  C   UNL     1      35.733 -21.494 -19.274  0.00  0.00    +0.037 C 
ATOM     27  C   UNL     1      33.008 -20.948 -19.525  0.00  0.00    +0.003 C 
ATOM     28  C   UNL     1      34.800 -22.263 -18.577  0.00  0.00    +0.003 C 
ATOM     29  C   UNL     1      33.438 -21.990 -18.703  0.00  0.00    +0.000 C 
ENDBRANCH  23  24
ENDBRANCH   9  23
TORSDOF 7
ENDMDL
MODEL 5
REMARK VINA RESULT:     -10.0      2.471      3.859
REMARK  Name = 11256664
REMARK  7 active torsions:
REMARK  status: ('A' for Active; 'I' for Inactive)
REMARK    1  A    between atoms: C_5  and  O_21
REMARK    2  A    between atoms: CA_7  and  C_14
REMARK    3  A    between atoms: C_9  and  O_23
REMARK    4  A    between atoms: N_13  and  CA_16
REMARK    5  A    between atoms: CA_16  and  C_18
REMARK    6  A    between atoms: C_18  and  O_19
REMARK    7  A    between atoms: O_23  and  C_24
REMARK                            x       y       z     vdW  Elec       q    Type
REMARK                         _______ _______ _______ _____ _____    ______ ____
ROOT
ATOM      1  N   UNL     1      34.856 -23.567 -15.586  0.00  0.00    -0.403 NA
ATOM      2  C   UNL     1      34.744 -22.286 -17.651  0.00  0.00    +0.027 C 
ATOM      3  C   UNL     1      36.125 -22.015 -17.564  0.00  0.00    +0.014 C 
ATOM      4  C   UNL     1      34.174 -23.061 -16.638  0.00  0.00    +0.109 C 
ATOM      5  C   UNL     1      36.849 -22.529 -16.482  0.00  0.00    +0.190 C 
ATOM      6  C   UNL     1      33.999 -21.779 -18.729  0.00  0.00    +0.039 C 
ATOM      7  CA  UNL     1      36.177 -23.287 -15.536  0.00  0.00    +0.192 C 
ATOM      8  C   UNL     1      36.734 -21.238 -18.564  0.00  0.00    +0.002 C 
ATOM      9  C   UNL     1      34.619 -21.010 -19.713  0.00  0.00    +0.145 C 
ATOM     10  C   UNL     1      35.983 -20.740 -19.630  0.00  0.00    +0.037 C 
ATOM     11  C   UNL     1      32.717 -23.400 -16.647  0.00  0.00    +0.066 C 
ENDROOT
BRANCH   7  14
ATOM     12  O   UNL     1      36.495 -23.592 -13.234  0.00  0.00    -0.268 OA
ATOM     13  N   UNL     1      37.959 -24.692 -14.656  0.00  0.00    -0.290 N 
ATOM     14  C   ACE A   1      36.875 -23.848 -14.389  0.00  0.00    +0.275 C 
ATOM     15  H   UNL     1      38.205 -24.850 -15.597  0.00  0.00    +0.150 HD
BRANCH  13  16
ATOM     16  CA  UNL     1      38.735 -25.344 -13.627  0.00  0.00    +0.201 C 
BRANCH  16  18
ATOM     17  OXT UNL     1      40.962 -24.793 -14.358  0.00  0.00    -0.248 OA
ATOM     18  C   UNL     1      40.143 -25.656 -14.062  0.00  0.00    +0.334 C 
BRANCH  18  19
ATOM     19  O   UNL     1      40.418 -26.980 -14.096  0.00  0.00    -0.479 OA
ATOM     20  H   UNL     1      41.107 -27.330 -13.564  0.00  0.00    +0.295 HD
ENDBRANCH  18  19
ENDBRANCH  16  18
ENDBRANCH  13  16
ENDBRANCH   7  14
BRANCH   5  21
ATOM     21  O   UNL     1      38.185 -22.298 -16.347  0.00  0.00    -0.373 OA
ATOM     22  H   UNL     1      38.803 -22.863 -16.770  0.00  0.00    +0.211 HD
ENDBRANCH   5  21
BRANCH   9  23
ATOM     23  O   UNL     1      33.891 -20.521 -20.754  0.00  0.00    -0.453 OA
BRANCH  23  24
ATOM     24  C   UNL     1      34.425 -19.461 -21.470  0.00  0.00    +0.145 C 
ATOM     25  C   UNL     1      34.497 -19.548 -22.849  0.00  0.00    +0.037 C 
ATOM     26  C   UNL     1      34.873 -18.345 -20.787  0.00  0.00    +0.037 C 
ATOM     27  C   UNL     1      35.034 -18.482 -23.570  0.00  0.00    +0.003 C 
ATOM     28  C   UNL     1      35.412 -17.279 -21.508  0.00  0.00    +0.003 C 
ATOM     29  C   UNL     1      35.492 -17.347 -22.898  0.00  0.00    +0.000 C 
ENDBRANCH  23  24
ENDBRANCH   9  23
TORSDOF 7
ENDMDL
MODEL 6
REMARK VINA RESULT:     -10.0      1.706      2.294
REMARK  Name = 11256664
REMARK  7 active torsions:
REMARK  status: ('A' for Active; 'I' for Inactive)
REMARK    1  A    between atoms: C_5  and  O_21
REMARK    2  A    between atoms: CA_7  and  C_14
REMARK    3  A    between atoms: C_9  and  O_23
REMARK    4  A    between atoms: N_13  and  CA_16
REMARK    5  A    between atoms: CA_16  and  C_18
REMARK    6  A    between atoms: C_18  and  O_19
REMARK    7  A    between atoms: O_23  and  C_24
REMARK                            x       y       z     vdW  Elec       q    Type
REMARK                         _______ _______ _______ _____ _____    ______ ____
ROOT
ATOM      1  N   UNL     1      32.723 -21.670 -19.049  0.00  0.00    -0.403 NA
ATOM      2  C   UNL     1      34.374 -20.264 -20.152  0.00  0.00    +0.027 C 
ATOM      3  C   UNL     1      35.395 -20.839 -19.368  0.00  0.00    +0.014 C 
ATOM      4  C   UNL     1      33.069 -20.719 -19.946  0.00  0.00    +0.109 C 
ATOM      5  C   UNL     1      35.058 -21.825 -18.434  0.00  0.00    +0.190 C 
ATOM      6  C   UNL     1      34.691 -19.273 -21.096  0.00  0.00    +0.039 C 
ATOM      7  CA  UNL     1      33.728 -22.198 -18.316  0.00  0.00    +0.192 C 
ATOM      8  C   UNL     1      36.719 -20.406 -19.547  0.00  0.00    +0.002 C 
ATOM      9  C   UNL     1      36.011 -18.856 -21.260  0.00  0.00    +0.145 C 
ATOM     10  C   UNL     1      37.023 -19.420 -20.487  0.00  0.00    +0.037 C 
ATOM     11  C   UNL     1      31.922 -20.168 -20.732  0.00  0.00    +0.066 C 
ENDROOT
BRANCH   7  14
ATOM     12  O   UNL     1      33.908 -24.309 -17.313  0.00  0.00    -0.268 OA
ATOM     13  N   UNL     1      32.253 -22.895 -16.509  0.00  0.00    -0.290 N 
ATOM     14  C   ACE A   1      33.315 -23.217 -17.363  0.00  0.00    +0.275 C 
ATOM     15  H   UNL     1      31.830 -22.011 -16.605  0.00  0.00    +0.150 HD
BRANCH  13  16
ATOM     16  CA  UNL     1      31.746 -23.791 -15.495  0.00  0.00    +0.201 C 
BRANCH  16  18
ATOM     17  OXT UNL     1      29.623 -24.709 -14.828  0.00  0.00    -0.248 OA
ATOM     18  C   UNL     1      30.243 -23.894 -15.502  0.00  0.00    +0.334 C 
BRANCH  18  19
ATOM     19  O   UNL     1      29.643 -23.002 -16.324  0.00  0.00    -0.479 OA
ATOM     20  H   UNL     1      28.803 -22.652 -16.102  0.00  0.00    +0.295 HD
ENDBRANCH  18  19
ENDBRANCH  16  18
ENDBRANCH  13  16
ENDBRANCH   7  14
BRANCH   5  21
ATOM     21  O   UNL     1      36.003 -22.413 -17.649  0.00  0.00    -0.373 OA
ATOM     22  H   UNL     1      35.885 -22.448 -16.720  0.00  0.00    +0.211 HD
ENDBRANCH   5  21
BRANCH   9  23
ATOM     23  O   UNL     1      36.313 -17.894 -22.176  0.00  0.00    -0.453 OA
BRANCH  23  24
ATOM     24  C   UNL     1      35.534 -16.748 -22.184  0.00  0.00    +0.145 C 
ATOM     25  C   UNL     1      35.114 -16.227 -23.395  0.00  0.00    +0.037 C 
ATOM     26  C   UNL     1      35.198 -16.153 -20.981  0.00  0.00    +0.037 C 
ATOM     27  C   UNL     1      34.331 -15.073 -23.404  0.00  0.00    +0.003 C 
ATOM     28  C   UNL     1      34.416 -14.998 -20.990  0.00  0.00    +0.003 C 
ATOM     29  C   UNL     1      33.983 -14.458 -22.201  0.00  0.00    +0.000 C 
ENDBRANCH  23  24
ENDBRANCH   9  23
TORSDOF 7
ENDMDL
MODEL 7
REMARK VINA RESULT:      -9.9      4.501      9.975
REMARK  Name = 11256664
REMARK  7 active torsions:
REMARK  status: ('A' for Active; 'I' for Inactive)
REMARK    1  A    between atoms: C_5  and  O_21
REMARK    2  A    between atoms: CA_7  and  C_14
REMARK    3  A    between atoms: C_9  and  O_23
REMARK    4  A    between atoms: N_13  and  CA_16
REMARK    5  A    between atoms: CA_16  and  C_18
REMARK    6  A    between atoms: C_18  and  O_19
REMARK    7  A    between atoms: O_23  and  C_24
REMARK                            x       y       z     vdW  Elec       q    Type
REMARK                         _______ _______ _______ _____ _____    ______ ____
ROOT
ATOM      1  N   UNL     1      33.988 -13.510 -21.567  0.00  0.00    -0.403 NA
ATOM      2  C   UNL     1      34.695 -15.804 -21.964  0.00  0.00    +0.027 C 
ATOM      3  C   UNL     1      34.373 -15.671 -23.331  0.00  0.00    +0.014 C 
ATOM      4  C   UNL     1      34.480 -14.696 -21.141  0.00  0.00    +0.109 C 
ATOM      5  C   UNL     1      33.863 -14.452 -23.792  0.00  0.00    +0.190 C 
ATOM      6  C   UNL     1      35.208 -17.019 -21.482  0.00  0.00    +0.039 C 
ATOM      7  CA  UNL     1      33.692 -13.420 -22.882  0.00  0.00    +0.192 C 
ATOM      8  C   UNL     1      34.575 -16.764 -24.190  0.00  0.00    +0.002 C 
ATOM      9  C   UNL     1      35.402 -18.094 -22.349  0.00  0.00    +0.145 C 
ATOM     10  C   UNL     1      35.086 -17.967 -23.699  0.00  0.00    +0.037 C 
ATOM     11  C   UNL     1      34.791 -14.743 -19.679  0.00  0.00    +0.066 C 
ENDROOT
BRANCH   7  14
ATOM     12  O   UNL     1      33.502 -11.636 -24.390  0.00  0.00    -0.268 OA
ATOM     13  N   UNL     1      32.260 -11.503 -22.436  0.00  0.00    -0.290 N 
ATOM     14  C   ACE A   1      33.165 -12.130 -23.300  0.00  0.00    +0.275 C 
ATOM     15  H   UNL     1      32.039 -11.952 -21.588  0.00  0.00    +0.150 HD
BRANCH  13  16
ATOM     16  CA  UNL     1      31.634 -10.233 -22.721  0.00  0.00    +0.201 C 
BRANCH  16  18
ATOM     17  OXT UNL     1      32.607  -8.527 -21.329  0.00  0.00    -0.248 OA
ATOM     18  C   UNL     1      32.530  -9.057 -22.432  0.00  0.00    +0.334 C 
BRANCH  18  19
ATOM     19  O   UNL     1      33.243  -8.643 -23.504  0.00  0.00    -0.479 OA
ATOM     20  H   UNL     1      33.969  -8.062 -23.389  0.00  0.00    +0.295 HD
ENDBRANCH  18  19
ENDBRANCH  16  18
ENDBRANCH  13  16
ENDBRANCH   7  14
BRANCH   5  21
ATOM     21  O   UNL     1      33.535 -14.268 -25.101  0.00  0.00    -0.373 OA
ATOM     22  H   UNL     1      33.750 -14.925 -25.734  0.00  0.00    +0.211 HD
ENDBRANCH   5  21
BRANCH   9  23
ATOM     23  O   UNL     1      35.899 -19.270 -21.875  0.00  0.00    -0.453 OA
BRANCH  23  24
ATOM     24  C   UNL     1      35.134 -19.966 -20.954  0.00  0.00    +0.145 C 
ATOM     25  C   UNL     1      33.758 -19.833 -20.984  0.00  0.00    +0.037 C 
ATOM     26  C   UNL     1      35.766 -20.775 -20.027  0.00  0.00    +0.037 C 
ATOM     27  C   UNL     1      32.986 -20.534 -20.056  0.00  0.00    +0.003 C 
ATOM     28  C   UNL     1      34.996 -21.475 -19.098  0.00  0.00    +0.003 C 
ATOM     29  C   UNL     1      33.606 -21.354 -19.113  0.00  0.00    +0.000 C 
ENDBRANCH  23  24
ENDBRANCH   9  23
TORSDOF 7
ENDMDL
MODEL 8
REMARK VINA RESULT:      -9.8      1.847      2.989
REMARK  Name = 11256664
REMARK  7 active torsions:
REMARK  status: ('A' for Active; 'I' for Inactive)
REMARK    1  A    between atoms: C_5  and  O_21
REMARK    2  A    between atoms: CA_7  and  C_14
REMARK    3  A    between atoms: C_9  and  O_23
REMARK    4  A    between atoms: N_13  and  CA_16
REMARK    5  A    between atoms: CA_16  and  C_18
REMARK    6  A    between atoms: C_18  and  O_19
REMARK    7  A    between atoms: O_23  and  C_24
REMARK                            x       y       z     vdW  Elec       q    Type
REMARK                         _______ _______ _______ _____ _____    ______ ____
ROOT
ATOM      1  N   UNL     1      35.377 -22.641 -16.732  0.00  0.00    -0.403 NA
ATOM      2  C   UNL     1      35.238 -21.352 -18.790  0.00  0.00    +0.027 C 
ATOM      3  C   UNL     1      33.834 -21.476 -18.779  0.00  0.00    +0.014 C 
ATOM      4  C   UNL     1      35.947 -21.953 -17.747  0.00  0.00    +0.109 C 
ATOM      5  C   UNL     1      33.224 -22.185 -17.738  0.00  0.00    +0.190 C 
ATOM      6  C   UNL     1      35.869 -20.644 -19.827  0.00  0.00    +0.039 C 
ATOM      7  CA  UNL     1      34.030 -22.739 -16.755  0.00  0.00    +0.192 C 
ATOM      8  C   UNL     1      33.087 -20.886 -19.812  0.00  0.00    +0.002 C 
ATOM      9  C   UNL     1      35.112 -20.064 -20.845  0.00  0.00    +0.145 C 
ATOM     10  C   UNL     1      33.724 -20.185 -20.838  0.00  0.00    +0.037 C 
ATOM     11  C   UNL     1      37.439 -21.874 -17.676  0.00  0.00    +0.066 C 
ENDROOT
BRANCH   7  14
ATOM     12  O   UNL     1      32.346 -24.035 -15.765  0.00  0.00    -0.268 OA
ATOM     13  N   UNL     1      34.217 -23.573 -14.475  0.00  0.00    -0.290 N 
ATOM     14  C   ACE A   1      33.455 -23.487 -15.647  0.00  0.00    +0.275 C 
ATOM     15  H   UNL     1      35.088 -23.113 -14.452  0.00  0.00    +0.150 HD
BRANCH  13  16
ATOM     16  CA  UNL     1      33.794 -24.299 -13.300  0.00  0.00    +0.201 C 
BRANCH  16  18
ATOM     17  OXT UNL     1      34.804 -24.990 -11.227  0.00  0.00    -0.248 OA
ATOM     18  C   UNL     1      34.778 -24.199 -12.163  0.00  0.00    +0.334 C 
BRANCH  18  19
ATOM     19  O   UNL     1      35.629 -23.154 -12.274  0.00  0.00    -0.479 OA
ATOM     20  H   UNL     1      36.354 -23.076 -11.686  0.00  0.00    +0.295 HD
ENDBRANCH  18  19
ENDBRANCH  16  18
ENDBRANCH  13  16
ENDBRANCH   7  14
BRANCH   5  21
ATOM     21  O   UNL     1      31.872 -22.337 -17.677  0.00  0.00    -0.373 OA
ATOM     22  H   UNL     1      31.370 -21.825 -17.073  0.00  0.00    +0.211 HD
ENDBRANCH   5  21
BRANCH   9  23
ATOM     23  O   UNL     1      35.730 -19.381 -21.847  0.00  0.00    -0.453 OA
BRANCH  23  24
ATOM     24  C   UNL     1      35.374 -18.055 -22.036  0.00  0.00    +0.145 C 
ATOM     25  C   UNL     1      35.313 -17.212 -20.941  0.00  0.00    +0.037 C 
ATOM     26  C   UNL     1      35.087 -17.610 -23.314  0.00  0.00    +0.037 C 
ATOM     27  C   UNL     1      34.954 -15.877 -21.130  0.00  0.00    +0.003 C 
ATOM     28  C   UNL     1      34.727 -16.276 -23.503  0.00  0.00    +0.003 C 
ATOM     29  C   UNL     1      34.660 -15.410 -22.412  0.00  0.00    +0.000 C 
ENDBRANCH  23  24
ENDBRANCH   9  23
TORSDOF 7
ENDMDL
MODEL 9
REMARK VINA RESULT:      -9.6      2.522      4.114
REMARK  Name = 11256664
REMARK  7 active torsions:
REMARK  status: ('A' for Active; 'I' for Inactive)
REMARK    1  A    between atoms: C_5  and  O_21
REMARK    2  A    between atoms: CA_7  and  C_14
REMARK    3  A    between atoms: C_9  and  O_23
REMARK    4  A    between atoms: N_13  and  CA_16
REMARK    5  A    between atoms: CA_16  and  C_18
REMARK    6  A    between atoms: C_18  and  O_19
REMARK    7  A    between atoms: O_23  and  C_24
REMARK                            x       y       z     vdW  Elec       q    Type
REMARK                         _______ _______ _______ _____ _____    ______ ____
ROOT
ATOM      1  N   UNL     1      35.064 -23.030 -15.678  0.00  0.00    -0.403 NA
ATOM      2  C   UNL     1      35.334 -21.855 -17.791  0.00  0.00    +0.027 C 
ATOM      3  C   UNL     1      33.950 -21.972 -18.037  0.00  0.00    +0.014 C 
ATOM      4  C   UNL     1      35.825 -22.401 -16.602  0.00  0.00    +0.109 C 
ATOM      5  C   UNL     1      33.146 -22.620 -17.093  0.00  0.00    +0.190 C 
ATOM      6  C   UNL     1      36.158 -21.209 -18.726  0.00  0.00    +0.039 C 
ATOM      7  CA  UNL     1      33.744 -23.123 -15.948  0.00  0.00    +0.192 C 
ATOM      8  C   UNL     1      33.420 -21.436 -19.222  0.00  0.00    +0.002 C 
ATOM      9  C   UNL     1      35.615 -20.682 -19.897  0.00  0.00    +0.145 C 
ATOM     10  C   UNL     1      34.249 -20.796 -20.145  0.00  0.00    +0.037 C 
ATOM     11  C   UNL     1      37.278 -22.326 -16.256  0.00  0.00    +0.066 C 
ENDROOT
BRANCH   7  14
ATOM     12  O   UNL     1      33.511 -24.579 -14.126  0.00  0.00    -0.268 OA
ATOM     13  N   UNL     1      31.589 -23.531 -14.893  0.00  0.00    -0.290 N 
ATOM     14  C   ACE A   1      32.961 -23.806 -14.930  0.00  0.00    +0.275 C 
ATOM     15  H   UNL     1      31.221 -22.909 -15.561  0.00  0.00    +0.150 HD
BRANCH  13  16
ATOM     16  CA  UNL     1      30.685 -24.111 -13.927  0.00  0.00    +0.201 C 
BRANCH  16  18
ATOM     17  OXT UNL     1      29.086 -24.478 -15.689  0.00  0.00    -0.248 OA
ATOM     18  C   UNL     1      29.482 -24.757 -14.563  0.00  0.00    +0.334 C 
BRANCH  18  19
ATOM     19  O   UNL     1      28.880 -25.676 -13.773  0.00  0.00    -0.479 OA
ATOM     20  H   UNL     1      29.129 -26.578 -13.829  0.00  0.00    +0.295 HD
ENDBRANCH  18  19
ENDBRANCH  16  18
ENDBRANCH  13  16
ENDBRANCH   7  14
BRANCH   5  21
ATOM     21  O   UNL     1      31.804 -22.761 -17.280  0.00  0.00    -0.373 OA
ATOM     22  H   UNL     1      31.433 -23.616 -17.384  0.00  0.00    +0.211 HD
ENDBRANCH   5  21
BRANCH   9  23
ATOM     23  O   UNL     1      36.420 -20.058 -20.801  0.00  0.00    -0.453 OA
BRANCH  23  24
ATOM     24  C   UNL     1      35.837 -19.130 -21.648  0.00  0.00    +0.145 C 
ATOM     25  C   UNL     1      35.180 -19.573 -22.782  0.00  0.00    +0.037 C 
ATOM     26  C   UNL     1      35.929 -17.785 -21.339  0.00  0.00    +0.037 C 
ATOM     27  C   UNL     1      34.594 -18.639 -23.636  0.00  0.00    +0.003 C 
ATOM     28  C   UNL     1      35.343 -16.851 -22.194  0.00  0.00    +0.003 C 
ATOM     29  C   UNL     1      34.676 -17.277 -23.342  0.00  0.00    +0.000 C 
ENDBRANCH  23  24
ENDBRANCH   9  23
TORSDOF 7
ENDMDL
