MODEL 1
REMARK VINA RESULT:     -11.5      0.000      0.000
REMARK  Name = 68289010
REMARK  3 active torsions:
REMARK  status: ('A' for Active; 'I' for Inactive)
REMARK    1  A    between atoms: N_1  and  C_16
REMARK    2  A    between atoms: C_8  and  C_12
REMARK    3  A    between atoms: C_16  and  C_20
REMARK                            x       y       z     vdW  Elec       q    Type
REMARK                         _______ _______ _______ _____ _____    ______ ____
ROOT
ATOM      1  N   UNL     1      34.926 -16.964 -22.885  0.00  0.00    -0.165 N 
ATOM      2  N   UNL     1      34.863 -18.061 -23.665  0.00  0.00    -0.033 NA
ATOM      3  N   UNL     1      34.228 -14.629 -23.071  0.00  0.00    -0.378 NA
ATOM      4  N   UNL     1      34.261 -17.718 -24.804  0.00  0.00    -0.086 NA
ATOM      5  N   UNL     1      33.331 -15.615 -25.644  0.00  0.00    -0.208 NA
ATOM      6  C   UNL     1      34.365 -15.892 -23.503  0.00  0.00    +0.267 C 
ATOM      7  C   UNL     1      33.949 -16.392 -24.722  0.00  0.00    +0.098 C 
ATOM      8  C   UNL     1      33.609 -13.864 -24.000  0.00  0.00    +0.140 C 
ATOM      9  C   UNL     1      33.179 -14.336 -25.231  0.00  0.00    +0.195 C 
ENDROOT
BRANCH   8  12
ATOM     10  N   UNL     1      32.559 -10.692 -22.736  0.00  0.00    -0.208 N 
ATOM     11  N   UNL     1      33.607 -10.223 -23.437  0.00  0.00    -0.176 NA
ATOM     12  C   UNL     1      33.410 -12.489 -23.640  0.00  0.00    +0.064 C 
ATOM     13  C   UNL     1      32.398 -12.044 -22.826  0.00  0.00    +0.088 C 
ATOM     14  C   UNL     1      34.122 -11.325 -23.986  0.00  0.00    +0.121 C 
ATOM     15  C   UNL     1      31.731  -9.778 -21.986  0.00  0.00    +0.140 C 
ENDBRANCH   8  12
BRANCH   1  16
ATOM     16  C   UNL     1      35.559 -17.030 -21.506  0.00  0.00    +0.122 C 
ATOM     17  C   UNL     1      34.980 -15.959 -20.573  0.00  0.00    +0.028 C 
BRANCH  16  20
ATOM     18  N   UNL     1      34.289 -20.283 -20.087  0.00  0.00    -0.247 N 
ATOM     19  N   UNL     1      35.173 -22.161 -19.254  0.00  0.00    -0.227 NA
ATOM     20  C   UNL     1      35.454 -18.395 -20.906  0.00  0.00    +0.013 C 
ATOM     21  C   UNL     1      34.283 -19.009 -20.647  0.00  0.00    +0.068 C 
ATOM     22  C   UNL     1      36.692 -19.100 -20.586  0.00  0.00    +0.002 C 
ATOM     23  C   UNL     1      35.450 -20.981 -19.770  0.00  0.00    +0.139 C 
ATOM     24  C   UNL     1      36.688 -20.333 -20.044  0.00  0.00    +0.035 C 
ATOM     25  C   UNL     1      33.234 -21.089 -19.742  0.00  0.00    +0.092 C 
ATOM     26  C   UNL     1      33.803 -22.234 -19.234  0.00  0.00    +0.117 C 
ENDBRANCH  16  20
ENDBRANCH   1  16
TORSDOF 3
ENDMDL
MODEL 2
REMARK VINA RESULT:     -11.0      4.939      8.814
REMARK  Name = 68289010
REMARK  3 active torsions:
REMARK  status: ('A' for Active; 'I' for Inactive)
REMARK    1  A    between atoms: N_1  and  C_16
REMARK    2  A    between atoms: C_8  and  C_12
REMARK    3  A    between atoms: C_16  and  C_20
REMARK                            x       y       z     vdW  Elec       q    Type
REMARK                         _______ _______ _______ _____ _____    ______ ____
ROOT
ATOM      1  N   UNL     1      35.236 -23.020 -16.611  0.00  0.00    -0.165 N 
ATOM      2  N   UNL     1      34.240 -23.787 -16.125  0.00  0.00    -0.033 NA
ATOM      3  N   UNL     1      35.503 -21.448 -18.464  0.00  0.00    -0.378 NA
ATOM      4  N   UNL     1      33.165 -23.594 -16.890  0.00  0.00    -0.086 NA
ATOM      5  N   UNL     1      32.733 -22.201 -18.856  0.00  0.00    -0.208 NA
ATOM      6  C   UNL     1      34.824 -22.316 -17.698  0.00  0.00    +0.267 C 
ATOM      7  C   UNL     1      33.505 -22.695 -17.859  0.00  0.00    +0.098 C 
ATOM      8  C   UNL     1      34.721 -20.962 -19.455  0.00  0.00    +0.140 C 
ATOM      9  C   UNL     1      33.394 -21.322 -19.643  0.00  0.00    +0.195 C 
ENDROOT
BRANCH   8  12
ATOM     10  N   UNL     1      35.637 -18.568 -21.943  0.00  0.00    -0.208 N 
ATOM     11  N   UNL     1      36.859 -18.671 -21.392  0.00  0.00    -0.176 NA
ATOM     12  C   UNL     1      35.349 -20.021 -20.338  0.00  0.00    +0.064 C 
ATOM     13  C   UNL     1      34.697 -19.357 -21.347  0.00  0.00    +0.088 C 
ATOM     14  C   UNL     1      36.677 -19.560 -20.413  0.00  0.00    +0.121 C 
ATOM     15  C   UNL     1      35.428 -17.679 -23.060  0.00  0.00    +0.140 C 
ENDBRANCH   8  12
BRANCH   1  16
ATOM     16  C   UNL     1      36.603 -23.015 -15.949  0.00  0.00    +0.122 C 
ATOM     17  C   UNL     1      37.149 -21.589 -15.807  0.00  0.00    +0.028 C 
BRANCH  16  20
ATOM     18  N   UNL     1      36.113 -23.960 -12.333  0.00  0.00    -0.247 N 
ATOM     19  N   UNL     1      36.565 -25.717 -11.026  0.00  0.00    -0.227 NA
ATOM     20  C   UNL     1      36.592 -23.731 -14.638  0.00  0.00    +0.013 C 
ATOM     21  C   UNL     1      36.076 -23.213 -13.507  0.00  0.00    +0.068 C 
ATOM     22  C   UNL     1      37.174 -25.071 -14.584  0.00  0.00    +0.002 C 
ATOM     23  C   UNL     1      36.660 -25.237 -12.249  0.00  0.00    +0.139 C 
ATOM     24  C   UNL     1      37.205 -25.787 -13.444  0.00  0.00    +0.035 C 
ATOM     25  C   UNL     1      35.656 -23.640 -11.080  0.00  0.00    +0.092 C 
ATOM     26  C   UNL     1      35.944 -24.733 -10.298  0.00  0.00    +0.117 C 
ENDBRANCH  16  20
ENDBRANCH   1  16
TORSDOF 3
ENDMDL
MODEL 3
REMARK VINA RESULT:     -10.7      2.993      9.661
REMARK  Name = 68289010
REMARK  3 active torsions:
REMARK  status: ('A' for Active; 'I' for Inactive)
REMARK    1  A    between atoms: N_1  and  C_16
REMARK    2  A    between atoms: C_8  and  C_12
REMARK    3  A    between atoms: C_16  and  C_20
REMARK                            x       y       z     vdW  Elec       q    Type
REMARK                         _______ _______ _______ _____ _____    ______ ____
ROOT
ATOM      1  N   UNL     1      34.566 -20.530 -19.780  0.00  0.00    -0.165 N 
ATOM      2  N   UNL     1      33.375 -20.513 -20.413  0.00  0.00    -0.033 NA
ATOM      3  N   UNL     1      35.516 -21.688 -17.850  0.00  0.00    -0.378 NA
ATOM      4  N   UNL     1      32.563 -21.357 -19.776  0.00  0.00    -0.086 NA
ATOM      5  N   UNL     1      32.844 -22.808 -17.824  0.00  0.00    -0.208 NA
ATOM      6  C   UNL     1      34.546 -21.386 -18.725  0.00  0.00    +0.267 C 
ATOM      7  C   UNL     1      33.264 -21.901 -18.739  0.00  0.00    +0.098 C 
ATOM      8  C   UNL     1      35.085 -22.594 -16.942  0.00  0.00    +0.140 C 
ATOM      9  C   UNL     1      33.806 -23.131 -16.930  0.00  0.00    +0.195 C 
ENDROOT
BRANCH   8  12
ATOM     10  N   UNL     1      36.970 -24.028 -14.268  0.00  0.00    -0.208 N 
ATOM     11  N   UNL     1      37.930 -23.179 -14.675  0.00  0.00    -0.176 NA
ATOM     12  C   UNL     1      36.047 -22.990 -15.953  0.00  0.00    +0.064 C 
ATOM     13  C   UNL     1      35.823 -23.954 -15.002  0.00  0.00    +0.088 C 
ATOM     14  C   UNL     1      37.360 -22.548 -15.704  0.00  0.00    +0.121 C 
ATOM     15  C   UNL     1      37.216 -24.904 -13.148  0.00  0.00    +0.140 C 
ENDBRANCH   8  12
BRANCH   1  16
ATOM     16  C   UNL     1      35.715 -19.668 -20.271  0.00  0.00    +0.122 C 
ATOM     17  C   UNL     1      36.986 -20.499 -20.482  0.00  0.00    +0.028 C 
BRANCH  16  20
ATOM     18  N   UNL     1      35.025 -16.930 -22.769  0.00  0.00    -0.247 N 
ATOM     19  N   UNL     1      34.352 -16.788 -24.897  0.00  0.00    -0.227 NA
ATOM     20  C   UNL     1      35.352 -18.899 -21.500  0.00  0.00    +0.013 C 
ATOM     21  C   UNL     1      35.380 -17.555 -21.577  0.00  0.00    +0.068 C 
ATOM     22  C   UNL     1      34.946 -19.653 -22.684  0.00  0.00    +0.002 C 
ATOM     23  C   UNL     1      34.633 -17.618 -23.913  0.00  0.00    +0.139 C 
ATOM     24  C   UNL     1      34.603 -19.039 -23.834  0.00  0.00    +0.035 C 
ATOM     25  C   UNL     1      34.979 -15.593 -23.073  0.00  0.00    +0.092 C 
ATOM     26  C   UNL     1      34.565 -15.533 -24.383  0.00  0.00    +0.117 C 
ENDBRANCH  16  20
ENDBRANCH   1  16
TORSDOF 3
ENDMDL
MODEL 4
REMARK VINA RESULT:     -10.6      4.812      8.608
REMARK  Name = 68289010
REMARK  3 active torsions:
REMARK  status: ('A' for Active; 'I' for Inactive)
REMARK    1  A    between atoms: N_1  and  C_16
REMARK    2  A    between atoms: C_8  and  C_12
REMARK    3  A    between atoms: C_16  and  C_20
REMARK                            x       y       z     vdW  Elec       q    Type
REMARK                         _______ _______ _______ _____ _____    ______ ____
ROOT
ATOM      1  N   UNL     1      35.451 -22.795 -16.799  0.00  0.00    -0.165 N 
ATOM      2  N   UNL     1      34.519 -23.591 -16.237  0.00  0.00    -0.033 NA
ATOM      3  N   UNL     1      35.543 -21.260 -18.698  0.00  0.00    -0.378 NA
ATOM      4  N   UNL     1      33.394 -23.460 -16.941  0.00  0.00    -0.086 NA
ATOM      5  N   UNL     1      32.789 -22.135 -18.909  0.00  0.00    -0.208 NA
ATOM      6  C   UNL     1      34.947 -22.136 -17.875  0.00  0.00    +0.267 C 
ATOM      7  C   UNL     1      33.638 -22.572 -17.948  0.00  0.00    +0.098 C 
ATOM      8  C   UNL     1      34.685 -20.831 -19.652  0.00  0.00    +0.140 C 
ATOM      9  C   UNL     1      33.366 -21.249 -19.752  0.00  0.00    +0.195 C 
ENDROOT
BRANCH   8  12
ATOM     10  N   UNL     1      35.376 -18.527 -22.293  0.00  0.00    -0.208 N 
ATOM     11  N   UNL     1      36.588 -18.447 -21.717  0.00  0.00    -0.176 NA
ATOM     12  C   UNL     1      35.220 -19.888 -20.591  0.00  0.00    +0.064 C 
ATOM     13  C   UNL     1      34.520 -19.377 -21.656  0.00  0.00    +0.088 C 
ATOM     14  C   UNL     1      36.487 -19.280 -20.679  0.00  0.00    +0.121 C 
ATOM     15  C   UNL     1      35.091 -17.751 -23.475  0.00  0.00    +0.140 C 
ENDBRANCH   8  12
BRANCH   1  16
ATOM     16  C   UNL     1      36.853 -22.719 -16.220  0.00  0.00    +0.122 C 
ATOM     17  C   UNL     1      37.341 -21.268 -16.128  0.00  0.00    +0.028 C 
BRANCH  16  20
ATOM     18  N   UNL     1      37.237 -25.295 -13.494  0.00  0.00    -0.247 N 
ATOM     19  N   UNL     1      37.227 -25.325 -11.259  0.00  0.00    -0.227 NA
ATOM     20  C   UNL     1      36.953 -23.415 -14.901  0.00  0.00    +0.013 C 
ATOM     21  C   UNL     1      37.159 -24.739 -14.768  0.00  0.00    +0.068 C 
ATOM     22  C   UNL     1      36.818 -22.609 -13.690  0.00  0.00    +0.002 C 
ATOM     23  C   UNL     1      37.114 -24.556 -12.322  0.00  0.00    +0.139 C 
ATOM     24  C   UNL     1      36.896 -23.156 -12.461  0.00  0.00    +0.035 C 
ATOM     25  C   UNL     1      37.439 -26.600 -13.123  0.00  0.00    +0.092 C 
ATOM     26  C   UNL     1      37.429 -26.591 -11.748  0.00  0.00    +0.117 C 
ENDBRANCH  16  20
ENDBRANCH   1  16
TORSDOF 3
ENDMDL
MODEL 5
REMARK VINA RESULT:     -10.4      4.892     11.587
REMARK  Name = 68289010
REMARK  3 active torsions:
REMARK  status: ('A' for Active; 'I' for Inactive)
REMARK    1  A    between atoms: N_1  and  C_16
REMARK    2  A    between atoms: C_8  and  C_12
REMARK    3  A    between atoms: C_16  and  C_20
REMARK                            x       y       z     vdW  Elec       q    Type
REMARK                         _______ _______ _______ _____ _____    ______ ____
ROOT
ATOM      1  N   UNL     1      33.567 -23.223 -17.312  0.00  0.00    -0.165 N 
ATOM      2  N   UNL     1      32.301 -22.769 -17.393  0.00  0.00    -0.033 NA
ATOM      3  N   UNL     1      35.037 -24.034 -15.536  0.00  0.00    -0.378 NA
ATOM      4  N   UNL     1      31.780 -22.794 -16.166  0.00  0.00    -0.086 NA
ATOM      5  N   UNL     1      32.658 -23.468 -13.982  0.00  0.00    -0.208 NA
ATOM      6  C   UNL     1      33.889 -23.551 -16.033  0.00  0.00    +0.267 C 
ATOM      7  C   UNL     1      32.739 -23.271 -15.320  0.00  0.00    +0.098 C 
ATOM      8  C   UNL     1      34.944 -24.227 -14.200  0.00  0.00    +0.140 C 
ATOM      9  C   UNL     1      33.804 -23.956 -13.456  0.00  0.00    +0.195 C 
ENDROOT
BRANCH   8  12
ATOM     10  N   UNL     1      38.172 -25.424 -13.250  0.00  0.00    -0.208 N 
ATOM     11  N   UNL     1      37.601 -25.592 -12.045  0.00  0.00    -0.176 NA
ATOM     12  C   UNL     1      36.120 -24.744 -13.562  0.00  0.00    +0.064 C 
ATOM     13  C   UNL     1      37.327 -24.919 -14.194  0.00  0.00    +0.088 C 
ATOM     14  C   UNL     1      36.348 -25.175 -12.241  0.00  0.00    +0.121 C 
ATOM     15  C   UNL     1      39.559 -25.774 -13.441  0.00  0.00    +0.140 C 
ENDBRANCH   8  12
BRANCH   1  16
ATOM     16  C   UNL     1      34.435 -23.319 -18.555  0.00  0.00    +0.122 C 
ATOM     17  C   UNL     1      33.907 -24.384 -19.524  0.00  0.00    +0.028 C 
BRANCH  16  20
ATOM     18  N   UNL     1      35.835 -20.184 -20.110  0.00  0.00    -0.247 N 
ATOM     19  N   UNL     1      35.028 -18.343 -21.091  0.00  0.00    -0.227 NA
ATOM     20  C   UNL     1      34.596 -21.996 -19.229  0.00  0.00    +0.013 C 
ATOM     21  C   UNL     1      35.789 -21.422 -19.475  0.00  0.00    +0.068 C 
ATOM     22  C   UNL     1      33.387 -21.287 -19.644  0.00  0.00    +0.002 C 
ATOM     23  C   UNL     1      34.704 -19.484 -20.517  0.00  0.00    +0.139 C 
ATOM     24  C   UNL     1      33.441 -20.089 -20.258  0.00  0.00    +0.035 C 
ATOM     25  C   UNL     1      36.921 -19.421 -20.458  0.00  0.00    +0.092 C 
ATOM     26  C   UNL     1      36.399 -18.299 -21.058  0.00  0.00    +0.117 C 
ENDBRANCH  16  20
ENDBRANCH   1  16
TORSDOF 3
ENDMDL
MODEL 6
REMARK VINA RESULT:     -10.1      1.433      8.368
REMARK  Name = 68289010
REMARK  3 active torsions:
REMARK  status: ('A' for Active; 'I' for Inactive)
REMARK    1  A    between atoms: N_1  and  C_16
REMARK    2  A    between atoms: C_8  and  C_12
REMARK    3  A    between atoms: C_16  and  C_20
REMARK                            x       y       z     vdW  Elec       q    Type
REMARK                         _______ _______ _______ _____ _____    ______ ____
ROOT
ATOM      1  N   UNL     1      33.548 -14.561 -23.360  0.00  0.00    -0.165 N 
ATOM      2  N   UNL     1      33.139 -14.232 -24.602  0.00  0.00    -0.033 NA
ATOM      3  N   UNL     1      34.624 -16.489 -22.314  0.00  0.00    -0.378 NA
ATOM      4  N   UNL     1      33.420 -15.256 -25.408  0.00  0.00    -0.086 NA
ATOM      5  N   UNL     1      34.465 -17.441 -25.046  0.00  0.00    -0.208 NA
ATOM      6  C   UNL     1      34.102 -15.802 -23.340  0.00  0.00    +0.267 C 
ATOM      7  C   UNL     1      34.011 -16.227 -24.652  0.00  0.00    +0.098 C 
ATOM      8  C   UNL     1      35.074 -17.699 -22.720  0.00  0.00    +0.140 C 
ATOM      9  C   UNL     1      34.998 -18.155 -24.029  0.00  0.00    +0.195 C 
ENDROOT
BRANCH   8  12
ATOM     10  N   UNL     1      35.901 -20.094 -20.202  0.00  0.00    -0.208 N 
ATOM     11  N   UNL     1      37.072 -19.435 -20.158  0.00  0.00    -0.176 NA
ATOM     12  C   UNL     1      35.655 -18.522 -21.698  0.00  0.00    +0.064 C 
ATOM     13  C   UNL     1      35.018 -19.586 -21.109  0.00  0.00    +0.088 C 
ATOM     14  C   UNL     1      36.916 -18.476 -21.073  0.00  0.00    +0.121 C 
ATOM     15  C   UNL     1      35.682 -21.225 -19.333  0.00  0.00    +0.140 C 
ENDBRANCH   8  12
BRANCH   1  16
ATOM     16  C   UNL     1      33.368 -13.592 -22.205  0.00  0.00    +0.122 C 
ATOM     17  C   UNL     1      34.531 -13.687 -21.210  0.00  0.00    +0.028 C 
BRANCH  16  20
ATOM     18  N   UNL     1      31.970 -10.159 -22.889  0.00  0.00    -0.247 N 
ATOM     19  N   UNL     1      32.612  -8.319 -23.986  0.00  0.00    -0.227 NA
ATOM     20  C   UNL     1      33.164 -12.189 -22.678  0.00  0.00    +0.013 C 
ATOM     21  C   UNL     1      32.066 -11.459 -22.402  0.00  0.00    +0.068 C 
ATOM     22  C   UNL     1      34.218 -11.578 -23.484  0.00  0.00    +0.002 C 
ATOM     23  C   UNL     1      32.954  -9.548 -23.658  0.00  0.00    +0.139 C 
ATOM     24  C   UNL     1      34.116 -10.318 -23.950  0.00  0.00    +0.035 C 
ATOM     25  C   UNL     1      30.960  -9.243 -22.736  0.00  0.00    +0.092 C 
ATOM     26  C   UNL     1      31.378  -8.124 -23.417  0.00  0.00    +0.117 C 
ENDBRANCH  16  20
ENDBRANCH   1  16
TORSDOF 3
ENDMDL
MODEL 7
REMARK VINA RESULT:     -10.1      3.963      7.425
REMARK  Name = 68289010
REMARK  3 active torsions:
REMARK  status: ('A' for Active; 'I' for Inactive)
REMARK    1  A    between atoms: N_1  and  C_16
REMARK    2  A    between atoms: C_8  and  C_12
REMARK    3  A    between atoms: C_16  and  C_20
REMARK                            x       y       z     vdW  Elec       q    Type
REMARK                         _______ _______ _______ _____ _____    ______ ____
ROOT
ATOM      1  N   UNL     1      31.500 -10.245 -20.107  0.00  0.00    -0.165 N 
ATOM      2  N   UNL     1      31.296 -10.251 -18.774  0.00  0.00    -0.033 NA
ATOM      3  N   UNL     1      32.609  -8.773 -21.711  0.00  0.00    -0.378 NA
ATOM      4  N   UNL     1      31.865  -9.156 -18.270  0.00  0.00    -0.086 NA
ATOM      5  N   UNL     1      33.109  -7.299 -19.268  0.00  0.00    -0.208 NA
ATOM      6  C   UNL     1      32.204  -9.148 -20.489  0.00  0.00    +0.267 C 
ATOM      7  C   UNL     1      32.426  -8.468 -19.306  0.00  0.00    +0.098 C 
ATOM      8  C   UNL     1      33.289  -7.605 -21.659  0.00  0.00    +0.140 C 
ATOM      9  C   UNL     1      33.530  -6.899 -20.489  0.00  0.00    +0.195 C 
ENDROOT
BRANCH   8  12
ATOM     10  N   UNL     1      33.800  -6.352 -24.966  0.00  0.00    -0.208 N 
ATOM     11  N   UNL     1      35.101  -6.388 -24.628  0.00  0.00    -0.176 NA
ATOM     12  C   UNL     1      33.771  -7.108 -22.917  0.00  0.00    +0.064 C 
ATOM     13  C   UNL     1      32.963  -6.773 -23.975  0.00  0.00    +0.088 C 
ATOM     14  C   UNL     1      35.077  -6.851 -23.376  0.00  0.00    +0.121 C 
ATOM     15  C   UNL     1      33.413  -5.895 -26.278  0.00  0.00    +0.140 C 
ENDBRANCH   8  12
BRANCH   1  16
ATOM     16  C   UNL     1      30.970 -11.372 -20.976  0.00  0.00    +0.122 C 
ATOM     17  C   UNL     1      30.481 -10.850 -22.332  0.00  0.00    +0.028 C 
BRANCH  16  20
ATOM     18  N   UNL     1      33.487 -13.813 -22.362  0.00  0.00    -0.247 N 
ATOM     19  N   UNL     1      34.733 -15.498 -21.582  0.00  0.00    -0.227 NA
ATOM     20  C   UNL     1      31.971 -12.470 -21.140  0.00  0.00    +0.013 C 
ATOM     21  C   UNL     1      32.565 -12.771 -22.311  0.00  0.00    +0.068 C 
ATOM     22  C   UNL     1      32.323 -13.258 -19.961  0.00  0.00    +0.002 C 
ATOM     23  C   UNL     1      33.843 -14.582 -21.259  0.00  0.00    +0.139 C 
ATOM     24  C   UNL     1      33.217 -14.265 -20.020  0.00  0.00    +0.035 C 
ATOM     25  C   UNL     1      34.204 -14.291 -23.429  0.00  0.00    +0.092 C 
ATOM     26  C   UNL     1      34.961 -15.323 -22.924  0.00  0.00    +0.117 C 
ENDBRANCH  16  20
ENDBRANCH   1  16
TORSDOF 3
ENDMDL
MODEL 8
REMARK VINA RESULT:     -10.0      3.226      7.056
REMARK  Name = 68289010
REMARK  3 active torsions:
REMARK  status: ('A' for Active; 'I' for Inactive)
REMARK    1  A    between atoms: N_1  and  C_16
REMARK    2  A    between atoms: C_8  and  C_12
REMARK    3  A    between atoms: C_16  and  C_20
REMARK                            x       y       z     vdW  Elec       q    Type
REMARK                         _______ _______ _______ _____ _____    ______ ____
ROOT
ATOM      1  N   UNL     1      35.123 -21.839 -18.624  0.00  0.00    -0.165 N 
ATOM      2  N   UNL     1      36.021 -22.017 -17.635  0.00  0.00    -0.033 NA
ATOM      3  N   UNL     1      34.925 -20.394 -20.585  0.00  0.00    -0.378 NA
ATOM      4  N   UNL     1      37.024 -21.161 -17.837  0.00  0.00    -0.086 NA
ATOM      5  N   UNL     1      37.470 -19.471 -19.551  0.00  0.00    -0.208 NA
ATOM      6  C   UNL     1      35.527 -20.867 -19.483  0.00  0.00    +0.267 C 
ATOM      7  C   UNL     1      36.738 -20.449 -18.965  0.00  0.00    +0.098 C 
ATOM      8  C   UNL     1      35.665 -19.418 -21.160  0.00  0.00    +0.140 C 
ATOM      9  C   UNL     1      36.885 -18.977 -20.666  0.00  0.00    +0.195 C 
ENDROOT
BRANCH   8  12
ATOM     10  N   UNL     1      34.562 -17.369 -23.870  0.00  0.00    -0.208 N 
ATOM     11  N   UNL     1      34.050 -18.518 -24.346  0.00  0.00    -0.176 NA
ATOM     12  C   UNL     1      35.113 -18.838 -22.351  0.00  0.00    +0.064 C 
ATOM     13  C   UNL     1      35.209 -17.508 -22.677  0.00  0.00    +0.088 C 
ATOM     14  C   UNL     1      34.389 -19.411 -23.414  0.00  0.00    +0.121 C 
ATOM     15  C   UNL     1      34.396 -16.146 -24.618  0.00  0.00    +0.140 C 
ENDBRANCH   8  12
BRANCH   1  16
ATOM     16  C   UNL     1      33.856 -22.675 -18.677  0.00  0.00    +0.122 C 
ATOM     17  C   UNL     1      34.065 -23.954 -19.498  0.00  0.00    +0.028 C 
BRANCH  16  20
ATOM     18  N   UNL     1      33.467 -23.828 -15.110  0.00  0.00    -0.247 N 
ATOM     19  N   UNL     1      31.865 -23.813 -13.550  0.00  0.00    -0.227 NA
ATOM     20  C   UNL     1      33.329 -22.979 -17.313  0.00  0.00    +0.013 C 
ATOM     21  C   UNL     1      34.049 -23.589 -16.352  0.00  0.00    +0.068 C 
ATOM     22  C   UNL     1      31.953 -22.591 -17.008  0.00  0.00    +0.002 C 
ATOM     23  C   UNL     1      32.162 -23.472 -14.788  0.00  0.00    +0.139 C 
ATOM     24  C   UNL     1      31.399 -22.827 -15.803  0.00  0.00    +0.035 C 
ATOM     25  C   UNL     1      34.002 -24.426 -13.997  0.00  0.00    +0.092 C 
ATOM     26  C   UNL     1      33.000 -24.403 -13.056  0.00  0.00    +0.117 C 
ENDBRANCH  16  20
ENDBRANCH   1  16
TORSDOF 3
ENDMDL
MODEL 9
REMARK VINA RESULT:      -9.9      3.078      6.394
REMARK  Name = 68289010
REMARK  3 active torsions:
REMARK  status: ('A' for Active; 'I' for Inactive)
REMARK    1  A    between atoms: N_1  and  C_16
REMARK    2  A    between atoms: C_8  and  C_12
REMARK    3  A    between atoms: C_16  and  C_20
REMARK                            x       y       z     vdW  Elec       q    Type
REMARK                         _______ _______ _______ _____ _____    ______ ____
ROOT
ATOM      1  N   UNL     1      32.543 -11.992 -21.985  0.00  0.00    -0.165 N 
ATOM      2  N   UNL     1      32.357 -13.070 -21.197  0.00  0.00    -0.033 NA
ATOM      3  N   UNL     1      32.263  -9.575 -21.758  0.00  0.00    -0.378 NA
ATOM      4  N   UNL     1      31.906 -12.639 -20.018  0.00  0.00    -0.086 NA
ATOM      5  N   UNL     1      31.407 -10.417 -19.121  0.00  0.00    -0.208 NA
ATOM      6  C   UNL     1      32.219 -10.846 -21.331  0.00  0.00    +0.267 C 
ATOM      7  C   UNL     1      31.816 -11.279 -20.082  0.00  0.00    +0.098 C 
ATOM      8  C   UNL     1      31.852  -8.724 -20.790  0.00  0.00    +0.140 C 
ATOM      9  C   UNL     1      31.443  -9.127 -19.527  0.00  0.00    +0.195 C 
ENDROOT
BRANCH   8  12
ATOM     10  N   UNL     1      31.427  -5.462 -22.181  0.00  0.00    -0.208 N 
ATOM     11  N   UNL     1      32.265  -5.086 -21.199  0.00  0.00    -0.176 NA
ATOM     12  C   UNL     1      31.859  -7.333 -21.141  0.00  0.00    +0.064 C 
ATOM     13  C   UNL     1      31.152  -6.798 -22.189  0.00  0.00    +0.088 C 
ATOM     14  C   UNL     1      32.525  -6.233 -20.567  0.00  0.00    +0.121 C 
ATOM     15  C   UNL     1      30.913  -4.475 -23.100  0.00  0.00    +0.140 C 
ENDBRANCH   8  12
BRANCH   1  16
ATOM     16  C   UNL     1      33.058 -12.153 -23.405  0.00  0.00    +0.122 C 
ATOM     17  C   UNL     1      34.200 -11.172 -23.698  0.00  0.00    +0.028 C 
BRANCH  16  20
ATOM     18  N   UNL     1      34.503 -15.630 -23.224  0.00  0.00    -0.247 N 
ATOM     19  N   UNL     1      34.552 -17.451 -24.521  0.00  0.00    -0.227 NA
ATOM     20  C   UNL     1      33.457 -13.562 -23.699  0.00  0.00    +0.013 C 
ATOM     21  C   UNL     1      34.182 -14.326 -22.859  0.00  0.00    +0.068 C 
ATOM     22  C   UNL     1      33.035 -14.142 -24.972  0.00  0.00    +0.002 C 
ATOM     23  C   UNL     1      34.117 -16.211 -24.428  0.00  0.00    +0.139 C 
ATOM     24  C   UNL     1      33.351 -15.405 -25.318  0.00  0.00    +0.035 C 
ATOM     25  C   UNL     1      35.220 -16.576 -22.538  0.00  0.00    +0.092 C 
ATOM     26  C   UNL     1      35.235 -17.683 -23.354  0.00  0.00    +0.117 C 
ENDBRANCH  16  20
ENDBRANCH   1  16
TORSDOF 3
ENDMDL
