MODEL 1
REMARK VINA RESULT:     -11.7      0.000      0.000
REMARK  Name = 11574606
REMARK  6 active torsions:
REMARK  status: ('A' for Active; 'I' for Inactive)
REMARK    1  A    between atoms: C_5  and  O_24
REMARK    2  A    between atoms: C_7  and  N_10
REMARK    3  A    between atoms: N_10  and  C_12
REMARK    4  A    between atoms: C_15  and  S_18
REMARK    5  A    between atoms: S_18  and  N_21
REMARK    6  A    between atoms: O_24  and  C_25
REMARK                            x       y       z     vdW  Elec       q    Type
REMARK                         _______ _______ _______ _____ _____    ______ ____
ROOT
ATOM      1  N   UNL     1      33.157 -23.643 -13.921  0.00  0.00    -0.299 NA
ATOM      2  N   UNL     1      32.205 -23.119 -16.066  0.00  0.00    -0.106 N 
ATOM      3  N   UNL     1      30.996 -22.760 -16.575  0.00  0.00    -0.139 NA
ATOM      4  N   UNL     1      30.842 -23.034 -14.319  0.00  0.00    -0.145 NA
ATOM      5  C   UNL     1      34.265 -23.819 -14.568  0.00  0.00    +0.291 C 
ATOM      6  C   UNL     1      34.497 -23.674 -16.021  0.00  0.00    +0.105 C 
ATOM      7  C   UNL     1      33.419 -23.317 -16.740  0.00  0.00    +0.142 C 
ATOM      8  C   UNL     1      32.085 -23.281 -14.681  0.00  0.00    +0.178 C 
ATOM      9  C   UNL     1      30.229 -22.725 -15.490  0.00  0.00    +0.230 C 
ENDROOT
BRANCH   7  10
ATOM     10  N   UNL     1      33.429 -23.132 -18.094  0.00  0.00    -0.299 N 
ATOM     11  H   UNL     1      32.967 -23.821 -18.624  0.00  0.00    +0.153 HD
BRANCH  10  12
ATOM     12  C   UNL     1      34.011 -22.091 -18.823  0.00  0.00    +0.049 C 
ATOM     13  C   UNL     1      33.211 -21.187 -19.533  0.00  0.00    +0.016 C 
ATOM     14  C   UNL     1      35.404 -21.938 -18.853  0.00  0.00    +0.016 C 
ATOM     15  C   UNL     1      35.180 -20.005 -20.285  0.00  0.00    +0.122 C 
ATOM     16  C   UNL     1      33.793 -20.148 -20.260  0.00  0.00    +0.021 C 
ATOM     17  C   UNL     1      35.985 -20.901 -19.581  0.00  0.00    +0.021 C 
BRANCH  15  18
ATOM     18  S   UNL     1      35.908 -18.706 -21.195  0.00  0.00    +0.057 S 
ATOM     19  O   UNL     1      35.739 -18.990 -22.615  0.00  0.00    -0.153 OA
ATOM     20  O   UNL     1      35.441 -17.439 -20.651  0.00  0.00    -0.153 OA
BRANCH  18  21
ATOM     21  N   UNL     1      37.555 -18.905 -20.786  0.00  0.00    -0.203 NA
ATOM     22  H   UNL     1      38.028 -19.430 -21.523  0.00  0.00    +0.144 HD
ATOM     23  H   UNL     1      37.628 -19.416 -19.906  0.00  0.00    +0.144 HD
ENDBRANCH  18  21
ENDBRANCH  15  18
ENDBRANCH  10  12
ENDBRANCH   7  10
BRANCH   5  24
ATOM     24  O   UNL     1      35.388 -24.180 -13.901  0.00  0.00    -0.455 OA
BRANCH  24  25
ATOM     25  C   UNL     1      36.392 -24.671 -14.788  0.00  0.00    +0.169 C 
ATOM     26  C   UNL     1      37.730 -23.999 -14.476  0.00  0.00    +0.044 C 
ATOM     27  C   UNL     1      36.476 -26.190 -14.640  0.00  0.00    +0.044 C 
ATOM     28  C   UNL     1      38.281 -24.419 -13.112  0.00  0.00    +0.004 C 
ATOM     29  C   UNL     1      37.032 -26.607 -13.278  0.00  0.00    +0.004 C 
ATOM     30  C   UNL     1      38.371 -25.938 -12.987  0.00  0.00    +0.000 C 
ENDBRANCH  24  25
ENDBRANCH   5  24
TORSDOF 6
ENDMDL
MODEL 2
REMARK VINA RESULT:     -10.2      2.006      4.741
REMARK  Name = 11574606
REMARK  6 active torsions:
REMARK  status: ('A' for Active; 'I' for Inactive)
REMARK    1  A    between atoms: C_5  and  O_24
REMARK    2  A    between atoms: C_7  and  N_10
REMARK    3  A    between atoms: N_10  and  C_12
REMARK    4  A    between atoms: C_15  and  S_18
REMARK    5  A    between atoms: S_18  and  N_21
REMARK    6  A    between atoms: O_24  and  C_25
REMARK                            x       y       z     vdW  Elec       q    Type
REMARK                         _______ _______ _______ _____ _____    ______ ____
ROOT
ATOM      1  N   UNL     1      33.747 -23.166 -14.097  0.00  0.00    -0.299 NA
ATOM      2  N   UNL     1      35.353 -23.026 -15.882  0.00  0.00    -0.106 N 
ATOM      3  N   UNL     1      36.703 -22.948 -16.023  0.00  0.00    -0.139 NA
ATOM      4  N   UNL     1      36.154 -23.046 -13.814  0.00  0.00    -0.145 NA
ATOM      5  C   UNL     1      32.855 -23.186 -15.035  0.00  0.00    +0.291 C 
ATOM      6  C   UNL     1      33.078 -23.128 -16.497  0.00  0.00    +0.105 C 
ATOM      7  C   UNL     1      34.364 -23.048 -16.877  0.00  0.00    +0.142 C 
ATOM      8  C   UNL     1      35.041 -23.085 -14.518  0.00  0.00    +0.178 C 
ATOM      9  C   UNL     1      37.123 -22.965 -14.761  0.00  0.00    +0.230 C 
ENDROOT
BRANCH   7  10
ATOM     10  N   UNL     1      34.775 -22.986 -18.178  0.00  0.00    -0.299 N 
ATOM     11  H   UNL     1      34.970 -23.850 -18.608  0.00  0.00    +0.153 HD
BRANCH  10  12
ATOM     12  C   UNL     1      34.956 -21.853 -18.978  0.00  0.00    +0.049 C 
ATOM     13  C   UNL     1      33.856 -21.215 -19.564  0.00  0.00    +0.016 C 
ATOM     14  C   UNL     1      36.241 -21.341 -19.202  0.00  0.00    +0.016 C 
ATOM     15  C   UNL     1      35.320 -19.583 -20.580  0.00  0.00    +0.122 C 
ATOM     16  C   UNL     1      34.037 -20.085 -20.362  0.00  0.00    +0.021 C 
ATOM     17  C   UNL     1      36.422 -20.212 -20.000  0.00  0.00    +0.021 C 
BRANCH  15  18
ATOM     18  S   UNL     1      35.547 -18.170 -21.579  0.00  0.00    +0.057 S 
ATOM     19  O   UNL     1      34.814 -18.364 -22.823  0.00  0.00    -0.153 OA
ATOM     20  O   UNL     1      35.297 -16.986 -20.770  0.00  0.00    -0.153 OA
BRANCH  18  21
ATOM     21  N   UNL     1      37.221 -18.268 -21.906  0.00  0.00    -0.203 NA
ATOM     22  H   UNL     1      37.610 -17.326 -21.976  0.00  0.00    +0.144 HD
ATOM     23  H   UNL     1      37.368 -18.762 -22.786  0.00  0.00    +0.144 HD
ENDBRANCH  18  21
ENDBRANCH  15  18
ENDBRANCH  10  12
ENDBRANCH   7  10
BRANCH   5  24
ATOM     24  O   UNL     1      31.541 -23.265 -14.718  0.00  0.00    -0.455 OA
BRANCH  24  25
ATOM     25  C   UNL     1      30.769 -23.788 -15.798  0.00  0.00    +0.169 C 
ATOM     26  C   UNL     1      30.093 -25.091 -15.368  0.00  0.00    +0.044 C 
ATOM     27  C   UNL     1      29.744 -22.736 -16.222  0.00  0.00    +0.044 C 
ATOM     28  C   UNL     1      29.024 -24.859 -14.299  0.00  0.00    +0.004 C 
ATOM     29  C   UNL     1      28.674 -22.509 -15.154  0.00  0.00    +0.004 C 
ATOM     30  C   UNL     1      28.002 -23.816 -14.744  0.00  0.00    +0.000 C 
ENDBRANCH  24  25
ENDBRANCH   5  24
TORSDOF 6
ENDMDL
MODEL 3
REMARK VINA RESULT:     -10.1      3.403      7.012
REMARK  Name = 11574606
REMARK  6 active torsions:
REMARK  status: ('A' for Active; 'I' for Inactive)
REMARK    1  A    between atoms: C_5  and  O_24
REMARK    2  A    between atoms: C_7  and  N_10
REMARK    3  A    between atoms: N_10  and  C_12
REMARK    4  A    between atoms: C_15  and  S_18
REMARK    5  A    between atoms: S_18  and  N_21
REMARK    6  A    between atoms: O_24  and  C_25
REMARK                            x       y       z     vdW  Elec       q    Type
REMARK                         _______ _______ _______ _____ _____    ______ ____
ROOT
ATOM      1  N   UNL     1      31.724 -23.007 -16.355  0.00  0.00    -0.299 NA
ATOM      2  N   UNL     1      32.265 -24.500 -14.548  0.00  0.00    -0.106 N 
ATOM      3  N   UNL     1      31.613 -25.338 -13.700  0.00  0.00    -0.139 NA
ATOM      4  N   UNL     1      30.125 -24.340 -15.107  0.00  0.00    -0.145 NA
ATOM      5  C   UNL     1      32.995 -22.769 -16.407  0.00  0.00    +0.291 C 
ATOM      6  C   UNL     1      34.060 -23.347 -15.557  0.00  0.00    +0.105 C 
ATOM      7  C   UNL     1      33.638 -24.222 -14.628  0.00  0.00    +0.142 C 
ATOM      8  C   UNL     1      31.332 -23.899 -15.401  0.00  0.00    +0.178 C 
ATOM      9  C   UNL     1      30.347 -25.200 -14.081  0.00  0.00    +0.230 C 
ENDROOT
BRANCH   7  10
ATOM     10  N   UNL     1      34.465 -24.862 -13.749  0.00  0.00    -0.299 N 
ATOM     11  H   UNL     1      34.036 -25.219 -12.938  0.00  0.00    +0.153 HD
BRANCH  10  12
ATOM     12  C   UNL     1      35.844 -25.075 -13.852  0.00  0.00    +0.049 C 
ATOM     13  C   UNL     1      36.342 -26.141 -14.611  0.00  0.00    +0.016 C 
ATOM     14  C   UNL     1      36.744 -24.223 -13.198  0.00  0.00    +0.016 C 
ATOM     15  C   UNL     1      38.606 -25.500 -14.058  0.00  0.00    +0.122 C 
ATOM     16  C   UNL     1      37.718 -26.353 -14.714  0.00  0.00    +0.021 C 
ATOM     17  C   UNL     1      38.118 -24.436 -13.300  0.00  0.00    +0.021 C 
BRANCH  15  18
ATOM     18  S   UNL     1      40.326 -25.765 -14.185  0.00  0.00    +0.057 S 
ATOM     19  O   UNL     1      41.009 -24.530 -13.822  0.00  0.00    -0.153 OA
ATOM     20  O   UNL     1      40.656 -27.004 -13.495  0.00  0.00    -0.153 OA
BRANCH  18  21
ATOM     21  N   UNL     1      40.494 -26.013 -15.867  0.00  0.00    -0.203 NA
ATOM     22  H   UNL     1      39.977 -25.291 -16.371  0.00  0.00    +0.144 HD
ATOM     23  H   UNL     1      40.124 -26.930 -16.115  0.00  0.00    +0.144 HD
ENDBRANCH  18  21
ENDBRANCH  15  18
ENDBRANCH  10  12
ENDBRANCH   7  10
BRANCH   5  24
ATOM     24  O   UNL     1      33.484 -21.897 -17.321  0.00  0.00    -0.455 OA
BRANCH  24  25
ATOM     25  C   UNL     1      33.547 -22.477 -18.622  0.00  0.00    +0.169 C 
ATOM     26  C   UNL     1      32.754 -21.620 -19.610  0.00  0.00    +0.044 C 
ATOM     27  C   UNL     1      35.014 -22.599 -19.034  0.00  0.00    +0.044 C 
ATOM     28  C   UNL     1      33.406 -20.255 -19.841  0.00  0.00    +0.004 C 
ATOM     29  C   UNL     1      35.662 -21.234 -19.269  0.00  0.00    +0.004 C 
ATOM     30  C   UNL     1      34.866 -20.396 -20.264  0.00  0.00    +0.000 C 
ENDBRANCH  24  25
ENDBRANCH   5  24
TORSDOF 6
ENDMDL
MODEL 4
REMARK VINA RESULT:     -10.1      5.105     10.693
REMARK  Name = 11574606
REMARK  6 active torsions:
REMARK  status: ('A' for Active; 'I' for Inactive)
REMARK    1  A    between atoms: C_5  and  O_24
REMARK    2  A    between atoms: C_7  and  N_10
REMARK    3  A    between atoms: N_10  and  C_12
REMARK    4  A    between atoms: C_15  and  S_18
REMARK    5  A    between atoms: S_18  and  N_21
REMARK    6  A    between atoms: O_24  and  C_25
REMARK                            x       y       z     vdW  Elec       q    Type
REMARK                         _______ _______ _______ _____ _____    ______ ____
ROOT
ATOM      1  N   UNL     1      34.079 -16.180 -24.110  0.00  0.00    -0.299 NA
ATOM      2  N   UNL     1      34.931 -18.206 -23.134  0.00  0.00    -0.106 N 
ATOM      3  N   UNL     1      34.981 -19.530 -23.436  0.00  0.00    -0.139 NA
ATOM      4  N   UNL     1      33.908 -18.393 -25.092  0.00  0.00    -0.145 NA
ATOM      5  C   UNL     1      34.551 -15.592 -23.058  0.00  0.00    +0.291 C 
ATOM      6  C   UNL     1      35.263 -16.211 -21.918  0.00  0.00    +0.105 C 
ATOM      7  C   UNL     1      35.432 -17.542 -22.004  0.00  0.00    +0.142 C 
ATOM      8  C   UNL     1      34.268 -17.529 -24.164  0.00  0.00    +0.178 C 
ATOM      9  C   UNL     1      34.359 -19.578 -24.610  0.00  0.00    +0.230 C 
ENDROOT
BRANCH   7  10
ATOM     10  N   UNL     1      36.063 -18.295 -21.055  0.00  0.00    -0.299 N 
ATOM     11  H   UNL     1      36.977 -18.013 -20.822  0.00  0.00    +0.153 HD
BRANCH  10  12
ATOM     12  C   UNL     1      35.579 -19.417 -20.374  0.00  0.00    +0.049 C 
ATOM     13  C   UNL     1      36.460 -20.277 -19.707  0.00  0.00    +0.016 C 
ATOM     14  C   UNL     1      34.206 -19.693 -20.349  0.00  0.00    +0.016 C 
ATOM     15  C   UNL     1      34.608 -21.663 -19.009  0.00  0.00    +0.122 C 
ATOM     16  C   UNL     1      35.977 -21.396 -19.027  0.00  0.00    +0.021 C 
ATOM     17  C   UNL     1      33.723 -20.812 -19.671  0.00  0.00    +0.021 C 
BRANCH  15  18
ATOM     18  S   UNL     1      34.003 -23.063 -18.160  0.00  0.00    +0.057 S 
ATOM     19  O   UNL     1      33.895 -24.164 -19.108  0.00  0.00    -0.153 OA
ATOM     20  O   UNL     1      34.776 -23.234 -16.938  0.00  0.00    -0.153 OA
BRANCH  18  21
ATOM     21  N   UNL     1      32.431 -22.537 -17.746  0.00  0.00    -0.203 NA
ATOM     22  H   UNL     1      32.489 -21.852 -16.991  0.00  0.00    +0.144 HD
ATOM     23  H   UNL     1      31.876 -23.336 -17.437  0.00  0.00    +0.144 HD
ENDBRANCH  18  21
ENDBRANCH  15  18
ENDBRANCH  10  12
ENDBRANCH   7  10
BRANCH   5  24
ATOM     24  O   UNL     1      34.413 -14.253 -22.911  0.00  0.00    -0.455 OA
BRANCH  24  25
ATOM     25  C   UNL     1      33.238 -13.769 -23.559  0.00  0.00    +0.169 C 
ATOM     26  C   UNL     1      32.187 -13.394 -22.513  0.00  0.00    +0.044 C 
ATOM     27  C   UNL     1      33.616 -12.573 -24.432  0.00  0.00    +0.044 C 
ATOM     28  C   UNL     1      32.610 -12.181 -21.682  0.00  0.00    +0.004 C 
ATOM     29  C   UNL     1      34.034 -11.361 -23.600  0.00  0.00    +0.004 C 
ATOM     30  C   UNL     1      32.972 -10.992 -22.568  0.00  0.00    +0.000 C 
ENDBRANCH  24  25
ENDBRANCH   5  24
TORSDOF 6
ENDMDL
MODEL 5
REMARK VINA RESULT:      -9.9      5.289     10.540
REMARK  Name = 11574606
REMARK  6 active torsions:
REMARK  status: ('A' for Active; 'I' for Inactive)
REMARK    1  A    between atoms: C_5  and  O_24
REMARK    2  A    between atoms: C_7  and  N_10
REMARK    3  A    between atoms: N_10  and  C_12
REMARK    4  A    between atoms: C_15  and  S_18
REMARK    5  A    between atoms: S_18  and  N_21
REMARK    6  A    between atoms: O_24  and  C_25
REMARK                            x       y       z     vdW  Elec       q    Type
REMARK                         _______ _______ _______ _____ _____    ______ ____
ROOT
ATOM      1  N   UNL     1      33.789 -14.911 -23.183  0.00  0.00    -0.299 NA
ATOM      2  N   UNL     1      34.907 -17.038 -23.082  0.00  0.00    -0.106 N 
ATOM      3  N   UNL     1      35.170 -18.082 -23.912  0.00  0.00    -0.139 NA
ATOM      4  N   UNL     1      33.993 -16.480 -25.024  0.00  0.00    -0.145 NA
ATOM      5  C   UNL     1      34.128 -14.786 -21.940  0.00  0.00    +0.291 C 
ATOM      6  C   UNL     1      34.887 -15.746 -21.108  0.00  0.00    +0.105 C 
ATOM      7  C   UNL     1      35.261 -16.875 -21.734  0.00  0.00    +0.142 C 
ATOM      8  C   UNL     1      34.184 -16.068 -23.787  0.00  0.00    +0.178 C 
ATOM      9  C   UNL     1      34.604 -17.692 -25.050  0.00  0.00    +0.230 C 
ENDROOT
BRANCH   7  10
ATOM     10  N   UNL     1      35.967 -17.881 -21.139  0.00  0.00    -0.299 N 
ATOM     11  H   UNL     1      36.946 -17.778 -21.144  0.00  0.00    +0.153 HD
BRANCH  10  12
ATOM     12  C   UNL     1      35.479 -19.040 -20.526  0.00  0.00    +0.049 C 
ATOM     13  C   UNL     1      34.116 -19.354 -20.586  0.00  0.00    +0.016 C 
ATOM     14  C   UNL     1      36.349 -19.902 -19.845  0.00  0.00    +0.016 C 
ATOM     15  C   UNL     1      34.502 -21.361 -19.297  0.00  0.00    +0.122 C 
ATOM     16  C   UNL     1      33.629 -20.509 -19.974  0.00  0.00    +0.021 C 
ATOM     17  C   UNL     1      35.862 -21.056 -19.233  0.00  0.00    +0.021 C 
BRANCH  15  18
ATOM     18  S   UNL     1      33.895 -22.806 -18.531  0.00  0.00    +0.057 S 
ATOM     19  O   UNL     1      32.546 -22.538 -18.048  0.00  0.00    -0.153 OA
ATOM     20  O   UNL     1      34.133 -23.936 -19.417  0.00  0.00    -0.153 OA
BRANCH  18  21
ATOM     21  N   UNL     1      34.945 -22.930 -17.189  0.00  0.00    -0.203 NA
ATOM     22  H   UNL     1      35.005 -22.026 -16.720  0.00  0.00    +0.144 HD
ATOM     23  H   UNL     1      35.873 -23.209 -17.508  0.00  0.00    +0.144 HD
ENDBRANCH  18  21
ENDBRANCH  15  18
ENDBRANCH  10  12
ENDBRANCH   7  10
BRANCH   5  24
ATOM     24  O   UNL     1      33.781 -13.672 -21.253  0.00  0.00    -0.455 OA
BRANCH  24  25
ATOM     25  C   UNL     1      32.370 -13.588 -21.061  0.00  0.00    +0.169 C 
ATOM     26  C   UNL     1      32.069 -13.081 -19.649  0.00  0.00    +0.044 C 
ATOM     27  C   UNL     1      31.784 -12.665 -22.129  0.00  0.00    +0.044 C 
ATOM     28  C   UNL     1      32.500 -11.626 -19.458  0.00  0.00    +0.004 C 
ATOM     29  C   UNL     1      32.212 -11.211 -21.932  0.00  0.00    +0.004 C 
ATOM     30  C   UNL     1      31.895 -10.716 -20.524  0.00  0.00    +0.000 C 
ENDBRANCH  24  25
ENDBRANCH   5  24
TORSDOF 6
ENDMDL
MODEL 6
REMARK VINA RESULT:      -9.8      3.774      7.597
REMARK  Name = 11574606
REMARK  6 active torsions:
REMARK  status: ('A' for Active; 'I' for Inactive)
REMARK    1  A    between atoms: C_5  and  O_24
REMARK    2  A    between atoms: C_7  and  N_10
REMARK    3  A    between atoms: N_10  and  C_12
REMARK    4  A    between atoms: C_15  and  S_18
REMARK    5  A    between atoms: S_18  and  N_21
REMARK    6  A    between atoms: O_24  and  C_25
REMARK                            x       y       z     vdW  Elec       q    Type
REMARK                         _______ _______ _______ _____ _____    ______ ____
ROOT
ATOM      1  N   UNL     1      32.687 -22.004 -18.748  0.00  0.00    -0.299 NA
ATOM      2  N   UNL     1      35.023 -21.654 -18.297  0.00  0.00    -0.106 N 
ATOM      3  N   UNL     1      36.075 -21.007 -18.864  0.00  0.00    -0.139 NA
ATOM      4  N   UNL     1      34.205 -20.709 -20.129  0.00  0.00    -0.145 NA
ATOM      5  C   UNL     1      32.683 -22.700 -17.656  0.00  0.00    +0.291 C 
ATOM      6  C   UNL     1      33.821 -22.968 -16.750  0.00  0.00    +0.105 C 
ATOM      7  C   UNL     1      34.989 -22.414 -17.119  0.00  0.00    +0.142 C 
ATOM      8  C   UNL     1      33.887 -21.457 -19.091  0.00  0.00    +0.178 C 
ATOM      9  C   UNL     1      35.527 -20.464 -19.947  0.00  0.00    +0.230 C 
ENDROOT
BRANCH   7  10
ATOM     10  N   UNL     1      36.153 -22.545 -16.416  0.00  0.00    -0.299 N 
ATOM     11  H   UNL     1      36.948 -22.130 -16.822  0.00  0.00    +0.153 HD
BRANCH  10  12
ATOM     12  C   UNL     1      36.361 -23.193 -15.194  0.00  0.00    +0.049 C 
ATOM     13  C   UNL     1      35.391 -23.137 -14.187  0.00  0.00    +0.016 C 
ATOM     14  C   UNL     1      37.545 -23.908 -14.964  0.00  0.00    +0.016 C 
ATOM     15  C   UNL     1      36.780 -24.493 -12.748  0.00  0.00    +0.122 C 
ATOM     16  C   UNL     1      35.599 -23.785 -12.968  0.00  0.00    +0.021 C 
ATOM     17  C   UNL     1      37.753 -24.554 -13.746  0.00  0.00    +0.021 C 
BRANCH  15  18
ATOM     18  S   UNL     1      37.042 -25.302 -11.223  0.00  0.00    +0.057 S 
ATOM     19  O   UNL     1      37.155 -26.732 -11.476  0.00  0.00    -0.153 OA
ATOM     20  O   UNL     1      38.103 -24.608 -10.507  0.00  0.00    -0.153 OA
BRANCH  18  21
ATOM     21  N   UNL     1      35.558 -24.998 -10.434  0.00  0.00    -0.203 NA
ATOM     22  H   UNL     1      34.787 -25.173 -11.080  0.00  0.00    +0.144 HD
ATOM     23  H   UNL     1      35.528 -24.025 -10.127  0.00  0.00    +0.144 HD
ENDBRANCH  18  21
ENDBRANCH  15  18
ENDBRANCH  10  12
ENDBRANCH   7  10
BRANCH   5  24
ATOM     24  O   UNL     1      31.538 -23.284 -17.230  0.00  0.00    -0.455 OA
BRANCH  24  25
ATOM     25  C   UNL     1      31.151 -22.809 -15.942  0.00  0.00    +0.169 C 
ATOM     26  C   UNL     1      29.684 -22.376 -15.969  0.00  0.00    +0.044 C 
ATOM     27  C   UNL     1      31.392 -23.918 -14.917  0.00  0.00    +0.044 C 
ATOM     28  C   UNL     1      28.738 -23.562 -16.165  0.00  0.00    +0.004 C 
ATOM     29  C   UNL     1      30.442 -25.100 -15.112  0.00  0.00    +0.004 C 
ATOM     30  C   UNL     1      28.983 -24.654 -15.126  0.00  0.00    +0.000 C 
ENDBRANCH  24  25
ENDBRANCH   5  24
TORSDOF 6
ENDMDL
MODEL 7
REMARK VINA RESULT:      -9.3      7.600     11.131
REMARK  Name = 11574606
REMARK  6 active torsions:
REMARK  status: ('A' for Active; 'I' for Inactive)
REMARK    1  A    between atoms: C_5  and  O_24
REMARK    2  A    between atoms: C_7  and  N_10
REMARK    3  A    between atoms: N_10  and  C_12
REMARK    4  A    between atoms: C_15  and  S_18
REMARK    5  A    between atoms: S_18  and  N_21
REMARK    6  A    between atoms: O_24  and  C_25
REMARK                            x       y       z     vdW  Elec       q    Type
REMARK                         _______ _______ _______ _____ _____    ______ ____
ROOT
ATOM      1  N   UNL     1      35.006 -16.536 -23.511  0.00  0.00    -0.299 NA
ATOM      2  N   UNL     1      33.524 -14.642 -23.575  0.00  0.00    -0.106 N 
ATOM      3  N   UNL     1      32.819 -13.943 -24.502  0.00  0.00    -0.139 NA
ATOM      4  N   UNL     1      33.957 -15.640 -25.507  0.00  0.00    -0.145 NA
ATOM      5  C   UNL     1      35.064 -16.321 -22.235  0.00  0.00    +0.291 C 
ATOM      6  C   UNL     1      34.378 -15.260 -21.464  0.00  0.00    +0.105 C 
ATOM      7  C   UNL     1      33.607 -14.433 -22.190  0.00  0.00    +0.142 C 
ATOM      8  C   UNL     1      34.214 -15.678 -24.215  0.00  0.00    +0.178 C 
ATOM      9  C   UNL     1      33.115 -14.583 -25.629  0.00  0.00    +0.230 C 
ENDROOT
BRANCH   7  10
ATOM     10  N   UNL     1      32.894 -13.393 -21.664  0.00  0.00    -0.299 N 
ATOM     11  H   UNL     1      32.436 -13.576 -20.812  0.00  0.00    +0.153 HD
BRANCH  10  12
ATOM     12  C   UNL     1      32.729 -12.104 -22.181  0.00  0.00    +0.049 C 
ATOM     13  C   UNL     1      33.754 -11.498 -22.917  0.00  0.00    +0.016 C 
ATOM     14  C   UNL     1      31.535 -11.402 -21.968  0.00  0.00    +0.016 C 
ATOM     15  C   UNL     1      32.398  -9.521 -23.215  0.00  0.00    +0.122 C 
ATOM     16  C   UNL     1      33.590 -10.212 -23.433  0.00  0.00    +0.021 C 
ATOM     17  C   UNL     1      31.371 -10.117 -22.483  0.00  0.00    +0.021 C 
BRANCH  15  18
ATOM     18  S   UNL     1      32.191  -7.912 -23.859  0.00  0.00    +0.057 S 
ATOM     19  O   UNL     1      33.370  -7.126 -23.518  0.00  0.00    -0.153 OA
ATOM     20  O   UNL     1      31.771  -8.019 -25.249  0.00  0.00    -0.153 OA
BRANCH  18  21
ATOM     21  N   UNL     1      30.871  -7.356 -22.928  0.00  0.00    -0.203 NA
ATOM     22  H   UNL     1      31.082  -6.428 -22.558  0.00  0.00    +0.144 HD
ATOM     23  H   UNL     1      30.704  -8.000 -22.154  0.00  0.00    +0.144 HD
ENDBRANCH  18  21
ENDBRANCH  15  18
ENDBRANCH  10  12
ENDBRANCH   7  10
BRANCH   5  24
ATOM     24  O   UNL     1      35.823 -17.119 -21.448  0.00  0.00    -0.455 OA
BRANCH  24  25
ATOM     25  C   UNL     1      36.173 -18.334 -22.109  0.00  0.00    +0.169 C 
ATOM     26  C   UNL     1      37.396 -18.957 -21.435  0.00  0.00    +0.044 C 
ATOM     27  C   UNL     1      34.969 -19.276 -22.073  0.00  0.00    +0.044 C 
ATOM     28  C   UNL     1      37.086 -19.446 -20.019  0.00  0.00    +0.004 C 
ATOM     29  C   UNL     1      34.664 -19.767 -20.658  0.00  0.00    +0.004 C 
ATOM     30  C   UNL     1      35.891 -20.395 -20.003  0.00  0.00    +0.000 C 
ENDBRANCH  24  25
ENDBRANCH   5  24
TORSDOF 6
ENDMDL
MODEL 8
REMARK VINA RESULT:      -9.0      3.478      7.155
REMARK  Name = 11574606
REMARK  6 active torsions:
REMARK  status: ('A' for Active; 'I' for Inactive)
REMARK    1  A    between atoms: C_5  and  O_24
REMARK    2  A    between atoms: C_7  and  N_10
REMARK    3  A    between atoms: N_10  and  C_12
REMARK    4  A    between atoms: C_15  and  S_18
REMARK    5  A    between atoms: S_18  and  N_21
REMARK    6  A    between atoms: O_24  and  C_25
REMARK                            x       y       z     vdW  Elec       q    Type
REMARK                         _______ _______ _______ _____ _____    ______ ____
ROOT
ATOM      1  N   UNL     1      30.866 -22.394 -17.026  0.00  0.00    -0.299 NA
ATOM      2  N   UNL     1      30.847 -23.944 -15.187  0.00  0.00    -0.106 N 
ATOM      3  N   UNL     1      29.933 -24.655 -14.475  0.00  0.00    -0.139 NA
ATOM      4  N   UNL     1      28.885 -23.433 -16.085  0.00  0.00    -0.145 NA
ATOM      5  C   UNL     1      32.150 -22.371 -16.863  0.00  0.00    +0.291 C 
ATOM      6  C   UNL     1      32.949 -23.113 -15.863  0.00  0.00    +0.105 C 
ATOM      7  C   UNL     1      32.240 -23.898 -15.034  0.00  0.00    +0.142 C 
ATOM      8  C   UNL     1      30.180 -23.201 -16.169  0.00  0.00    +0.178 C 
ATOM      9  C   UNL     1      28.788 -24.311 -15.056  0.00  0.00    +0.230 C 
ENDROOT
BRANCH   7  10
ATOM     10  N   UNL     1      32.793 -24.662 -14.045  0.00  0.00    -0.299 N 
ATOM     11  H   UNL     1      32.206 -25.348 -13.654  0.00  0.00    +0.153 HD
BRANCH  10  12
ATOM     12  C   UNL     1      34.086 -24.592 -13.515  0.00  0.00    +0.049 C 
ATOM     13  C   UNL     1      35.153 -25.227 -14.161  0.00  0.00    +0.016 C 
ATOM     14  C   UNL     1      34.329 -23.885 -12.330  0.00  0.00    +0.016 C 
ATOM     15  C   UNL     1      36.674 -24.452 -12.451  0.00  0.00    +0.122 C 
ATOM     16  C   UNL     1      36.442 -25.158 -13.632  0.00  0.00    +0.021 C 
ATOM     17  C   UNL     1      35.617 -23.816 -11.801  0.00  0.00    +0.021 C 
BRANCH  15  18
ATOM     18  S   UNL     1      38.286 -24.365 -11.788  0.00  0.00    +0.057 S 
ATOM     19  O   UNL     1      38.360 -25.261 -10.641  0.00  0.00    -0.153 OA
ATOM     20  O   UNL     1      39.243 -24.505 -12.877  0.00  0.00    -0.153 OA
BRANCH  18  21
ATOM     21  N   UNL     1      38.322 -22.751 -11.230  0.00  0.00    -0.203 NA
ATOM     22  H   UNL     1      38.759 -22.157 -11.936  0.00  0.00    +0.144 HD
ATOM     23  H   UNL     1      38.861 -22.702 -10.365  0.00  0.00    +0.144 HD
ENDBRANCH  18  21
ENDBRANCH  15  18
ENDBRANCH  10  12
ENDBRANCH   7  10
BRANCH   5  24
ATOM     24  O   UNL     1      32.921 -21.599 -17.666  0.00  0.00    -0.455 OA
BRANCH  24  25
ATOM     25  C   UNL     1      33.139 -22.211 -18.936  0.00  0.00    +0.169 C 
ATOM     26  C   UNL     1      32.890 -21.193 -20.050  0.00  0.00    +0.044 C 
ATOM     27  C   UNL     1      34.566 -22.756 -18.979  0.00  0.00    +0.044 C 
ATOM     28  C   UNL     1      33.937 -20.078 -20.055  0.00  0.00    +0.004 C 
ATOM     29  C   UNL     1      35.610 -21.639 -18.988  0.00  0.00    +0.004 C 
ATOM     30  C   UNL     1      35.355 -20.639 -20.111  0.00  0.00    +0.000 C 
ENDBRANCH  24  25
ENDBRANCH   5  24
TORSDOF 6
ENDMDL
MODEL 9
REMARK VINA RESULT:      -8.9      3.213      8.301
REMARK  Name = 11574606
REMARK  6 active torsions:
REMARK  status: ('A' for Active; 'I' for Inactive)
REMARK    1  A    between atoms: C_5  and  O_24
REMARK    2  A    between atoms: C_7  and  N_10
REMARK    3  A    between atoms: N_10  and  C_12
REMARK    4  A    between atoms: C_15  and  S_18
REMARK    5  A    between atoms: S_18  and  N_21
REMARK    6  A    between atoms: O_24  and  C_25
REMARK                            x       y       z     vdW  Elec       q    Type
REMARK                         _______ _______ _______ _____ _____    ______ ____
ROOT
ATOM      1  N   UNL     1      34.137 -21.639 -19.321  0.00  0.00    -0.299 NA
ATOM      2  N   UNL     1      35.022 -22.599 -17.301  0.00  0.00    -0.106 N 
ATOM      3  N   UNL     1      34.587 -23.384 -16.281  0.00  0.00    -0.139 NA
ATOM      4  N   UNL     1      32.899 -23.034 -17.769  0.00  0.00    -0.145 NA
ATOM      5  C   UNL     1      35.319 -21.135 -19.481  0.00  0.00    +0.291 C 
ATOM      6  C   UNL     1      36.494 -21.286 -18.595  0.00  0.00    +0.105 C 
ATOM      7  C   UNL     1      36.293 -22.039 -17.501  0.00  0.00    +0.142 C 
ATOM      8  C   UNL     1      33.969 -22.398 -18.201  0.00  0.00    +0.178 C 
ATOM      9  C   UNL     1      33.320 -23.611 -16.616  0.00  0.00    +0.230 C 
ENDROOT
BRANCH   7  10
ATOM     10  N   UNL     1      37.252 -22.297 -16.562  0.00  0.00    -0.299 N 
ATOM     11  H   UNL     1      38.157 -21.975 -16.775  0.00  0.00    +0.153 HD
BRANCH  10  12
ATOM     12  C   UNL     1      37.112 -22.960 -15.339  0.00  0.00    +0.049 C 
ATOM     13  C   UNL     1      37.821 -24.142 -15.087  0.00  0.00    +0.016 C 
ATOM     14  C   UNL     1      36.262 -22.450 -14.348  0.00  0.00    +0.016 C 
ATOM     15  C   UNL     1      36.833 -24.288 -12.887  0.00  0.00    +0.122 C 
ATOM     16  C   UNL     1      37.682 -24.803 -13.867  0.00  0.00    +0.021 C 
ATOM     17  C   UNL     1      36.123 -23.112 -13.129  0.00  0.00    +0.021 C 
BRANCH  15  18
ATOM     18  S   UNL     1      36.657 -25.115 -11.360  0.00  0.00    +0.057 S 
ATOM     19  O   UNL     1      37.036 -26.510 -11.548  0.00  0.00    -0.153 OA
ATOM     20  O   UNL     1      37.307 -24.323 -10.326  0.00  0.00    -0.153 OA
BRANCH  18  21
ATOM     21  N   UNL     1      34.966 -25.029 -11.136  0.00  0.00    -0.203 NA
ATOM     22  H   UNL     1      34.654 -24.066 -11.267  0.00  0.00    +0.144 HD
ATOM     23  H   UNL     1      34.732 -25.336 -10.191  0.00  0.00    +0.144 HD
ENDBRANCH  18  21
ENDBRANCH  15  18
ENDBRANCH  10  12
ENDBRANCH   7  10
BRANCH   5  24
ATOM     24  O   UNL     1      35.587 -20.366 -20.564  0.00  0.00    -0.455 OA
BRANCH  24  25
ATOM     25  C   UNL     1      34.597 -19.357 -20.751  0.00  0.00    +0.169 C 
ATOM     26  C   UNL     1      35.259 -17.978 -20.762  0.00  0.00    +0.044 C 
ATOM     27  C   UNL     1      33.854 -19.635 -22.058  0.00  0.00    +0.044 C 
ATOM     28  C   UNL     1      36.150 -17.777 -21.989  0.00  0.00    +0.004 C 
ATOM     29  C   UNL     1      34.745 -19.429 -23.283  0.00  0.00    +0.004 C 
ATOM     30  C   UNL     1      35.389 -18.047 -23.285  0.00  0.00    +0.000 C 
ENDBRANCH  24  25
ENDBRANCH   5  24
TORSDOF 6
ENDMDL
