MODEL 1
REMARK VINA RESULT:     -11.6      0.000      0.000
REMARK  Name = 4470378
REMARK  6 active torsions:
REMARK  status: ('A' for Active; 'I' for Inactive)
REMARK    1  A    between atoms: C_5  and  O_10
REMARK    2  A    between atoms: C_6  and  O_24
REMARK    3  A    between atoms: O_10  and  C_11
REMARK    4  A    between atoms: C_12  and  C_19
REMARK    5  A    between atoms: O_24  and  C_25
REMARK    6  A    between atoms: C_26  and  C_33
REMARK                            x       y       z     vdW  Elec       q    Type
REMARK                         _______ _______ _______ _____ _____    ______ ____
ROOT
ATOM      1  F   UNL     1      32.151 -23.501 -17.303  0.00  0.00    -0.221 F 
ATOM      2  F   UNL     1      34.003 -23.045 -12.950  0.00  0.00    -0.199 F 
ATOM      3  N   UNL     1      35.572 -22.963 -16.220  0.00  0.00    -0.331 NA
ATOM      4  C   UNL     1      33.028 -23.279 -15.105  0.00  0.00    +0.031 C 
ATOM      5  C   UNL     1      34.475 -23.154 -16.988  0.00  0.00    +0.298 C 
ATOM      6  C   UNL     1      35.359 -22.937 -14.892  0.00  0.00    +0.312 C 
ATOM      7  C   UNL     1      33.194 -23.315 -16.485  0.00  0.00    +0.270 C 
ATOM      8  C   UNL     1      34.133 -23.086 -14.282  0.00  0.00    +0.201 C 
ATOM      9  C   UNL     1      31.672 -23.449 -14.509  0.00  0.00    +0.032 C 
ENDROOT
BRANCH   5  10
ATOM     10  O   UNL     1      34.666 -23.186 -18.344  0.00  0.00    -0.428 OA
BRANCH  10  11
ATOM     11  C   UNL     1      34.415 -22.027 -19.049  0.00  0.00    +0.148 C 
ATOM     12  C   UNL     1      35.224 -20.107 -20.238  0.00  0.00    +0.032 C 
ATOM     13  C   UNL     1      35.479 -21.280 -19.527  0.00  0.00    +0.040 C 
ATOM     14  C   UNL     1      33.103 -21.634 -19.262  0.00  0.00    +0.038 C 
ATOM     15  C   UNL     1      33.910 -19.698 -20.462  0.00  0.00    +0.003 C 
ATOM     16  C   UNL     1      32.849 -20.461 -19.974  0.00  0.00    +0.003 C 
BRANCH  12  19
ATOM     17  N   UNL     1      37.506 -19.305 -20.106  0.00  0.00    -0.387 N 
ATOM     18  N   UNL     1      36.176 -18.577 -21.857  0.00  0.00    -0.345 N 
ATOM     19  C   UNL     1      36.323 -19.315 -20.744  0.00  0.00    +0.096 C 
ATOM     20  H   UNL     1      38.249 -18.764 -20.456  0.00  0.00    +0.157 HD
ATOM     21  H   UNL     1      37.629 -19.840 -19.288  0.00  0.00    +0.157 HD
ATOM     22  H   UNL     1      36.929 -18.040 -22.195  0.00  0.00    +0.144 HD
ATOM     23  H   UNL     1      35.315 -18.573 -22.335  0.00  0.00    +0.144 HD
ENDBRANCH  12  19
ENDBRANCH  10  11
ENDBRANCH   5  10
BRANCH   6  24
ATOM     24  O   UNL     1      36.476 -22.744 -14.096  0.00  0.00    -0.426 OA
BRANCH  24  25
ATOM     25  C   UNL     1      37.086 -23.848 -13.586  0.00  0.00    +0.148 C 
ATOM     26  C   UNL     1      38.850 -25.496 -13.682  0.00  0.00    +0.034 C 
ATOM     27  C   UNL     1      38.225 -24.364 -14.204  0.00  0.00    +0.040 C 
ATOM     28  C   UNL     1      36.572 -24.465 -12.445  0.00  0.00    +0.038 C 
ATOM     29  C   UNL     1      38.337 -26.114 -12.542  0.00  0.00    +0.003 C 
ATOM     30  C   UNL     1      37.197 -25.597 -11.923  0.00  0.00    +0.003 C 
BRANCH  26  33
ATOM     31  N   UNL     1      40.947 -26.825 -13.628  0.00  0.00    -0.343 N 
ATOM     32  N   UNL     1      40.273 -25.769 -15.600  0.00  0.00    -0.285 NA
ATOM     33  C   UNL     1      40.038 -26.034 -14.327  0.00  0.00    +0.117 C 
ATOM     34  H   UNL     1      41.744 -27.179 -14.083  0.00  0.00    +0.144 HD
ATOM     35  H   UNL     1      40.792 -27.032 -12.677  0.00  0.00    +0.144 HD
ATOM     36  H   UNL     1      41.076 -26.132 -16.038  0.00  0.00    +0.188 HD
ENDBRANCH  26  33
ENDBRANCH  24  25
ENDBRANCH   6  24
TORSDOF 6
ENDMDL
MODEL 2
REMARK VINA RESULT:     -11.6      5.337      8.702
REMARK  Name = 4470378
REMARK  6 active torsions:
REMARK  status: ('A' for Active; 'I' for Inactive)
REMARK    1  A    between atoms: C_5  and  O_10
REMARK    2  A    between atoms: C_6  and  O_24
REMARK    3  A    between atoms: O_10  and  C_11
REMARK    4  A    between atoms: C_12  and  C_19
REMARK    5  A    between atoms: O_24  and  C_25
REMARK    6  A    between atoms: C_26  and  C_33
REMARK                            x       y       z     vdW  Elec       q    Type
REMARK                         _______ _______ _______ _____ _____    ______ ____
ROOT
ATOM      1  F   UNL     1      34.082 -15.577 -24.252  0.00  0.00    -0.221 F 
ATOM      2  F   UNL     1      34.937 -20.164 -23.347  0.00  0.00    -0.199 F 
ATOM      3  N   UNL     1      35.702 -17.181 -21.430  0.00  0.00    -0.331 NA
ATOM      4  C   UNL     1      34.486 -17.884 -23.847  0.00  0.00    +0.031 C 
ATOM      5  C   UNL     1      35.185 -16.252 -22.265  0.00  0.00    +0.298 C 
ATOM      6  C   UNL     1      35.594 -18.459 -21.837  0.00  0.00    +0.312 C 
ATOM      7  C   UNL     1      34.573 -16.548 -23.472  0.00  0.00    +0.270 C 
ATOM      8  C   UNL     1      35.007 -18.870 -23.014  0.00  0.00    +0.201 C 
ATOM      9  C   UNL     1      33.839 -18.260 -25.136  0.00  0.00    +0.032 C 
ENDROOT
BRANCH   5  10
ATOM     10  O   UNL     1      35.284 -14.943 -21.874  0.00  0.00    -0.428 OA
BRANCH  10  11
ATOM     11  C   UNL     1      34.153 -14.347 -21.355  0.00  0.00    +0.148 C 
ATOM     12  C   UNL     1      32.438 -12.675 -21.499  0.00  0.00    +0.032 C 
ATOM     13  C   UNL     1      33.582 -13.277 -22.024  0.00  0.00    +0.040 C 
ATOM     14  C   UNL     1      33.612 -14.832 -20.175  0.00  0.00    +0.038 C 
ATOM     15  C   UNL     1      31.881 -13.152 -20.312  0.00  0.00    +0.003 C 
ATOM     16  C   UNL     1      32.469 -14.230 -19.650  0.00  0.00    +0.003 C 
BRANCH  12  19
ATOM     17  N   UNL     1      30.543 -11.239 -21.960  0.00  0.00    -0.387 N 
ATOM     18  N   UNL     1      32.540 -10.825 -23.058  0.00  0.00    -0.345 N 
ATOM     19  C   UNL     1      31.829 -11.558 -22.184  0.00  0.00    +0.096 C 
ATOM     20  H   UNL     1      30.135 -10.476 -22.431  0.00  0.00    +0.157 HD
ATOM     21  H   UNL     1      30.008 -11.767 -21.323  0.00  0.00    +0.157 HD
ATOM     22  H   UNL     1      32.118 -10.066 -23.522  0.00  0.00    +0.144 HD
ATOM     23  H   UNL     1      33.483 -11.047 -23.234  0.00  0.00    +0.144 HD
ENDBRANCH  12  19
ENDBRANCH  10  11
ENDBRANCH   5  10
BRANCH   6  24
ATOM     24  O   UNL     1      36.122 -19.419 -20.990  0.00  0.00    -0.426 OA
BRANCH  24  25
ATOM     25  C   UNL     1      35.250 -20.157 -20.250  0.00  0.00    +0.148 C 
ATOM     26  C   UNL     1      34.826 -21.694 -18.435  0.00  0.00    +0.034 C 
ATOM     27  C   UNL     1      35.719 -20.937 -19.192  0.00  0.00    +0.040 C 
ATOM     28  C   UNL     1      33.888 -20.137 -20.551  0.00  0.00    +0.038 C 
ATOM     29  C   UNL     1      33.464 -21.674 -18.735  0.00  0.00    +0.003 C 
ATOM     30  C   UNL     1      32.996 -20.895 -19.794  0.00  0.00    +0.003 C 
BRANCH  26  33
ATOM     31  N   UNL     1      36.581 -22.299 -16.785  0.00  0.00    -0.343 N 
ATOM     32  N   UNL     1      34.557 -23.466 -16.833  0.00  0.00    -0.285 NA
ATOM     33  C   UNL     1      35.316 -22.507 -17.332  0.00  0.00    +0.117 C 
ATOM     34  H   UNL     1      36.892 -22.861 -16.039  0.00  0.00    +0.144 HD
ATOM     35  H   UNL     1      37.163 -21.592 -17.145  0.00  0.00    +0.144 HD
ATOM     36  H   UNL     1      34.886 -24.016 -16.087  0.00  0.00    +0.188 HD
ENDBRANCH  26  33
ENDBRANCH  24  25
ENDBRANCH   6  24
TORSDOF 6
ENDMDL
MODEL 3
REMARK VINA RESULT:     -11.3      8.335     11.962
REMARK  Name = 4470378
REMARK  6 active torsions:
REMARK  status: ('A' for Active; 'I' for Inactive)
REMARK    1  A    between atoms: C_5  and  O_10
REMARK    2  A    between atoms: C_6  and  O_24
REMARK    3  A    between atoms: O_10  and  C_11
REMARK    4  A    between atoms: C_12  and  C_19
REMARK    5  A    between atoms: O_24  and  C_25
REMARK    6  A    between atoms: C_26  and  C_33
REMARK                            x       y       z     vdW  Elec       q    Type
REMARK                         _______ _______ _______ _____ _____    ______ ____
ROOT
ATOM      1  F   UNL     1      31.603 -11.892 -21.415  0.00  0.00    -0.221 F 
ATOM      2  F   UNL     1      34.375 -15.609 -20.372  0.00  0.00    -0.199 F 
ATOM      3  N   UNL     1      34.225 -13.512 -23.329  0.00  0.00    -0.331 NA
ATOM      4  C   UNL     1      32.964 -13.756 -20.846  0.00  0.00    +0.031 C 
ATOM      5  C   UNL     1      33.233 -12.676 -22.947  0.00  0.00    +0.298 C 
ATOM      6  C   UNL     1      34.562 -14.464 -22.440  0.00  0.00    +0.312 C 
ATOM      7  C   UNL     1      32.578 -12.754 -21.729  0.00  0.00    +0.270 C 
ATOM      8  C   UNL     1      33.981 -14.636 -21.202  0.00  0.00    +0.201 C 
ATOM      9  C   UNL     1      32.292 -13.886 -19.522  0.00  0.00    +0.032 C 
ENDROOT
BRANCH   5  10
ATOM     10  O   UNL     1      32.871 -11.698 -23.836  0.00  0.00    -0.428 OA
BRANCH  10  11
ATOM     11  C   UNL     1      33.390 -10.435 -23.638  0.00  0.00    +0.148 C 
ATOM     12  C   UNL     1      33.067  -8.124 -23.080  0.00  0.00    +0.032 C 
ATOM     13  C   UNL     1      32.541  -9.402 -23.279  0.00  0.00    +0.040 C 
ATOM     14  C   UNL     1      34.750 -10.228 -23.803  0.00  0.00    +0.038 C 
ATOM     15  C   UNL     1      34.433  -7.900 -23.242  0.00  0.00    +0.003 C 
ATOM     16  C   UNL     1      35.275  -8.952 -23.604  0.00  0.00    +0.003 C 
BRANCH  12  19
ATOM     17  N   UNL     1      32.705  -5.886 -22.228  0.00  0.00    -0.387 N 
ATOM     18  N   UNL     1      30.862  -7.155 -22.825  0.00  0.00    -0.345 N 
ATOM     19  C   UNL     1      32.195  -7.034 -22.705  0.00  0.00    +0.096 C 
ATOM     20  H   UNL     1      32.105  -5.148 -21.975  0.00  0.00    +0.157 HD
ATOM     21  H   UNL     1      33.680  -5.782 -22.133  0.00  0.00    +0.157 HD
ATOM     22  H   UNL     1      30.274  -6.408 -22.566  0.00  0.00    +0.144 HD
ATOM     23  H   UNL     1      30.473  -7.991 -23.171  0.00  0.00    +0.144 HD
ENDBRANCH  12  19
ENDBRANCH  10  11
ENDBRANCH   5  10
BRANCH   6  24
ATOM     24  O   UNL     1      35.575 -15.328 -22.821  0.00  0.00    -0.426 OA
BRANCH  24  25
ATOM     25  C   UNL     1      35.304 -16.661 -22.815  0.00  0.00    +0.148 C 
ATOM     26  C   UNL     1      35.440 -18.820 -21.737  0.00  0.00    +0.034 C 
ATOM     27  C   UNL     1      35.716 -17.453 -21.743  0.00  0.00    +0.040 C 
ATOM     28  C   UNL     1      34.616 -17.238 -23.883  0.00  0.00    +0.038 C 
ATOM     29  C   UNL     1      34.752 -19.397 -22.805  0.00  0.00    +0.003 C 
ATOM     30  C   UNL     1      34.340 -18.605 -23.877  0.00  0.00    +0.003 C 
BRANCH  26  33
ATOM     31  N   UNL     1      35.128 -20.750 -20.207  0.00  0.00    -0.343 N 
ATOM     32  N   UNL     1      36.981 -19.346 -19.970  0.00  0.00    -0.285 NA
ATOM     33  C   UNL     1      35.870 -19.645 -20.619  0.00  0.00    +0.117 C 
ATOM     34  H   UNL     1      35.437 -21.294 -19.447  0.00  0.00    +0.144 HD
ATOM     35  H   UNL     1      34.295 -20.987 -20.675  0.00  0.00    +0.144 HD
ATOM     36  H   UNL     1      37.273 -19.904 -19.213  0.00  0.00    +0.188 HD
ENDBRANCH  26  33
ENDBRANCH  24  25
ENDBRANCH   6  24
TORSDOF 6
ENDMDL
MODEL 4
REMARK VINA RESULT:     -11.3      8.347     13.777
REMARK  Name = 4470378
REMARK  6 active torsions:
REMARK  status: ('A' for Active; 'I' for Inactive)
REMARK    1  A    between atoms: C_5  and  O_10
REMARK    2  A    between atoms: C_6  and  O_24
REMARK    3  A    between atoms: O_10  and  C_11
REMARK    4  A    between atoms: C_12  and  C_19
REMARK    5  A    between atoms: O_24  and  C_25
REMARK    6  A    between atoms: C_26  and  C_33
REMARK                            x       y       z     vdW  Elec       q    Type
REMARK                         _______ _______ _______ _____ _____    ______ ____
ROOT
ATOM      1  F   UNL     1      34.357 -15.607 -20.363  0.00  0.00    -0.221 F 
ATOM      2  F   UNL     1      31.620 -11.866 -21.416  0.00  0.00    -0.199 F 
ATOM      3  N   UNL     1      34.229 -13.513 -23.324  0.00  0.00    -0.331 NA
ATOM      4  C   UNL     1      32.964 -13.740 -20.841  0.00  0.00    +0.031 C 
ATOM      5  C   UNL     1      34.568 -14.476 -22.436  0.00  0.00    +0.298 C 
ATOM      6  C   UNL     1      33.250 -12.677 -22.935  0.00  0.00    +0.312 C 
ATOM      7  C   UNL     1      33.972 -14.631 -21.195  0.00  0.00    +0.270 C 
ATOM      8  C   UNL     1      32.588 -12.736 -21.728  0.00  0.00    +0.201 C 
ATOM      9  C   UNL     1      32.290 -13.860 -19.517  0.00  0.00    +0.032 C 
ENDROOT
BRANCH   5  10
ATOM     10  O   UNL     1      35.564 -15.339 -22.808  0.00  0.00    -0.428 OA
BRANCH  10  11
ATOM     11  C   UNL     1      35.256 -16.684 -22.850  0.00  0.00    +0.148 C 
ATOM     12  C   UNL     1      35.270 -18.848 -21.814  0.00  0.00    +0.032 C 
ATOM     13  C   UNL     1      35.580 -17.488 -21.770  0.00  0.00    +0.040 C 
ATOM     14  C   UNL     1      34.629 -17.201 -23.972  0.00  0.00    +0.038 C 
ATOM     15  C   UNL     1      34.638 -19.383 -22.936  0.00  0.00    +0.003 C 
ATOM     16  C   UNL     1      34.318 -18.560 -24.016  0.00  0.00    +0.003 C 
BRANCH  12  19
ATOM     17  N   UNL     1      34.737 -20.642 -20.276  0.00  0.00    -0.387 N 
ATOM     18  N   UNL     1      36.777 -19.565 -20.059  0.00  0.00    -0.345 N 
ATOM     19  C   UNL     1      35.601 -19.701 -20.695  0.00  0.00    +0.096 C 
ATOM     20  H   UNL     1      34.970 -21.219 -19.513  0.00  0.00    +0.157 HD
ATOM     21  H   UNL     1      33.871 -20.754 -20.731  0.00  0.00    +0.157 HD
ATOM     22  H   UNL     1      36.995 -20.149 -19.297  0.00  0.00    +0.144 HD
ATOM     23  H   UNL     1      37.419 -18.879 -20.353  0.00  0.00    +0.144 HD
ENDBRANCH  12  19
ENDBRANCH  10  11
ENDBRANCH   5  10
BRANCH   6  24
ATOM     24  O   UNL     1      32.896 -11.686 -23.836  0.00  0.00    -0.426 OA
BRANCH  24  25
ATOM     25  C   UNL     1      33.414 -10.443 -23.643  0.00  0.00    +0.148 C 
ATOM     26  C   UNL     1      33.109  -8.114 -23.073  0.00  0.00    +0.034 C 
ATOM     27  C   UNL     1      32.579  -9.389 -23.270  0.00  0.00    +0.040 C 
ATOM     28  C   UNL     1      34.779 -10.221 -23.821  0.00  0.00    +0.038 C 
ATOM     29  C   UNL     1      34.475  -7.892 -23.252  0.00  0.00    +0.003 C 
ATOM     30  C   UNL     1      35.310  -8.946 -23.625  0.00  0.00    +0.003 C 
BRANCH  26  33
ATOM     31  N   UNL     1      30.859  -7.087 -22.866  0.00  0.00    -0.343 N 
ATOM     32  N   UNL     1      32.755  -5.923 -22.152  0.00  0.00    -0.285 NA
ATOM     33  C   UNL     1      32.238  -7.016 -22.684  0.00  0.00    +0.117 C 
ATOM     34  H   UNL     1      30.287  -6.332 -22.596  0.00  0.00    +0.144 HD
ATOM     35  H   UNL     1      30.454  -7.892 -23.265  0.00  0.00    +0.144 HD
ATOM     36  H   UNL     1      32.167  -5.180 -21.888  0.00  0.00    +0.188 HD
ENDBRANCH  26  33
ENDBRANCH  24  25
ENDBRANCH   6  24
TORSDOF 6
ENDMDL
MODEL 5
REMARK VINA RESULT:     -11.2      5.340     11.040
REMARK  Name = 4470378
REMARK  6 active torsions:
REMARK  status: ('A' for Active; 'I' for Inactive)
REMARK    1  A    between atoms: C_5  and  O_10
REMARK    2  A    between atoms: C_6  and  O_24
REMARK    3  A    between atoms: O_10  and  C_11
REMARK    4  A    between atoms: C_12  and  C_19
REMARK    5  A    between atoms: O_24  and  C_25
REMARK    6  A    between atoms: C_26  and  C_33
REMARK                            x       y       z     vdW  Elec       q    Type
REMARK                         _______ _______ _______ _____ _____    ______ ____
ROOT
ATOM      1  F   UNL     1      34.990 -20.154 -23.350  0.00  0.00    -0.221 F 
ATOM      2  F   UNL     1      34.064 -15.573 -24.215  0.00  0.00    -0.199 F 
ATOM      3  N   UNL     1      35.751 -17.171 -21.429  0.00  0.00    -0.331 NA
ATOM      4  C   UNL     1      34.502 -17.877 -23.829  0.00  0.00    +0.031 C 
ATOM      5  C   UNL     1      35.657 -18.459 -21.832  0.00  0.00    +0.298 C 
ATOM      6  C   UNL     1      35.207 -16.258 -22.254  0.00  0.00    +0.312 C 
ATOM      7  C   UNL     1      35.049 -18.860 -23.011  0.00  0.00    +0.270 C 
ATOM      8  C   UNL     1      34.580 -16.541 -23.448  0.00  0.00    +0.201 C 
ATOM      9  C   UNL     1      33.835 -18.252 -25.108  0.00  0.00    +0.032 C 
ENDROOT
BRANCH   5  10
ATOM     10  O   UNL     1      36.202 -19.408 -21.009  0.00  0.00    -0.428 OA
BRANCH  10  11
ATOM     11  C   UNL     1      35.334 -20.153 -20.237  0.00  0.00    +0.148 C 
ATOM     12  C   UNL     1      34.950 -21.621 -18.379  0.00  0.00    +0.032 C 
ATOM     13  C   UNL     1      35.828 -20.867 -19.158  0.00  0.00    +0.040 C 
ATOM     14  C   UNL     1      33.986 -20.171 -20.558  0.00  0.00    +0.038 C 
ATOM     15  C   UNL     1      33.590 -21.649 -18.689  0.00  0.00    +0.003 C 
ATOM     16  C   UNL     1      33.108 -20.924 -19.779  0.00  0.00    +0.003 C 
BRANCH  12  19
ATOM     17  N   UNL     1      34.629 -23.176 -16.549  0.00  0.00    -0.387 N 
ATOM     18  N   UNL     1      36.738 -22.277 -16.883  0.00  0.00    -0.345 N 
ATOM     19  C   UNL     1      35.449 -22.373 -17.249  0.00  0.00    +0.096 C 
ATOM     20  H   UNL     1      34.977 -23.684 -15.781  0.00  0.00    +0.157 HD
ATOM     21  H   UNL     1      33.681 -23.255 -16.804  0.00  0.00    +0.157 HD
ATOM     22  H   UNL     1      37.071 -22.792 -16.112  0.00  0.00    +0.144 HD
ATOM     23  H   UNL     1      37.350 -21.692 -17.386  0.00  0.00    +0.144 HD
ENDBRANCH  12  19
ENDBRANCH  10  11
ENDBRANCH   5  10
BRANCH   6  24
ATOM     24  O   UNL     1      35.297 -14.936 -21.850  0.00  0.00    -0.426 OA
BRANCH  24  25
ATOM     25  C   UNL     1      34.175 -14.350 -21.352  0.00  0.00    +0.148 C 
ATOM     26  C   UNL     1      32.441 -12.675 -21.513  0.00  0.00    +0.034 C 
ATOM     27  C   UNL     1      33.591 -13.276 -22.024  0.00  0.00    +0.040 C 
ATOM     28  C   UNL     1      33.608 -14.822 -20.167  0.00  0.00    +0.038 C 
ATOM     29  C   UNL     1      31.875 -13.146 -20.328  0.00  0.00    +0.003 C 
ATOM     30  C   UNL     1      32.459 -14.220 -19.656  0.00  0.00    +0.003 C 
BRANCH  26  33
ATOM     31  N   UNL     1      32.559 -10.791 -23.127  0.00  0.00    -0.343 N 
ATOM     32  N   UNL     1      30.570 -11.242 -21.986  0.00  0.00    -0.285 NA
ATOM     33  C   UNL     1      31.833 -11.555 -22.214  0.00  0.00    +0.117 C 
ATOM     34  H   UNL     1      32.128 -10.038 -23.590  0.00  0.00    +0.144 HD
ATOM     35  H   UNL     1      33.503 -11.006 -23.308  0.00  0.00    +0.144 HD
ATOM     36  H   UNL     1      30.157 -10.485 -22.460  0.00  0.00    +0.188 HD
ENDBRANCH  26  33
ENDBRANCH  24  25
ENDBRANCH   6  24
TORSDOF 6
ENDMDL
MODEL 6
REMARK VINA RESULT:     -11.0      2.993      7.713
REMARK  Name = 4470378
REMARK  6 active torsions:
REMARK  status: ('A' for Active; 'I' for Inactive)
REMARK    1  A    between atoms: C_5  and  O_10
REMARK    2  A    between atoms: C_6  and  O_24
REMARK    3  A    between atoms: O_10  and  C_11
REMARK    4  A    between atoms: C_12  and  C_19
REMARK    5  A    between atoms: O_24  and  C_25
REMARK    6  A    between atoms: C_26  and  C_33
REMARK                            x       y       z     vdW  Elec       q    Type
REMARK                         _______ _______ _______ _____ _____    ______ ____
ROOT
ATOM      1  F   UNL     1      37.451 -20.370 -18.256  0.00  0.00    -0.221 F 
ATOM      2  F   UNL     1      33.332 -22.458 -19.381  0.00  0.00    -0.199 F 
ATOM      3  N   UNL     1      35.502 -22.880 -16.505  0.00  0.00    -0.331 NA
ATOM      4  C   UNL     1      35.389 -21.386 -18.865  0.00  0.00    +0.031 C 
ATOM      5  C   UNL     1      36.469 -21.994 -16.835  0.00  0.00    +0.298 C 
ATOM      6  C   UNL     1      34.489 -22.994 -17.382  0.00  0.00    +0.312 C 
ATOM      7  C   UNL     1      36.459 -21.230 -17.990  0.00  0.00    +0.270 C 
ATOM      8  C   UNL     1      34.375 -22.288 -18.560  0.00  0.00    +0.201 C 
ATOM      9  C   UNL     1      35.329 -20.590 -20.124  0.00  0.00    +0.032 C 
ENDROOT
BRANCH   5  10
ATOM     10  O   UNL     1      37.513 -21.860 -15.958  0.00  0.00    -0.428 OA
BRANCH  10  11
ATOM     11  C   UNL     1      37.666 -22.840 -14.999  0.00  0.00    +0.148 C 
ATOM     12  C   UNL     1      37.089 -23.754 -12.857  0.00  0.00    +0.032 C 
ATOM     13  C   UNL     1      36.932 -22.762 -13.827  0.00  0.00    +0.040 C 
ATOM     14  C   UNL     1      38.551 -23.880 -15.229  0.00  0.00    +0.038 C 
ATOM     15  C   UNL     1      37.976 -24.808 -13.074  0.00  0.00    +0.003 C 
ATOM     16  C   UNL     1      38.708 -24.871 -14.260  0.00  0.00    +0.003 C 
BRANCH  12  19
ATOM     17  N   UNL     1      36.954 -23.761 -10.438  0.00  0.00    -0.387 N 
ATOM     18  N   UNL     1      34.994 -23.556 -11.657  0.00  0.00    -0.345 N 
ATOM     19  C   UNL     1      36.331 -23.688 -11.627  0.00  0.00    +0.096 C 
ATOM     20  H   UNL     1      36.431 -23.715  -9.605  0.00  0.00    +0.157 HD
ATOM     21  H   UNL     1      37.933 -23.859 -10.400  0.00  0.00    +0.157 HD
ATOM     22  H   UNL     1      34.485 -23.513 -10.815  0.00  0.00    +0.144 HD
ATOM     23  H   UNL     1      34.524 -23.503 -12.520  0.00  0.00    +0.144 HD
ENDBRANCH  12  19
ENDBRANCH  10  11
ENDBRANCH   5  10
BRANCH   6  24
ATOM     24  O   UNL     1      33.494 -23.900 -17.055  0.00  0.00    -0.426 OA
BRANCH  24  25
ATOM     25  C   UNL     1      32.596 -23.536 -16.100  0.00  0.00    +0.148 C 
ATOM     26  C   UNL     1      30.337 -22.963 -15.461  0.00  0.00    +0.034 C 
ATOM     27  C   UNL     1      31.257 -23.338 -16.440  0.00  0.00    +0.040 C 
ATOM     28  C   UNL     1      33.014 -23.358 -14.781  0.00  0.00    +0.038 C 
ATOM     29  C   UNL     1      30.755 -22.785 -14.142  0.00  0.00    +0.003 C 
ATOM     30  C   UNL     1      32.093 -22.983 -13.802  0.00  0.00    +0.003 C 
BRANCH  26  33
ATOM     31  N   UNL     1      28.394 -23.325 -16.964  0.00  0.00    -0.343 N 
ATOM     32  N   UNL     1      28.169 -22.012 -15.045  0.00  0.00    -0.285 NA
ATOM     33  C   UNL     1      28.941 -22.756 -15.816  0.00  0.00    +0.117 C 
ATOM     34  H   UNL     1      27.448 -23.173 -17.186  0.00  0.00    +0.144 HD
ATOM     35  H   UNL     1      28.954 -23.881 -17.554  0.00  0.00    +0.144 HD
ATOM     36  H   UNL     1      27.225 -21.872 -15.283  0.00  0.00    +0.188 HD
ENDBRANCH  26  33
ENDBRANCH  24  25
ENDBRANCH   6  24
TORSDOF 6
ENDMDL
MODEL 7
REMARK VINA RESULT:     -11.0      1.742      2.573
REMARK  Name = 4470378
REMARK  6 active torsions:
REMARK  status: ('A' for Active; 'I' for Inactive)
REMARK    1  A    between atoms: C_5  and  O_10
REMARK    2  A    between atoms: C_6  and  O_24
REMARK    3  A    between atoms: O_10  and  C_11
REMARK    4  A    between atoms: C_12  and  C_19
REMARK    5  A    between atoms: O_24  and  C_25
REMARK    6  A    between atoms: C_26  and  C_33
REMARK                            x       y       z     vdW  Elec       q    Type
REMARK                         _______ _______ _______ _____ _____    ______ ____
ROOT
ATOM      1  F   UNL     1      31.384 -22.583 -16.978  0.00  0.00    -0.221 F 
ATOM      2  F   UNL     1      31.303 -23.485 -12.313  0.00  0.00    -0.199 F 
ATOM      3  N   UNL     1      33.851 -24.129 -14.814  0.00  0.00    -0.331 NA
ATOM      4  C   UNL     1      31.294 -23.013 -14.642  0.00  0.00    +0.031 C 
ATOM      5  C   UNL     1      33.218 -23.626 -15.898  0.00  0.00    +0.298 C 
ATOM      6  C   UNL     1      33.172 -24.058 -13.654  0.00  0.00    +0.312 C 
ATOM      7  C   UNL     1      31.953 -23.062 -15.866  0.00  0.00    +0.270 C 
ATOM      8  C   UNL     1      31.912 -23.520 -13.504  0.00  0.00    +0.201 C 
ATOM      9  C   UNL     1      29.929 -22.419 -14.550  0.00  0.00    +0.032 C 
ENDROOT
BRANCH   5  10
ATOM     10  O   UNL     1      33.888 -23.688 -17.091  0.00  0.00    -0.428 OA
BRANCH  10  11
ATOM     11  C   UNL     1      34.905 -22.778 -17.297  0.00  0.00    +0.148 C 
ATOM     12  C   UNL     1      35.950 -21.112 -18.672  0.00  0.00    +0.032 C 
ATOM     13  C   UNL     1      34.921 -22.032 -18.464  0.00  0.00    +0.040 C 
ATOM     14  C   UNL     1      35.887 -22.630 -16.332  0.00  0.00    +0.038 C 
ATOM     15  C   UNL     1      36.947 -20.952 -17.709  0.00  0.00    +0.003 C 
ATOM     16  C   UNL     1      36.916 -21.711 -16.539  0.00  0.00    +0.003 C 
BRANCH  12  19
ATOM     17  N   UNL     1      35.016 -20.459 -20.809  0.00  0.00    -0.387 N 
ATOM     18  N   UNL     1      36.981 -19.454 -20.104  0.00  0.00    -0.345 N 
ATOM     19  C   UNL     1      35.983 -20.326 -19.884  0.00  0.00    +0.096 C 
ATOM     20  H   UNL     1      35.046 -19.920 -21.632  0.00  0.00    +0.157 HD
ATOM     21  H   UNL     1      34.278 -21.094 -20.662  0.00  0.00    +0.157 HD
ATOM     22  H   UNL     1      36.997 -18.923 -20.933  0.00  0.00    +0.144 HD
ATOM     23  H   UNL     1      37.698 -19.347 -19.437  0.00  0.00    +0.144 HD
ENDBRANCH  12  19
ENDBRANCH  10  11
ENDBRANCH   5  10
BRANCH   6  24
ATOM     24  O   UNL     1      33.810 -24.572 -12.538  0.00  0.00    -0.426 OA
BRANCH  24  25
ATOM     25  C   UNL     1      35.159 -24.417 -12.453  0.00  0.00    +0.148 C 
ATOM     26  C   UNL     1      37.382 -24.984 -13.210  0.00  0.00    +0.034 C 
ATOM     27  C   UNL     1      35.999 -25.142 -13.298  0.00  0.00    +0.040 C 
ATOM     28  C   UNL     1      35.703 -23.535 -11.518  0.00  0.00    +0.038 C 
ATOM     29  C   UNL     1      37.926 -24.103 -12.276  0.00  0.00    +0.003 C 
ATOM     30  C   UNL     1      37.086 -23.378 -11.430  0.00  0.00    +0.003 C 
BRANCH  26  33
ATOM     31  N   UNL     1      39.203 -25.103 -14.894  0.00  0.00    -0.343 N 
ATOM     32  N   UNL     1      38.160 -27.056 -14.147  0.00  0.00    -0.285 NA
ATOM     33  C   UNL     1      38.258 -25.740 -14.092  0.00  0.00    +0.117 C 
ATOM     34  H   UNL     1      39.786 -25.634 -15.484  0.00  0.00    +0.144 HD
ATOM     35  H   UNL     1      39.290 -24.122 -14.870  0.00  0.00    +0.144 HD
ATOM     36  H   UNL     1      38.752 -27.569 -14.744  0.00  0.00    +0.188 HD
ENDBRANCH  26  33
ENDBRANCH  24  25
ENDBRANCH   6  24
TORSDOF 6
ENDMDL
MODEL 8
REMARK VINA RESULT:     -10.8      8.280     11.929
REMARK  Name = 4470378
REMARK  6 active torsions:
REMARK  status: ('A' for Active; 'I' for Inactive)
REMARK    1  A    between atoms: C_5  and  O_10
REMARK    2  A    between atoms: C_6  and  O_24
REMARK    3  A    between atoms: O_10  and  C_11
REMARK    4  A    between atoms: C_12  and  C_19
REMARK    5  A    between atoms: O_24  and  C_25
REMARK    6  A    between atoms: C_26  and  C_33
REMARK                            x       y       z     vdW  Elec       q    Type
REMARK                         _______ _______ _______ _____ _____    ______ ____
ROOT
ATOM      1  F   UNL     1      30.959 -12.198 -20.511  0.00  0.00    -0.221 F 
ATOM      2  F   UNL     1      34.334 -15.541 -20.346  0.00  0.00    -0.199 F 
ATOM      3  N   UNL     1      33.514 -13.116 -22.917  0.00  0.00    -0.331 NA
ATOM      4  C   UNL     1      32.629 -13.885 -20.379  0.00  0.00    +0.031 C 
ATOM      5  C   UNL     1      32.473 -12.504 -22.310  0.00  0.00    +0.298 C 
ATOM      6  C   UNL     1      34.092 -14.114 -22.224  0.00  0.00    +0.312 C 
ATOM      7  C   UNL     1      31.996 -12.846 -21.054  0.00  0.00    +0.270 C 
ATOM      8  C   UNL     1      33.704 -14.539 -20.972  0.00  0.00    +0.201 C 
ATOM      9  C   UNL     1      32.157 -14.296 -19.026  0.00  0.00    +0.032 C 
ENDROOT
BRANCH   5  10
ATOM     10  O   UNL     1      31.866 -11.486 -22.996  0.00  0.00    -0.428 OA
BRANCH  10  11
ATOM     11  C   UNL     1      32.289 -10.200 -22.729  0.00  0.00    +0.148 C 
ATOM     12  C   UNL     1      32.693  -8.434 -21.156  0.00  0.00    +0.032 C 
ATOM     13  C   UNL     1      32.266  -9.735 -21.425  0.00  0.00    +0.040 C 
ATOM     14  C   UNL     1      32.727  -9.400 -23.772  0.00  0.00    +0.038 C 
ATOM     15  C   UNL     1      33.138  -7.617 -22.195  0.00  0.00    +0.003 C 
ATOM     16  C   UNL     1      33.154  -8.100 -23.504  0.00  0.00    +0.003 C 
BRANCH  12  19
ATOM     17  N   UNL     1      31.784  -8.403 -18.911  0.00  0.00    -0.387 N 
ATOM     18  N   UNL     1      33.550  -6.989 -19.411  0.00  0.00    -0.345 N 
ATOM     19  C   UNL     1      32.676  -7.933 -19.800  0.00  0.00    +0.096 C 
ATOM     20  H   UNL     1      31.778  -8.057 -17.990  0.00  0.00    +0.157 HD
ATOM     21  H   UNL     1      31.136  -9.094 -19.182  0.00  0.00    +0.157 HD
ATOM     22  H   UNL     1      33.531  -6.652 -18.486  0.00  0.00    +0.144 HD
ATOM     23  H   UNL     1      34.208  -6.634 -20.051  0.00  0.00    +0.144 HD
ENDBRANCH  12  19
ENDBRANCH  10  11
ENDBRANCH   5  10
BRANCH   6  24
ATOM     24  O   UNL     1      35.159 -14.749 -22.838  0.00  0.00    -0.426 OA
BRANCH  24  25
ATOM     25  C   UNL     1      35.123 -16.107 -22.921  0.00  0.00    +0.148 C 
ATOM     26  C   UNL     1      35.656 -18.275 -21.998  0.00  0.00    +0.034 C 
ATOM     27  C   UNL     1      35.692 -16.883 -21.912  0.00  0.00    +0.040 C 
ATOM     28  C   UNL     1      34.519 -16.722 -24.018  0.00  0.00    +0.038 C 
ATOM     29  C   UNL     1      35.052 -18.891 -23.094  0.00  0.00    +0.003 C 
ATOM     30  C   UNL     1      34.483 -18.114 -24.104  0.00  0.00    +0.003 C 
BRANCH  26  33
ATOM     31  N   UNL     1      35.495 -20.020 -20.239  0.00  0.00    -0.343 N 
ATOM     32  N   UNL     1      37.526 -18.935 -20.640  0.00  0.00    -0.285 NA
ATOM     33  C   UNL     1      36.249 -19.085 -20.945  0.00  0.00    +0.117 C 
ATOM     34  H   UNL     1      35.917 -20.558 -19.530  0.00  0.00    +0.144 HD
ATOM     35  H   UNL     1      34.541 -20.145 -20.449  0.00  0.00    +0.144 HD
ATOM     36  H   UNL     1      37.928 -19.482 -19.928  0.00  0.00    +0.188 HD
ENDBRANCH  26  33
ENDBRANCH  24  25
ENDBRANCH   6  24
TORSDOF 6
ENDMDL
MODEL 9
REMARK VINA RESULT:     -10.8      5.647      8.991
REMARK  Name = 4470378
REMARK  6 active torsions:
REMARK  status: ('A' for Active; 'I' for Inactive)
REMARK    1  A    between atoms: C_5  and  O_10
REMARK    2  A    between atoms: C_6  and  O_24
REMARK    3  A    between atoms: O_10  and  C_11
REMARK    4  A    between atoms: C_12  and  C_19
REMARK    5  A    between atoms: O_24  and  C_25
REMARK    6  A    between atoms: C_26  and  C_33
REMARK                            x       y       z     vdW  Elec       q    Type
REMARK                         _______ _______ _______ _____ _____    ______ ____
ROOT
ATOM      1  F   UNL     1      33.695 -15.990 -24.283  0.00  0.00    -0.221 F 
ATOM      2  F   UNL     1      35.428 -20.240 -23.049  0.00  0.00    -0.199 F 
ATOM      3  N   UNL     1      36.110 -16.925 -21.742  0.00  0.00    -0.331 NA
ATOM      4  C   UNL     1      34.531 -18.138 -23.704  0.00  0.00    +0.031 C 
ATOM      5  C   UNL     1      35.288 -16.207 -22.541  0.00  0.00    +0.298 C 
ATOM      6  C   UNL     1      36.118 -18.253 -21.953  0.00  0.00    +0.312 C 
ATOM      7  C   UNL     1      34.486 -16.760 -23.526  0.00  0.00    +0.270 C 
ATOM      8  C   UNL     1      35.365 -18.911 -22.902  0.00  0.00    +0.201 C 
ATOM      9  C   UNL     1      33.690 -18.786 -24.751  0.00  0.00    +0.032 C 
ENDROOT
BRANCH   5  10
ATOM     10  O   UNL     1      35.263 -14.851 -22.346  0.00  0.00    -0.428 OA
BRANCH  10  11
ATOM     11  C   UNL     1      34.194 -14.330 -21.647  0.00  0.00    +0.148 C 
ATOM     12  C   UNL     1      32.408 -12.737 -21.473  0.00  0.00    +0.032 C 
ATOM     13  C   UNL     1      33.488 -13.264 -22.181  0.00  0.00    +0.040 C 
ATOM     14  C   UNL     1      33.850 -14.882 -20.424  0.00  0.00    +0.038 C 
ATOM     15  C   UNL     1      32.049 -13.283 -20.240  0.00  0.00    +0.003 C 
ATOM     16  C   UNL     1      32.770 -14.355 -19.715  0.00  0.00    +0.003 C 
BRANCH  12  19
ATOM     17  N   UNL     1      32.228 -10.793 -22.906  0.00  0.00    -0.387 N 
ATOM     18  N   UNL     1      30.390 -11.408 -21.637  0.00  0.00    -0.345 N 
ATOM     19  C   UNL     1      31.661 -11.625 -22.016  0.00  0.00    +0.096 C 
ATOM     20  H   UNL     1      31.713 -10.038 -23.271  0.00  0.00    +0.157 HD
ATOM     21  H   UNL     1      33.159 -10.938 -23.193  0.00  0.00    +0.157 HD
ATOM     22  H   UNL     1      29.888 -10.648 -22.011  0.00  0.00    +0.144 HD
ATOM     23  H   UNL     1      29.961 -12.008 -20.985  0.00  0.00    +0.144 HD
ENDBRANCH  12  19
ENDBRANCH  10  11
ENDBRANCH   5  10
BRANCH   6  24
ATOM     24  O   UNL     1      36.958 -18.998 -21.142  0.00  0.00    -0.426 OA
BRANCH  24  25
ATOM     25  C   UNL     1      36.385 -19.894 -20.293  0.00  0.00    +0.148 C 
ATOM     26  C   UNL     1      34.411 -20.967 -19.403  0.00  0.00    +0.034 C 
ATOM     27  C   UNL     1      34.999 -20.050 -20.274  0.00  0.00    +0.040 C 
ATOM     28  C   UNL     1      37.183 -20.655 -19.439  0.00  0.00    +0.038 C 
ATOM     29  C   UNL     1      35.210 -21.728 -18.549  0.00  0.00    +0.003 C 
ATOM     30  C   UNL     1      36.596 -21.572 -18.567  0.00  0.00    +0.003 C 
BRANCH  26  33
ATOM     31  N   UNL     1      32.336 -21.887 -18.398  0.00  0.00    -0.343 N 
ATOM     32  N   UNL     1      32.227 -20.558 -20.317  0.00  0.00    -0.285 NA
ATOM     33  C   UNL     1      32.966 -21.130 -19.384  0.00  0.00    +0.117 C 
ATOM     34  H   UNL     1      31.356 -21.985 -18.404  0.00  0.00    +0.144 HD
ATOM     35  H   UNL     1      32.869 -22.325 -17.696  0.00  0.00    +0.144 HD
ATOM     36  H   UNL     1      31.249 -20.667 -20.306  0.00  0.00    +0.188 HD
ENDBRANCH  26  33
ENDBRANCH  24  25
ENDBRANCH   6  24
TORSDOF 6
ENDMDL
