MODEL 1
REMARK VINA RESULT:     -11.4      0.000      0.000
REMARK  Name = 21874557
REMARK  4 active torsions:
REMARK  status: ('A' for Active; 'I' for Inactive)
REMARK    1  A    between atoms: N_1  and  C_18
REMARK    2  A    between atoms: C_9  and  C_14
REMARK    3  A    between atoms: C_18  and  C_19
REMARK    4  A    between atoms: C_23  and  N_26
REMARK                            x       y       z     vdW  Elec       q    Type
REMARK                         _______ _______ _______ _____ _____    ______ ____
ROOT
ATOM      1  N   UNL     1      35.190 -16.494 -21.750  0.00  0.00    -0.170 N 
ATOM      2  N   UNL     1      35.163 -16.104 -20.461  0.00  0.00    -0.042 NA
ATOM      3  N   UNL     1      34.405 -15.011 -20.386  0.00  0.00    -0.137 NA
ATOM      4  N   UNL     1      34.240 -15.724 -23.854  0.00  0.00    -0.310 NA
ATOM      5  N   UNL     1      32.891 -13.717 -23.499  0.00  0.00    -0.324 NA
ATOM      6  N   UNL     1      33.147 -14.660 -25.629  0.00  0.00    -0.283 N 
ATOM      7  C   UNL     1      34.451 -15.661 -22.532  0.00  0.00    +0.238 C 
ATOM      8  C   UNL     1      33.959 -14.722 -21.645  0.00  0.00    +0.181 C 
ATOM      9  C   UNL     1      33.150 -13.721 -22.168  0.00  0.00    +0.202 C 
ATOM     10  C   UNL     1      33.444 -14.704 -24.248  0.00  0.00    +0.198 C 
ATOM     11  H   UNL     1      33.514 -15.345 -26.234  0.00  0.00    +0.156 HD
ATOM     12  H   UNL     1      32.573 -13.945 -25.987  0.00  0.00    +0.156 HD
ENDROOT
BRANCH   9  14
ATOM     13  O   UNL     1      32.296 -11.531 -21.991  0.00  0.00    -0.448 OA
ATOM     14  C   UNL     1      32.585 -12.695 -21.350  0.00  0.00    +0.178 C 
ATOM     15  C   UNL     1      32.253 -12.609 -20.018  0.00  0.00    +0.043 C 
ATOM     16  C   UNL     1      31.727 -11.308 -19.828  0.00  0.00    +0.044 C 
ATOM     17  C   UNL     1      31.774 -10.693 -21.057  0.00  0.00    +0.180 C 
ENDBRANCH   9  14
BRANCH   1  18
ATOM     18  C   UNL     1      35.951 -17.681 -22.154  0.00  0.00    +0.145 C 
BRANCH  18  19
ATOM     19  C   UNL     1      35.757 -18.815 -21.206  0.00  0.00    -0.001 C 
ATOM     20  C   UNL     1      34.479 -19.327 -20.981  0.00  0.00    -0.006 C 
ATOM     21  C   UNL     1      34.300 -20.389 -20.094  0.00  0.00    -0.009 C 
ATOM     22  C   UNL     1      36.856 -19.364 -20.543  0.00  0.00    -0.001 C 
ATOM     23  C   UNL     1      35.398 -20.938 -19.432  0.00  0.00    +0.037 C 
ATOM     24  C   UNL     1      36.676 -20.426 -19.656  0.00  0.00    +0.013 C 
ATOM     25  C   UNL     1      32.920 -20.917 -19.871  0.00  0.00    +0.032 C 
BRANCH  23  26
ATOM     26  N   UNL     1      35.236 -22.012 -18.531  0.00  0.00    -0.357 N 
ATOM     27  H   UNL     1      35.355 -21.867 -17.564  0.00  0.00    +0.142 HD
ATOM     28  H   UNL     1      35.003 -22.907 -18.868  0.00  0.00    +0.142 HD
ENDBRANCH  23  26
ENDBRANCH  18  19
ENDBRANCH   1  18
TORSDOF 4
ENDMDL
MODEL 2
REMARK VINA RESULT:      -9.8      5.316      9.907
REMARK  Name = 21874557
REMARK  4 active torsions:
REMARK  status: ('A' for Active; 'I' for Inactive)
REMARK    1  A    between atoms: N_1  and  C_18
REMARK    2  A    between atoms: C_9  and  C_14
REMARK    3  A    between atoms: C_18  and  C_19
REMARK    4  A    between atoms: C_23  and  N_26
REMARK                            x       y       z     vdW  Elec       q    Type
REMARK                         _______ _______ _______ _____ _____    ______ ____
ROOT
ATOM      1  N   UNL     1      34.337 -22.477 -17.745  0.00  0.00    -0.170 N 
ATOM      2  N   UNL     1      33.202 -22.489 -18.471  0.00  0.00    -0.042 NA
ATOM      3  N   UNL     1      32.210 -22.857 -17.662  0.00  0.00    -0.137 NA
ATOM      4  N   UNL     1      34.970 -22.940 -15.442  0.00  0.00    -0.310 NA
ATOM      5  N   UNL     1      33.014 -23.596 -14.132  0.00  0.00    -0.324 NA
ATOM      6  N   UNL     1      35.148 -23.474 -13.169  0.00  0.00    -0.283 N 
ATOM      7  C   UNL     1      34.098 -22.837 -16.454  0.00  0.00    +0.238 C 
ATOM      8  C   UNL     1      32.738 -23.075 -16.421  0.00  0.00    +0.181 C 
ATOM      9  C   UNL     1      32.194 -23.469 -15.205  0.00  0.00    +0.202 C 
ATOM     10  C   UNL     1      34.331 -23.328 -14.314  0.00  0.00    +0.198 C 
ATOM     11  H   UNL     1      36.114 -23.296 -13.227  0.00  0.00    +0.156 HD
ATOM     12  H   UNL     1      34.749 -23.753 -12.313  0.00  0.00    +0.156 HD
ENDROOT
BRANCH   9  14
ATOM     13  O   UNL     1      30.498 -25.010 -14.654  0.00  0.00    -0.448 OA
ATOM     14  C   UNL     1      30.801 -23.744 -15.048  0.00  0.00    +0.178 C 
ATOM     15  C   UNL     1      29.655 -23.001 -15.209  0.00  0.00    +0.043 C 
ATOM     16  C   UNL     1      28.579 -23.865 -14.895  0.00  0.00    +0.044 C 
ATOM     17  C   UNL     1      29.144 -25.075 -14.562  0.00  0.00    +0.180 C 
ENDBRANCH   9  14
BRANCH   1  18
ATOM     18  C   UNL     1      35.614 -22.108 -18.363  0.00  0.00    +0.145 C 
BRANCH  18  19
ATOM     19  C   UNL     1      35.446 -21.042 -19.392  0.00  0.00    -0.001 C 
ATOM     20  C   UNL     1      36.563 -20.373 -19.893  0.00  0.00    -0.006 C 
ATOM     21  C   UNL     1      36.405 -19.376 -20.856  0.00  0.00    -0.009 C 
ATOM     22  C   UNL     1      34.171 -20.713 -19.854  0.00  0.00    -0.001 C 
ATOM     23  C   UNL     1      35.131 -19.048 -21.318  0.00  0.00    +0.037 C 
ATOM     24  C   UNL     1      34.013 -19.716 -20.817  0.00  0.00    +0.013 C 
ATOM     25  C   UNL     1      37.619 -18.676 -21.375  0.00  0.00    +0.032 C 
BRANCH  23  26
ATOM     26  N   UNL     1      34.952 -18.043 -22.292  0.00  0.00    -0.357 N 
ATOM     27  H   UNL     1      34.777 -18.290 -23.230  0.00  0.00    +0.142 HD
ATOM     28  H   UNL     1      35.002 -17.093 -22.036  0.00  0.00    +0.142 HD
ENDBRANCH  23  26
ENDBRANCH  18  19
ENDBRANCH   1  18
TORSDOF 4
ENDMDL
MODEL 3
REMARK VINA RESULT:      -9.8      6.280     11.147
REMARK  Name = 21874557
REMARK  4 active torsions:
REMARK  status: ('A' for Active; 'I' for Inactive)
REMARK    1  A    between atoms: N_1  and  C_18
REMARK    2  A    between atoms: C_9  and  C_14
REMARK    3  A    between atoms: C_18  and  C_19
REMARK    4  A    between atoms: C_23  and  N_26
REMARK                            x       y       z     vdW  Elec       q    Type
REMARK                         _______ _______ _______ _____ _____    ______ ____
ROOT
ATOM      1  N   UNL     1      33.827 -23.395 -16.553  0.00  0.00    -0.170 N 
ATOM      2  N   UNL     1      35.153 -23.187 -16.441  0.00  0.00    -0.042 NA
ATOM      3  N   UNL     1      35.482 -23.361 -15.162  0.00  0.00    -0.137 NA
ATOM      4  N   UNL     1      31.994 -23.980 -15.063  0.00  0.00    -0.310 NA
ATOM      5  N   UNL     1      32.807 -24.252 -12.774  0.00  0.00    -0.324 NA
ATOM      6  N   UNL     1      30.544 -24.545 -13.314  0.00  0.00    -0.283 N 
ATOM      7  C   UNL     1      33.275 -23.707 -15.349  0.00  0.00    +0.238 C 
ATOM      8  C   UNL     1      34.344 -23.681 -14.475  0.00  0.00    +0.181 C 
ATOM      9  C   UNL     1      34.080 -23.966 -13.141  0.00  0.00    +0.202 C 
ATOM     10  C   UNL     1      31.857 -24.241 -13.743  0.00  0.00    +0.198 C 
ATOM     11  H   UNL     1      29.804 -24.555 -13.962  0.00  0.00    +0.156 HD
ATOM     12  H   UNL     1      30.371 -24.746 -12.365  0.00  0.00    +0.156 HD
ENDROOT
BRANCH   9  14
ATOM     13  O   UNL     1      34.901 -24.814 -11.102  0.00  0.00    -0.448 OA
ATOM     14  C   UNL     1      35.105 -23.968 -12.146  0.00  0.00    +0.178 C 
ATOM     15  C   UNL     1      36.291 -23.289 -11.994  0.00  0.00    +0.043 C 
ATOM     16  C   UNL     1      36.853 -23.747 -10.778  0.00  0.00    +0.044 C 
ATOM     17  C   UNL     1      35.969 -24.673 -10.274  0.00  0.00    +0.180 C 
ENDBRANCH   9  14
BRANCH   1  18
ATOM     18  C   UNL     1      33.160 -23.277 -17.853  0.00  0.00    +0.145 C 
BRANCH  18  19
ATOM     19  C   UNL     1      33.690 -22.132 -18.648  0.00  0.00    -0.001 C 
ATOM     20  C   UNL     1      35.067 -21.954 -18.784  0.00  0.00    -0.006 C 
ATOM     21  C   UNL     1      35.562 -20.883 -19.528  0.00  0.00    -0.009 C 
ATOM     22  C   UNL     1      32.808 -21.237 -19.255  0.00  0.00    -0.001 C 
ATOM     23  C   UNL     1      34.680 -19.989 -20.135  0.00  0.00    +0.037 C 
ATOM     24  C   UNL     1      33.303 -20.165 -19.999  0.00  0.00    +0.013 C 
ATOM     25  C   UNL     1      37.041 -20.717 -19.658  0.00  0.00    +0.032 C 
BRANCH  23  26
ATOM     26  N   UNL     1      35.162 -18.899 -20.892  0.00  0.00    -0.357 N 
ATOM     27  H   UNL     1      35.555 -19.053 -21.782  0.00  0.00    +0.142 HD
ATOM     28  H   UNL     1      35.106 -17.985 -20.531  0.00  0.00    +0.142 HD
ENDBRANCH  23  26
ENDBRANCH  18  19
ENDBRANCH   1  18
TORSDOF 4
ENDMDL
MODEL 4
REMARK VINA RESULT:      -9.6      5.451     10.092
REMARK  Name = 21874557
REMARK  4 active torsions:
REMARK  status: ('A' for Active; 'I' for Inactive)
REMARK    1  A    between atoms: N_1  and  C_18
REMARK    2  A    between atoms: C_9  and  C_14
REMARK    3  A    between atoms: C_18  and  C_19
REMARK    4  A    between atoms: C_23  and  N_26
REMARK                            x       y       z     vdW  Elec       q    Type
REMARK                         _______ _______ _______ _____ _____    ______ ____
ROOT
ATOM      1  N   UNL     1      33.996 -22.343 -17.968  0.00  0.00    -0.170 N 
ATOM      2  N   UNL     1      35.310 -22.518 -17.729  0.00  0.00    -0.042 NA
ATOM      3  N   UNL     1      35.431 -23.054 -16.516  0.00  0.00    -0.137 NA
ATOM      4  N   UNL     1      31.911 -22.748 -16.780  0.00  0.00    -0.310 NA
ATOM      5  N   UNL     1      32.353 -23.729 -14.586  0.00  0.00    -0.324 NA
ATOM      6  N   UNL     1      30.169 -23.293 -15.315  0.00  0.00    -0.283 N 
ATOM      7  C   UNL     1      33.245 -22.762 -16.913  0.00  0.00    +0.238 C 
ATOM      8  C   UNL     1      34.176 -23.212 -15.998  0.00  0.00    +0.181 C 
ATOM      9  C   UNL     1      33.693 -23.710 -14.795  0.00  0.00    +0.202 C 
ATOM     10  C   UNL     1      31.557 -23.254 -15.577  0.00  0.00    +0.198 C 
ATOM     11  H   UNL     1      29.531 -22.965 -15.989  0.00  0.00    +0.156 HD
ATOM     12  H   UNL     1      29.839 -23.649 -14.458  0.00  0.00    +0.156 HD
ENDROOT
BRANCH   9  14
ATOM     13  O   UNL     1      34.155 -23.956 -12.497  0.00  0.00    -0.448 OA
ATOM     14  C   UNL     1      34.560 -24.202 -13.772  0.00  0.00    +0.178 C 
ATOM     15  C   UNL     1      35.751 -24.890 -13.776  0.00  0.00    +0.043 C 
ATOM     16  C   UNL     1      36.101 -25.079 -12.418  0.00  0.00    +0.044 C 
ATOM     17  C   UNL     1      35.098 -24.494 -11.680  0.00  0.00    +0.180 C 
ENDBRANCH   9  14
BRANCH   1  18
ATOM     18  C   UNL     1      33.539 -21.766 -19.236  0.00  0.00    +0.145 C 
BRANCH  18  19
ATOM     19  C   UNL     1      34.573 -20.887 -19.852  0.00  0.00    -0.001 C 
ATOM     20  C   UNL     1      34.248 -20.090 -20.950  0.00  0.00    -0.006 C 
ATOM     21  C   UNL     1      35.217 -19.267 -21.526  0.00  0.00    -0.009 C 
ATOM     22  C   UNL     1      35.867 -20.861 -19.330  0.00  0.00    -0.001 C 
ATOM     23  C   UNL     1      36.510 -19.242 -21.003  0.00  0.00    +0.037 C 
ATOM     24  C   UNL     1      36.835 -20.038 -19.906  0.00  0.00    +0.013 C 
ATOM     25  C   UNL     1      34.841 -18.424 -22.701  0.00  0.00    +0.032 C 
BRANCH  23  26
ATOM     26  N   UNL     1      37.502 -18.415 -21.573  0.00  0.00    -0.357 N 
ATOM     27  H   UNL     1      37.575 -17.472 -21.298  0.00  0.00    +0.142 HD
ATOM     28  H   UNL     1      38.123 -18.781 -22.244  0.00  0.00    +0.142 HD
ENDBRANCH  23  26
ENDBRANCH  18  19
ENDBRANCH   1  18
TORSDOF 4
ENDMDL
MODEL 5
REMARK VINA RESULT:      -9.5      4.960      9.158
REMARK  Name = 21874557
REMARK  4 active torsions:
REMARK  status: ('A' for Active; 'I' for Inactive)
REMARK    1  A    between atoms: N_1  and  C_18
REMARK    2  A    between atoms: C_9  and  C_14
REMARK    3  A    between atoms: C_18  and  C_19
REMARK    4  A    between atoms: C_23  and  N_26
REMARK                            x       y       z     vdW  Elec       q    Type
REMARK                         _______ _______ _______ _____ _____    ______ ____
ROOT
ATOM      1  N   UNL     1      34.719 -22.249 -18.344  0.00  0.00    -0.170 N 
ATOM      2  N   UNL     1      33.644 -22.228 -19.155  0.00  0.00    -0.042 NA
ATOM      3  N   UNL     1      32.577 -22.532 -18.418  0.00  0.00    -0.137 NA
ATOM      4  N   UNL     1      35.153 -22.686 -15.990  0.00  0.00    -0.310 NA
ATOM      5  N   UNL     1      33.075 -23.223 -14.822  0.00  0.00    -0.324 NA
ATOM      6  N   UNL     1      35.132 -23.173 -13.700  0.00  0.00    -0.283 N 
ATOM      7  C   UNL     1      34.367 -22.568 -17.069  0.00  0.00    +0.238 C 
ATOM      8  C   UNL     1      32.999 -22.745 -17.135  0.00  0.00    +0.181 C 
ATOM      9  C   UNL     1      32.346 -23.085 -15.957  0.00  0.00    +0.202 C 
ATOM     10  C   UNL     1      34.413 -23.018 -14.908  0.00  0.00    +0.198 C 
ATOM     11  H   UNL     1      36.107 -23.039 -13.687  0.00  0.00    +0.156 HD
ATOM     12  H   UNL     1      34.657 -23.414 -12.872  0.00  0.00    +0.156 HD
ENDROOT
BRANCH   9  14
ATOM     13  O   UNL     1      30.182 -22.366 -16.552  0.00  0.00    -0.448 OA
ATOM     14  C   UNL     1      30.934 -23.295 -15.903  0.00  0.00    +0.178 C 
ATOM     15  C   UNL     1      30.130 -24.251 -15.329  0.00  0.00    +0.043 C 
ATOM     16  C   UNL     1      28.799 -23.887 -15.643  0.00  0.00    +0.044 C 
ATOM     17  C   UNL     1      28.884 -22.733 -16.389  0.00  0.00    +0.180 C 
ENDBRANCH   9  14
BRANCH   1  18
ATOM     18  C   UNL     1      36.055 -21.950 -18.869  0.00  0.00    +0.145 C 
BRANCH  18  19
ATOM     19  C   UNL     1      36.038 -20.796 -19.812  0.00  0.00    -0.001 C 
ATOM     20  C   UNL     1      35.009 -20.674 -20.747  0.00  0.00    -0.006 C 
ATOM     21  C   UNL     1      34.993 -19.593 -21.629  0.00  0.00    -0.009 C 
ATOM     22  C   UNL     1      37.051 -19.838 -19.761  0.00  0.00    -0.001 C 
ATOM     23  C   UNL     1      36.006 -18.635 -21.577  0.00  0.00    +0.037 C 
ATOM     24  C   UNL     1      37.035 -18.757 -20.643  0.00  0.00    +0.013 C 
ATOM     25  C   UNL     1      33.880 -19.487 -22.619  0.00  0.00    +0.032 C 
BRANCH  23  26
ATOM     26  N   UNL     1      36.006 -17.535 -22.461  0.00  0.00    -0.357 N 
ATOM     27  H   UNL     1      35.163 -17.233 -22.871  0.00  0.00    +0.142 HD
ATOM     28  H   UNL     1      36.848 -17.069 -22.668  0.00  0.00    +0.142 HD
ENDBRANCH  23  26
ENDBRANCH  18  19
ENDBRANCH   1  18
TORSDOF 4
ENDMDL
MODEL 6
REMARK VINA RESULT:      -9.4      1.512      2.833
REMARK  Name = 21874557
REMARK  4 active torsions:
REMARK  status: ('A' for Active; 'I' for Inactive)
REMARK    1  A    between atoms: N_1  and  C_18
REMARK    2  A    between atoms: C_9  and  C_14
REMARK    3  A    between atoms: C_18  and  C_19
REMARK    4  A    between atoms: C_23  and  N_26
REMARK                            x       y       z     vdW  Elec       q    Type
REMARK                         _______ _______ _______ _____ _____    ______ ____
ROOT
ATOM      1  N   UNL     1      34.454 -16.807 -24.045  0.00  0.00    -0.170 N 
ATOM      2  N   UNL     1      34.077 -16.149 -25.158  0.00  0.00    -0.042 NA
ATOM      3  N   UNL     1      33.832 -14.885 -24.817  0.00  0.00    -0.137 NA
ATOM      4  N   UNL     1      34.775 -16.269 -21.694  0.00  0.00    -0.310 NA
ATOM      5  N   UNL     1      34.275 -13.913 -21.279  0.00  0.00    -0.324 NA
ATOM      6  N   UNL     1      34.959 -15.343 -19.552  0.00  0.00    -0.283 N 
ATOM      7  C   UNL     1      34.459 -15.981 -22.964  0.00  0.00    +0.238 C 
ATOM      8  C   UNL     1      34.060 -14.761 -23.475  0.00  0.00    +0.181 C 
ATOM      9  C   UNL     1      33.970 -13.699 -22.583  0.00  0.00    +0.202 C 
ATOM     10  C   UNL     1      34.652 -15.166 -20.921  0.00  0.00    +0.198 C 
ATOM     11  H   UNL     1      35.240 -16.225 -19.220  0.00  0.00    +0.156 HD
ATOM     12  H   UNL     1      34.891 -14.582 -18.930  0.00  0.00    +0.156 HD
ENDROOT
BRANCH   9  14
ATOM     13  O   UNL     1      32.471 -11.894 -22.363  0.00  0.00    -0.448 OA
ATOM     14  C   UNL     1      33.568 -12.392 -22.995  0.00  0.00    +0.178 C 
ATOM     15  C   UNL     1      34.048 -11.488 -23.913  0.00  0.00    +0.043 C 
ATOM     16  C   UNL     1      33.192 -10.363 -23.843  0.00  0.00    +0.044 C 
ATOM     17  C   UNL     1      32.250 -10.659 -22.885  0.00  0.00    +0.180 C 
ENDBRANCH   9  14
BRANCH   1  18
ATOM     18  C   UNL     1      34.795 -18.232 -24.100  0.00  0.00    +0.145 C 
BRANCH  18  19
ATOM     19  C   UNL     1      35.243 -18.748 -22.775  0.00  0.00    -0.001 C 
ATOM     20  C   UNL     1      34.358 -19.464 -21.969  0.00  0.00    -0.006 C 
ATOM     21  C   UNL     1      34.780 -19.947 -20.729  0.00  0.00    -0.009 C 
ATOM     22  C   UNL     1      36.549 -18.514 -22.342  0.00  0.00    -0.001 C 
ATOM     23  C   UNL     1      36.085 -19.714 -20.297  0.00  0.00    +0.037 C 
ATOM     24  C   UNL     1      36.970 -18.998 -21.103  0.00  0.00    +0.013 C 
ATOM     25  C   UNL     1      33.811 -20.711 -19.886  0.00  0.00    +0.032 C 
BRANCH  23  26
ATOM     26  N   UNL     1      36.529 -20.195 -19.046  0.00  0.00    -0.357 N 
ATOM     27  H   UNL     1      36.921 -19.574 -18.390  0.00  0.00    +0.142 HD
ATOM     28  H   UNL     1      36.447 -21.152 -18.829  0.00  0.00    +0.142 HD
ENDBRANCH  23  26
ENDBRANCH  18  19
ENDBRANCH   1  18
TORSDOF 4
ENDMDL
MODEL 7
REMARK VINA RESULT:      -9.4      4.431      7.395
REMARK  Name = 21874557
REMARK  4 active torsions:
REMARK  status: ('A' for Active; 'I' for Inactive)
REMARK    1  A    between atoms: N_1  and  C_18
REMARK    2  A    between atoms: C_9  and  C_14
REMARK    3  A    between atoms: C_18  and  C_19
REMARK    4  A    between atoms: C_23  and  N_26
REMARK                            x       y       z     vdW  Elec       q    Type
REMARK                         _______ _______ _______ _____ _____    ______ ____
ROOT
ATOM      1  N   UNL     1      31.826 -10.287 -22.317  0.00  0.00    -0.170 N 
ATOM      2  N   UNL     1      31.958 -10.331 -23.657  0.00  0.00    -0.042 NA
ATOM      3  N   UNL     1      32.615  -9.235 -24.032  0.00  0.00    -0.137 NA
ATOM      4  N   UNL     1      32.465  -8.774 -20.522  0.00  0.00    -0.310 NA
ATOM      5  N   UNL     1      33.654  -6.837 -21.421  0.00  0.00    -0.324 NA
ATOM      6  N   UNL     1      33.254  -7.072 -19.123  0.00  0.00    -0.283 N 
ATOM      7  C   UNL     1      32.395  -9.164 -21.803  0.00  0.00    +0.238 C 
ATOM      8  C   UNL     1      32.893  -8.506 -22.910  0.00  0.00    +0.181 C 
ATOM      9  C   UNL     1      33.543  -7.298 -22.690  0.00  0.00    +0.202 C 
ATOM     10  C   UNL     1      33.115  -7.592 -20.430  0.00  0.00    +0.198 C 
ATOM     11  H   UNL     1      32.888  -7.566 -18.354  0.00  0.00    +0.156 HD
ATOM     12  H   UNL     1      33.718  -6.214 -18.981  0.00  0.00    +0.156 HD
ENDROOT
BRANCH   9  14
ATOM     13  O   UNL     1      33.212  -5.750 -24.437  0.00  0.00    -0.448 OA
ATOM     14  C   UNL     1      34.098  -6.527 -23.758  0.00  0.00    +0.178 C 
ATOM     15  C   UNL     1      35.363  -6.383 -24.277  0.00  0.00    +0.043 C 
ATOM     16  C   UNL     1      35.248  -5.460 -25.344  0.00  0.00    +0.044 C 
ATOM     17  C   UNL     1      33.920  -5.104 -25.400  0.00  0.00    +0.180 C 
ENDBRANCH   9  14
BRANCH   1  18
ATOM     18  C   UNL     1      31.139 -11.366 -21.600  0.00  0.00    +0.145 C 
BRANCH  18  19
ATOM     19  C   UNL     1      32.065 -12.481 -21.252  0.00  0.00    -0.001 C 
ATOM     20  C   UNL     1      32.916 -13.011 -22.222  0.00  0.00    -0.006 C 
ATOM     21  C   UNL     1      33.783 -14.054 -21.895  0.00  0.00    -0.009 C 
ATOM     22  C   UNL     1      32.080 -12.996 -19.955  0.00  0.00    -0.001 C 
ATOM     23  C   UNL     1      33.798 -14.568 -20.598  0.00  0.00    +0.037 C 
ATOM     24  C   UNL     1      32.947 -14.039 -19.628  0.00  0.00    +0.013 C 
ATOM     25  C   UNL     1      34.684 -14.602 -22.954  0.00  0.00    +0.032 C 
BRANCH  23  26
ATOM     26  N   UNL     1      34.669 -15.623 -20.250  0.00  0.00    -0.357 N 
ATOM     27  H   UNL     1      35.391 -15.470 -19.597  0.00  0.00    +0.142 HD
ATOM     28  H   UNL     1      34.555 -16.511 -20.658  0.00  0.00    +0.142 HD
ENDBRANCH  23  26
ENDBRANCH  18  19
ENDBRANCH   1  18
TORSDOF 4
ENDMDL
MODEL 8
REMARK VINA RESULT:      -9.2      6.564      9.725
REMARK  Name = 21874557
REMARK  4 active torsions:
REMARK  status: ('A' for Active; 'I' for Inactive)
REMARK    1  A    between atoms: N_1  and  C_18
REMARK    2  A    between atoms: C_9  and  C_14
REMARK    3  A    between atoms: C_18  and  C_19
REMARK    4  A    between atoms: C_23  and  N_26
REMARK                            x       y       z     vdW  Elec       q    Type
REMARK                         _______ _______ _______ _____ _____    ______ ____
ROOT
ATOM      1  N   UNL     1      34.519 -23.880 -15.465  0.00  0.00    -0.170 N 
ATOM      2  N   UNL     1      35.657 -23.519 -16.089  0.00  0.00    -0.042 NA
ATOM      3  N   UNL     1      35.323 -22.756 -17.128  0.00  0.00    -0.137 NA
ATOM      4  N   UNL     1      32.136 -23.494 -15.766  0.00  0.00    -0.310 NA
ATOM      5  N   UNL     1      31.739 -22.077 -17.717  0.00  0.00    -0.324 NA
ATOM      6  N   UNL     1      29.969 -22.881 -16.406  0.00  0.00    -0.283 N 
ATOM      7  C   UNL     1      33.429 -23.357 -16.090  0.00  0.00    +0.238 C 
ATOM      8  C   UNL     1      33.961 -22.644 -17.146  0.00  0.00    +0.181 C 
ATOM      9  C   UNL     1      33.065 -21.987 -17.981  0.00  0.00    +0.202 C 
ATOM     10  C   UNL     1      31.362 -22.814 -16.642  0.00  0.00    +0.198 C 
ATOM     11  H   UNL     1      29.623 -23.398 -15.644  0.00  0.00    +0.156 HD
ATOM     12  H   UNL     1      29.346 -22.410 -17.005  0.00  0.00    +0.156 HD
ENDROOT
BRANCH   9  14
ATOM     13  O   UNL     1      34.842 -21.183 -19.303  0.00  0.00    -0.448 OA
ATOM     14  C   UNL     1      33.497 -21.219 -19.106  0.00  0.00    +0.178 C 
ATOM     15  C   UNL     1      32.848 -20.484 -20.068  0.00  0.00    +0.043 C 
ATOM     16  C   UNL     1      33.857 -19.961 -20.912  0.00  0.00    +0.044 C 
ATOM     17  C   UNL     1      35.052 -20.415 -20.404  0.00  0.00    +0.180 C 
ENDBRANCH   9  14
BRANCH   1  18
ATOM     18  C   UNL     1      34.561 -24.731 -14.272  0.00  0.00    +0.145 C 
BRANCH  18  19
ATOM     19  C   UNL     1      35.951 -25.150 -13.935  0.00  0.00    -0.001 C 
ATOM     20  C   UNL     1      36.654 -24.491 -12.926  0.00  0.00    -0.006 C 
ATOM     21  C   UNL     1      37.955 -24.885 -12.611  0.00  0.00    -0.009 C 
ATOM     22  C   UNL     1      36.550 -26.202 -14.630  0.00  0.00    -0.001 C 
ATOM     23  C   UNL     1      38.553 -25.937 -13.306  0.00  0.00    +0.037 C 
ATOM     24  C   UNL     1      37.851 -26.595 -14.315  0.00  0.00    +0.013 C 
ATOM     25  C   UNL     1      38.684 -24.162 -11.526  0.00  0.00    +0.032 C 
BRANCH  23  26
ATOM     26  N   UNL     1      39.868 -26.348 -13.001  0.00  0.00    -0.357 N 
ATOM     27  H   UNL     1      40.589 -26.224 -13.661  0.00  0.00    +0.142 HD
ATOM     28  H   UNL     1      40.066 -26.760 -12.129  0.00  0.00    +0.142 HD
ENDBRANCH  23  26
ENDBRANCH  18  19
ENDBRANCH   1  18
TORSDOF 4
ENDMDL
MODEL 9
REMARK VINA RESULT:      -9.1      2.678      7.317
REMARK  Name = 21874557
REMARK  4 active torsions:
REMARK  status: ('A' for Active; 'I' for Inactive)
REMARK    1  A    between atoms: N_1  and  C_18
REMARK    2  A    between atoms: C_9  and  C_14
REMARK    3  A    between atoms: C_18  and  C_19
REMARK    4  A    between atoms: C_23  and  N_26
REMARK                            x       y       z     vdW  Elec       q    Type
REMARK                         _______ _______ _______ _____ _____    ______ ____
ROOT
ATOM      1  N   UNL     1      34.893 -15.752 -22.171  0.00  0.00    -0.170 N 
ATOM      2  N   UNL     1      35.193 -15.680 -20.860  0.00  0.00    -0.042 NA
ATOM      3  N   UNL     1      35.290 -16.925 -20.399  0.00  0.00    -0.137 NA
ATOM      4  N   UNL     1      34.508 -17.514 -23.804  0.00  0.00    -0.310 NA
ATOM      5  N   UNL     1      34.730 -19.712 -22.759  0.00  0.00    -0.324 NA
ATOM      6  N   UNL     1      34.213 -19.484 -25.034  0.00  0.00    -0.283 N 
ATOM      7  C   UNL     1      34.790 -17.046 -22.581  0.00  0.00    +0.238 C 
ATOM      8  C   UNL     1      35.046 -17.778 -21.438  0.00  0.00    +0.181 C 
ATOM      9  C   UNL     1      35.010 -19.163 -21.552  0.00  0.00    +0.202 C 
ATOM     10  C   UNL     1      34.500 -18.867 -23.795  0.00  0.00    +0.198 C 
ATOM     11  H   UNL     1      34.035 -18.933 -25.830  0.00  0.00    +0.156 HD
ATOM     12  H   UNL     1      34.190 -20.466 -25.101  0.00  0.00    +0.156 HD
ENDROOT
BRANCH   9  14
ATOM     13  O   UNL     1      36.516 -19.968 -19.928  0.00  0.00    -0.448 OA
ATOM     14  C   UNL     1      35.257 -20.024 -20.439  0.00  0.00    +0.178 C 
ATOM     15  C   UNL     1      34.491 -20.927 -19.740  0.00  0.00    +0.043 C 
ATOM     16  C   UNL     1      35.333 -21.462 -18.735  0.00  0.00    +0.044 C 
ATOM     17  C   UNL     1      36.553 -20.846 -18.892  0.00  0.00    +0.180 C 
ENDBRANCH   9  14
BRANCH   1  18
ATOM     18  C   UNL     1      34.721 -14.532 -22.966  0.00  0.00    +0.145 C 
BRANCH  18  19
ATOM     19  C   UNL     1      33.651 -13.654 -22.412  0.00  0.00    -0.001 C 
ATOM     20  C   UNL     1      33.395 -12.413 -22.995  0.00  0.00    -0.006 C 
ATOM     21  C   UNL     1      32.393 -11.592 -22.477  0.00  0.00    -0.009 C 
ATOM     22  C   UNL     1      32.906 -14.073 -21.309  0.00  0.00    -0.001 C 
ATOM     23  C   UNL     1      31.648 -12.012 -21.374  0.00  0.00    +0.037 C 
ATOM     24  C   UNL     1      31.904 -13.252 -20.790  0.00  0.00    +0.013 C 
ATOM     25  C   UNL     1      32.139 -10.268 -23.121  0.00  0.00    +0.032 C 
BRANCH  23  26
ATOM     26  N   UNL     1      30.630 -11.195 -20.836  0.00  0.00    -0.357 N 
ATOM     27  H   UNL     1      30.561 -10.251 -21.109  0.00  0.00    +0.142 HD
ATOM     28  H   UNL     1      29.990 -11.568 -20.189  0.00  0.00    +0.142 HD
ENDBRANCH  23  26
ENDBRANCH  18  19
ENDBRANCH   1  18
TORSDOF 4
ENDMDL
