MODEL 1
REMARK VINA RESULT:     -11.2      0.000      0.000
REMARK  Name = 9931954
REMARK  3 active torsions:
REMARK  status: ('A' for Active; 'I' for Inactive)
REMARK    1  A    between atoms: C_8  and  C_18
REMARK    2  A    between atoms: C_21  and  C_24
REMARK    3  A    between atoms: C_24  and  N_25
REMARK                            x       y       z     vdW  Elec       q    Type
REMARK                         _______ _______ _______ _____ _____    ______ ____
ROOT
ATOM      1  F   UNL     1      29.594 -25.287 -13.647  0.00  0.00    -0.204 F 
ATOM      2  O   UNL     1      34.166 -24.411 -11.946  0.00  0.00    -0.270 OA
ATOM      3  N   UNL     1      31.992 -22.861 -17.109  0.00  0.00    -0.353 N 
ATOM      4  N   UNL     1      35.559 -24.117 -13.718  0.00  0.00    -0.301 N 
ATOM      5  C   UNL     1      33.974 -22.950 -16.105  0.00  0.00    -0.003 A 
ATOM      6  C   UNL     1      33.018 -23.598 -15.263  0.00  0.00    +0.018 A 
ATOM      7  C   UNL     1      35.430 -22.834 -15.832  0.00  0.00    +0.049 C 
ATOM      8  C   UNL     1      33.305 -22.499 -17.223  0.00  0.00    +0.053 A 
ATOM      9  C   UNL     1      31.790 -23.543 -15.931  0.00  0.00    +0.059 A 
ATOM     10  C   UNL     1      33.079 -24.232 -14.002  0.00  0.00    +0.057 C 
ATOM     11  C   UNL     1      35.951 -24.075 -15.119  0.00  0.00    +0.094 C 
ATOM     12  C   UNL     1      34.302 -24.264 -13.162  0.00  0.00    +0.246 C 
ATOM     13  C   UNL     1      30.617 -24.103 -15.416  0.00  0.00    +0.047 C 
ATOM     14  C   UNL     1      31.898 -24.797 -13.478  0.00  0.00    +0.034 C 
ATOM     15  C   UNL     1      30.695 -24.737 -14.177  0.00  0.00    +0.142 C 
ATOM     16  H   UNL     1      31.294 -22.664 -17.772  0.00  0.00    +0.166 HD
ATOM     17  H   UNL     1      36.297 -24.029 -13.073  0.00  0.00    +0.150 HD
ENDROOT
BRANCH   8  18
ATOM     18  C   UNL     1      33.784 -21.781 -18.382  0.00  0.00    +0.015 C 
ATOM     19  C   UNL     1      35.134 -21.835 -18.724  0.00  0.00    +0.001 C 
ATOM     20  C   UNL     1      32.895 -21.035 -19.155  0.00  0.00    +0.001 C 
ATOM     21  C   UNL     1      34.707 -20.395 -20.617  0.00  0.00    -0.044 C 
ATOM     22  C   UNL     1      35.596 -21.142 -19.843  0.00  0.00    -0.006 C 
ATOM     23  C   UNL     1      33.358 -20.342 -20.273  0.00  0.00    -0.006 C 
BRANCH  21  24
ATOM     24  C   UNL     1      35.201 -19.654 -21.813  0.00  0.00    -0.054 C 
BRANCH  24  25
ATOM     25  N   UNL     1      36.119 -18.599 -21.463  0.00  0.00    +0.385 N 
ATOM     26  C   UNL     1      35.449 -17.301 -21.410  0.00  0.00    -0.105 C 
ATOM     27  H   UNL     1      36.862 -18.561 -22.162  0.00  0.00    -0.084 HD
ATOM     28  H   UNL     1      36.500 -18.800 -20.539  0.00  0.00    -0.084 HD
ENDBRANCH  24  25
ENDBRANCH  21  24
ENDBRANCH   8  18
TORSDOF 3
ENDMDL
MODEL 2
REMARK VINA RESULT:     -10.2      1.952      3.227
REMARK  Name = 9931954
REMARK  3 active torsions:
REMARK  status: ('A' for Active; 'I' for Inactive)
REMARK    1  A    between atoms: C_8  and  C_18
REMARK    2  A    between atoms: C_21  and  C_24
REMARK    3  A    between atoms: C_24  and  N_25
REMARK                            x       y       z     vdW  Elec       q    Type
REMARK                         _______ _______ _______ _____ _____    ______ ____
ROOT
ATOM      1  F   UNL     1      36.652 -24.870 -12.158  0.00  0.00    -0.204 F 
ATOM      2  O   UNL     1      31.903 -25.642 -13.350  0.00  0.00    -0.270 OA
ATOM      3  N   UNL     1      35.838 -22.644 -16.401  0.00  0.00    -0.353 N 
ATOM      4  N   UNL     1      31.225 -23.986 -14.752  0.00  0.00    -0.301 N 
ATOM      5  C   UNL     1      33.638 -22.964 -16.398  0.00  0.00    -0.003 A 
ATOM      6  C   UNL     1      34.178 -23.564 -15.219  0.00  0.00    +0.018 A 
ATOM      7  C   UNL     1      32.197 -22.905 -16.757  0.00  0.00    +0.049 C 
ATOM      8  C   UNL     1      34.689 -22.420 -17.106  0.00  0.00    +0.053 A 
ATOM      9  C   UNL     1      35.557 -23.328 -15.241  0.00  0.00    +0.059 A 
ATOM     10  C   UNL     1      33.629 -24.280 -14.131  0.00  0.00    +0.057 C 
ATOM     11  C   UNL     1      31.333 -22.749 -15.513  0.00  0.00    +0.094 C 
ATOM     12  C   UNL     1      32.199 -24.672 -14.051  0.00  0.00    +0.246 C 
ATOM     13  C   UNL     1      36.420 -23.752 -14.226  0.00  0.00    +0.047 C 
ATOM     14  C   UNL     1      34.494 -24.711 -13.106  0.00  0.00    +0.034 C 
ATOM     15  C   UNL     1      35.861 -24.445 -13.153  0.00  0.00    +0.142 C 
ATOM     16  H   UNL     1      36.736 -22.357 -16.682  0.00  0.00    +0.166 HD
ATOM     17  H   UNL     1      30.330 -24.392 -14.734  0.00  0.00    +0.150 HD
ENDROOT
BRANCH   8  18
ATOM     18  C   UNL     1      34.709 -21.704 -18.361  0.00  0.00    +0.015 C 
ATOM     19  C   UNL     1      33.511 -21.321 -18.962  0.00  0.00    +0.001 C 
ATOM     20  C   UNL     1      35.926 -21.400 -18.968  0.00  0.00    +0.001 C 
ATOM     21  C   UNL     1      34.748 -20.325 -20.782  0.00  0.00    -0.044 C 
ATOM     22  C   UNL     1      33.531 -20.631 -20.173  0.00  0.00    -0.006 C 
ATOM     23  C   UNL     1      35.945 -20.709 -20.180  0.00  0.00    -0.006 C 
BRANCH  21  24
ATOM     24  C   UNL     1      34.769 -19.587 -22.077  0.00  0.00    -0.054 C 
BRANCH  24  25
ATOM     25  N   UNL     1      35.829 -18.611 -22.135  0.00  0.00    +0.385 N 
ATOM     26  C   UNL     1      35.426 -17.345 -21.524  0.00  0.00    -0.105 C 
ATOM     27  H   UNL     1      36.073 -18.444 -23.112  0.00  0.00    -0.084 HD
ATOM     28  H   UNL     1      36.628 -18.975 -21.618  0.00  0.00    -0.084 HD
ENDBRANCH  24  25
ENDBRANCH  21  24
ENDBRANCH   8  18
TORSDOF 3
ENDMDL
MODEL 3
REMARK VINA RESULT:      -9.7      9.471     13.739
REMARK  Name = 9931954
REMARK  3 active torsions:
REMARK  status: ('A' for Active; 'I' for Inactive)
REMARK    1  A    between atoms: C_8  and  C_18
REMARK    2  A    between atoms: C_21  and  C_24
REMARK    3  A    between atoms: C_24  and  N_25
REMARK                            x       y       z     vdW  Elec       q    Type
REMARK                         _______ _______ _______ _____ _____    ______ ____
ROOT
ATOM      1  F   UNL     1      33.372  -5.977 -23.395  0.00  0.00    -0.204 F 
ATOM      2  O   UNL     1      31.581  -8.020 -19.249  0.00  0.00    -0.270 OA
ATOM      3  N   UNL     1      33.888 -10.792 -23.807  0.00  0.00    -0.353 N 
ATOM      4  N   UNL     1      30.970 -10.163 -19.698  0.00  0.00    -0.301 N 
ATOM      5  C   UNL     1      32.736 -11.293 -21.973  0.00  0.00    -0.003 A 
ATOM      6  C   UNL     1      32.772  -9.871 -22.102  0.00  0.00    +0.018 A 
ATOM      7  C   UNL     1      32.021 -12.048 -20.912  0.00  0.00    +0.049 C 
ATOM      8  C   UNL     1      33.442 -11.825 -23.031  0.00  0.00    +0.053 A 
ATOM      9  C   UNL     1      33.485  -9.590 -23.273  0.00  0.00    +0.059 A 
ATOM     10  C   UNL     1      32.263  -8.794 -21.341  0.00  0.00    +0.057 C 
ATOM     11  C   UNL     1      30.730 -11.342 -20.517  0.00  0.00    +0.094 C 
ATOM     12  C   UNL     1      31.579  -8.969 -20.036  0.00  0.00    +0.246 C 
ATOM     13  C   UNL     1      33.704  -8.290 -23.739  0.00  0.00    +0.047 C 
ATOM     14  C   UNL     1      32.483  -7.481 -21.806  0.00  0.00    +0.034 C 
ATOM     15  C   UNL     1      33.185  -7.239 -22.985  0.00  0.00    +0.142 C 
ATOM     16  H   UNL     1      34.420 -10.893 -24.628  0.00  0.00    +0.166 HD
ATOM     17  H   UNL     1      30.652 -10.224 -18.769  0.00  0.00    +0.150 HD
ENDROOT
BRANCH   8  18
ATOM     18  C   UNL     1      33.720 -13.198 -23.383  0.00  0.00    +0.015 C 
ATOM     19  C   UNL     1      33.188 -13.737 -24.553  0.00  0.00    +0.001 C 
ATOM     20  C   UNL     1      34.521 -13.981 -22.552  0.00  0.00    +0.001 C 
ATOM     21  C   UNL     1      34.258 -15.847 -24.062  0.00  0.00    -0.044 C 
ATOM     22  C   UNL     1      33.457 -15.063 -24.893  0.00  0.00    -0.006 C 
ATOM     23  C   UNL     1      34.789 -15.307 -22.893  0.00  0.00    -0.006 C 
BRANCH  21  24
ATOM     24  C   UNL     1      34.545 -17.265 -24.426  0.00  0.00    -0.054 C 
BRANCH  24  25
ATOM     25  N   UNL     1      35.192 -17.984 -23.358  0.00  0.00    +0.385 N 
ATOM     26  C   UNL     1      34.561 -19.282 -23.126  0.00  0.00    -0.105 C 
ATOM     27  H   UNL     1      35.135 -17.430 -22.503  0.00  0.00    -0.084 HD
ATOM     28  H   UNL     1      36.164 -18.144 -23.623  0.00  0.00    -0.084 HD
ENDBRANCH  24  25
ENDBRANCH  21  24
ENDBRANCH   8  18
TORSDOF 3
ENDMDL
MODEL 4
REMARK VINA RESULT:      -9.4     11.092     15.043
REMARK  Name = 9931954
REMARK  3 active torsions:
REMARK  status: ('A' for Active; 'I' for Inactive)
REMARK    1  A    between atoms: C_8  and  C_18
REMARK    2  A    between atoms: C_21  and  C_24
REMARK    3  A    between atoms: C_24  and  N_25
REMARK                            x       y       z     vdW  Elec       q    Type
REMARK                         _______ _______ _______ _____ _____    ______ ____
ROOT
ATOM      1  F   UNL     1      34.074 -13.841 -24.655  0.00  0.00    -0.204 F 
ATOM      2  O   UNL     1      31.786 -14.215 -20.274  0.00  0.00    -0.270 OA
ATOM      3  N   UNL     1      32.646  -9.375 -23.376  0.00  0.00    -0.353 N 
ATOM      4  N   UNL     1      31.889 -12.201 -19.224  0.00  0.00    -0.301 N 
ATOM      5  C   UNL     1      31.986  -9.934 -21.328  0.00  0.00    -0.003 A 
ATOM      6  C   UNL     1      32.458 -11.114 -21.983  0.00  0.00    +0.018 A 
ATOM      7  C   UNL     1      31.503  -9.857 -19.925  0.00  0.00    +0.049 C 
ATOM      8  C   UNL     1      32.105  -8.889 -22.219  0.00  0.00    +0.053 A 
ATOM      9  C   UNL     1      32.882 -10.725 -23.258  0.00  0.00    +0.059 A 
ATOM     10  C   UNL     1      32.571 -12.473 -21.613  0.00  0.00    +0.057 C 
ATOM     11  C   UNL     1      32.280 -10.813 -19.029  0.00  0.00    +0.094 C 
ATOM     12  C   UNL     1      32.063 -13.015 -20.328  0.00  0.00    +0.246 C 
ATOM     13  C   UNL     1      33.434 -11.617 -24.183  0.00  0.00    +0.047 C 
ATOM     14  C   UNL     1      33.124 -13.377 -22.543  0.00  0.00    +0.034 C 
ATOM     15  C   UNL     1      33.551 -12.952 -23.799  0.00  0.00    +0.142 C 
ATOM     16  H   UNL     1      32.838  -8.838 -24.177  0.00  0.00    +0.166 HD
ATOM     17  H   UNL     1      31.434 -12.622 -18.460  0.00  0.00    +0.150 HD
ENDROOT
BRANCH   8  18
ATOM     18  C   UNL     1      31.774  -7.489 -22.079  0.00  0.00    +0.015 C 
ATOM     19  C   UNL     1      30.784  -6.925 -22.881  0.00  0.00    +0.001 C 
ATOM     20  C   UNL     1      32.446  -6.706 -21.141  0.00  0.00    +0.001 C 
ATOM     21  C   UNL     1      31.137  -4.789 -21.808  0.00  0.00    -0.044 C 
ATOM     22  C   UNL     1      30.465  -5.574 -22.746  0.00  0.00    -0.006 C 
ATOM     23  C   UNL     1      32.127  -5.355 -21.007  0.00  0.00    -0.006 C 
BRANCH  21  24
ATOM     24  C   UNL     1      30.795  -3.345 -21.664  0.00  0.00    -0.054 C 
BRANCH  24  25
ATOM     25  N   UNL     1      31.912  -2.485 -21.966  0.00  0.00    +0.385 N 
ATOM     26  C   UNL     1      31.956  -2.143 -23.387  0.00  0.00    -0.105 C 
ATOM     27  H   UNL     1      32.777  -2.964 -21.714  0.00  0.00    -0.084 HD
ATOM     28  H   UNL     1      31.805  -1.623 -21.433  0.00  0.00    -0.084 HD
ENDBRANCH  24  25
ENDBRANCH  21  24
ENDBRANCH   8  18
TORSDOF 3
ENDMDL
MODEL 5
REMARK VINA RESULT:      -9.3      8.445     12.268
REMARK  Name = 9931954
REMARK  3 active torsions:
REMARK  status: ('A' for Active; 'I' for Inactive)
REMARK    1  A    between atoms: C_8  and  C_18
REMARK    2  A    between atoms: C_21  and  C_24
REMARK    3  A    between atoms: C_24  and  N_25
REMARK                            x       y       z     vdW  Elec       q    Type
REMARK                         _______ _______ _______ _____ _____    ______ ____
ROOT
ATOM      1  F   UNL     1      30.760  -9.287 -18.396  0.00  0.00    -0.204 F 
ATOM      2  O   UNL     1      31.006  -8.775 -23.320  0.00  0.00    -0.270 OA
ATOM      3  N   UNL     1      33.010 -13.219 -20.155  0.00  0.00    -0.353 N 
ATOM      4  N   UNL     1      32.736 -10.029 -24.098  0.00  0.00    -0.301 N 
ATOM      5  C   UNL     1      33.173 -12.464 -22.240  0.00  0.00    -0.003 A 
ATOM      6  C   UNL     1      32.498 -11.476 -21.459  0.00  0.00    +0.018 A 
ATOM      7  C   UNL     1      33.534 -12.335 -23.676  0.00  0.00    +0.049 C 
ATOM      8  C   UNL     1      33.460 -13.526 -21.408  0.00  0.00    +0.053 A 
ATOM      9  C   UNL     1      32.430 -11.972 -20.152  0.00  0.00    +0.059 A 
ATOM     10  C   UNL     1      31.944 -10.205 -21.733  0.00  0.00    +0.057 C 
ATOM     11  C   UNL     1      33.901 -10.897 -24.016  0.00  0.00    +0.094 C 
ATOM     12  C   UNL     1      31.872  -9.624 -23.097  0.00  0.00    +0.246 C 
ATOM     13  C   UNL     1      31.853 -11.260 -19.096  0.00  0.00    +0.047 C 
ATOM     14  C   UNL     1      31.359  -9.485 -20.672  0.00  0.00    +0.034 C 
ATOM     15  C   UNL     1      31.323 -10.003 -19.379  0.00  0.00    +0.142 C 
ATOM     16  H   UNL     1      33.089 -13.806 -19.369  0.00  0.00    +0.166 HD
ATOM     17  H   UNL     1      32.533  -9.680 -24.995  0.00  0.00    +0.150 HD
ENDROOT
BRANCH   8  18
ATOM     18  C   UNL     1      34.125 -14.781 -21.678  0.00  0.00    +0.015 C 
ATOM     19  C   UNL     1      34.576 -15.569 -20.621  0.00  0.00    +0.001 C 
ATOM     20  C   UNL     1      34.313 -15.199 -22.994  0.00  0.00    +0.001 C 
ATOM     21  C   UNL     1      35.406 -17.200 -22.197  0.00  0.00    -0.044 C 
ATOM     22  C   UNL     1      35.217 -16.780 -20.881  0.00  0.00    -0.006 C 
ATOM     23  C   UNL     1      34.955 -16.410 -23.253  0.00  0.00    -0.006 C 
BRANCH  21  24
ATOM     24  C   UNL     1      36.092 -18.495 -22.475  0.00  0.00    -0.054 C 
BRANCH  24  25
ATOM     25  N   UNL     1      37.356 -18.603 -21.791  0.00  0.00    +0.385 N 
ATOM     26  C   UNL     1      37.228 -19.352 -20.542  0.00  0.00    -0.105 C 
ATOM     27  H   UNL     1      37.701 -17.666 -21.582  0.00  0.00    -0.084 HD
ATOM     28  H   UNL     1      38.006 -19.102 -22.398  0.00  0.00    -0.084 HD
ENDBRANCH  24  25
ENDBRANCH  21  24
ENDBRANCH   8  18
TORSDOF 3
ENDMDL
MODEL 6
REMARK VINA RESULT:      -9.0     12.205     15.555
REMARK  Name = 9931954
REMARK  3 active torsions:
REMARK  status: ('A' for Active; 'I' for Inactive)
REMARK    1  A    between atoms: C_8  and  C_18
REMARK    2  A    between atoms: C_21  and  C_24
REMARK    3  A    between atoms: C_24  and  N_25
REMARK                            x       y       z     vdW  Elec       q    Type
REMARK                         _______ _______ _______ _____ _____    ______ ____
ROOT
ATOM      1  F   UNL     1      31.892 -13.845 -21.459  0.00  0.00    -0.204 F 
ATOM      2  O   UNL     1      30.608 -10.130 -18.439  0.00  0.00    -0.270 OA
ATOM      3  N   UNL     1      33.078  -9.689 -23.681  0.00  0.00    -0.353 N 
ATOM      4  N   UNL     1      31.873  -8.310 -18.944  0.00  0.00    -0.301 N 
ATOM      5  C   UNL     1      32.642  -8.377 -21.941  0.00  0.00    -0.003 A 
ATOM      6  C   UNL     1      32.348  -9.726 -21.568  0.00  0.00    +0.018 A 
ATOM      7  C   UNL     1      32.539  -7.192 -21.051  0.00  0.00    +0.049 C 
ATOM      8  C   UNL     1      33.075  -8.393 -23.249  0.00  0.00    +0.053 A 
ATOM      9  C   UNL     1      32.651 -10.525 -22.676  0.00  0.00    +0.059 A 
ATOM     10  C   UNL     1      31.860 -10.345 -20.395  0.00  0.00    +0.057 C 
ATOM     11  C   UNL     1      32.915  -7.551 -19.619  0.00  0.00    +0.094 C 
ATOM     12  C   UNL     1      31.414  -9.589 -19.198  0.00  0.00    +0.246 C 
ATOM     13  C   UNL     1      32.511 -11.916 -22.673  0.00  0.00    +0.047 C 
ATOM     14  C   UNL     1      31.715 -11.747 -20.388  0.00  0.00    +0.034 C 
ATOM     15  C   UNL     1      32.041 -12.514 -21.504  0.00  0.00    +0.142 C 
ATOM     16  H   UNL     1      33.346  -9.983 -24.581  0.00  0.00    +0.166 HD
ATOM     17  H   UNL     1      31.430  -7.845 -18.199  0.00  0.00    +0.150 HD
ENDROOT
BRANCH   8  18
ATOM     18  C   UNL     1      33.496  -7.315 -24.115  0.00  0.00    +0.015 C 
ATOM     19  C   UNL     1      34.806  -6.843 -24.050  0.00  0.00    +0.001 C 
ATOM     20  C   UNL     1      32.592  -6.751 -25.013  0.00  0.00    +0.001 C 
ATOM     21  C   UNL     1      34.308  -5.237 -25.785  0.00  0.00    -0.044 C 
ATOM     22  C   UNL     1      35.212  -5.803 -24.886  0.00  0.00    -0.006 C 
ATOM     23  C   UNL     1      32.999  -5.711 -25.848  0.00  0.00    -0.006 C 
BRANCH  21  24
ATOM     24  C   UNL     1      34.743  -4.125 -26.679  0.00  0.00    -0.054 C 
BRANCH  24  25
ATOM     25  N   UNL     1      34.514  -4.420 -28.071  0.00  0.00    +0.385 N 
ATOM     26  C   UNL     1      35.544  -5.308 -28.607  0.00  0.00    -0.105 C 
ATOM     27  H   UNL     1      34.521  -3.547 -28.600  0.00  0.00    -0.084 HD
ATOM     28  H   UNL     1      33.613  -4.889 -28.155  0.00  0.00    -0.084 HD
ENDBRANCH  24  25
ENDBRANCH  21  24
ENDBRANCH   8  18
TORSDOF 3
ENDMDL
MODEL 7
REMARK VINA RESULT:      -8.9     10.257     14.234
REMARK  Name = 9931954
REMARK  3 active torsions:
REMARK  status: ('A' for Active; 'I' for Inactive)
REMARK    1  A    between atoms: C_8  and  C_18
REMARK    2  A    between atoms: C_21  and  C_24
REMARK    3  A    between atoms: C_24  and  N_25
REMARK                            x       y       z     vdW  Elec       q    Type
REMARK                         _______ _______ _______ _____ _____    ______ ____
ROOT
ATOM      1  F   UNL     1      32.127 -14.900 -18.803  0.00  0.00    -0.204 F 
ATOM      2  O   UNL     1      34.944 -14.514 -22.863  0.00  0.00    -0.270 OA
ATOM      3  N   UNL     1      31.597 -10.382 -20.514  0.00  0.00    -0.353 N 
ATOM      4  N   UNL     1      34.110 -12.852 -24.172  0.00  0.00    -0.301 N 
ATOM      5  C   UNL     1      32.721 -10.729 -22.401  0.00  0.00    -0.003 A 
ATOM      6  C   UNL     1      32.732 -11.942 -21.645  0.00  0.00    +0.018 A 
ATOM      7  C   UNL     1      33.315 -10.545 -23.751  0.00  0.00    +0.049 C 
ATOM      8  C   UNL     1      32.026  -9.790 -21.669  0.00  0.00    +0.053 A 
ATOM      9  C   UNL     1      32.002 -11.696 -20.477  0.00  0.00    +0.059 A 
ATOM     10  C   UNL     1      33.286 -13.227 -21.843  0.00  0.00    +0.057 C 
ATOM     11  C   UNL     1      33.178 -11.813 -24.583  0.00  0.00    +0.094 C 
ATOM     12  C   UNL     1      34.159 -13.571 -22.993  0.00  0.00    +0.246 C 
ATOM     13  C   UNL     1      31.777 -12.671 -19.500  0.00  0.00    +0.047 C 
ATOM     14  C   UNL     1      33.064 -14.212 -20.859  0.00  0.00    +0.034 C 
ATOM     15  C   UNL     1      32.319 -13.937 -19.715  0.00  0.00    +0.142 C 
ATOM     16  H   UNL     1      31.075  -9.934 -19.812  0.00  0.00    +0.166 HD
ATOM     17  H   UNL     1      34.808 -13.075 -24.829  0.00  0.00    +0.150 HD
ENDROOT
BRANCH   8  18
ATOM     18  C   UNL     1      31.719  -8.408 -21.959  0.00  0.00    +0.015 C 
ATOM     19  C   UNL     1      31.115  -8.070 -23.169  0.00  0.00    +0.001 C 
ATOM     20  C   UNL     1      32.027  -7.417 -21.029  0.00  0.00    +0.001 C 
ATOM     21  C   UNL     1      31.127  -5.743 -22.518  0.00  0.00    -0.044 C 
ATOM     22  C   UNL     1      30.819  -6.736 -23.449  0.00  0.00    -0.006 C 
ATOM     23  C   UNL     1      31.731  -6.084 -21.309  0.00  0.00    -0.006 C 
BRANCH  21  24
ATOM     24  C   UNL     1      30.810  -4.317 -22.818  0.00  0.00    -0.054 C 
BRANCH  24  25
ATOM     25  N   UNL     1      30.078  -3.682 -21.750  0.00  0.00    +0.385 N 
ATOM     26  C   UNL     1      30.278  -2.234 -21.751  0.00  0.00    -0.105 C 
ATOM     27  H   UNL     1      30.399  -4.061 -20.859  0.00  0.00    -0.084 HD
ATOM     28  H   UNL     1      29.085  -3.868 -21.889  0.00  0.00    -0.084 HD
ENDBRANCH  24  25
ENDBRANCH  21  24
ENDBRANCH   8  18
TORSDOF 3
ENDMDL
MODEL 8
REMARK VINA RESULT:      -8.8      9.409     13.279
REMARK  Name = 9931954
REMARK  3 active torsions:
REMARK  status: ('A' for Active; 'I' for Inactive)
REMARK    1  A    between atoms: C_8  and  C_18
REMARK    2  A    between atoms: C_21  and  C_24
REMARK    3  A    between atoms: C_24  and  N_25
REMARK                            x       y       z     vdW  Elec       q    Type
REMARK                         _______ _______ _______ _____ _____    ______ ____
ROOT
ATOM      1  F   UNL     1      30.716  -8.811 -18.392  0.00  0.00    -0.204 F 
ATOM      2  O   UNL     1      32.242  -6.870 -22.691  0.00  0.00    -0.270 OA
ATOM      3  N   UNL     1      32.422 -12.460 -21.109  0.00  0.00    -0.353 N 
ATOM      4  N   UNL     1      33.796  -8.255 -23.604  0.00  0.00    -0.301 N 
ATOM      5  C   UNL     1      33.240 -11.169 -22.723  0.00  0.00    -0.003 A 
ATOM      6  C   UNL     1      32.626 -10.327 -21.746  0.00  0.00    +0.018 A 
ATOM      7  C   UNL     1      33.955 -10.703 -23.940  0.00  0.00    +0.049 C 
ATOM      8  C   UNL     1      33.084 -12.473 -22.305  0.00  0.00    +0.053 A 
ATOM      9  C   UNL     1      32.141 -11.167 -20.738  0.00  0.00    +0.059 A 
ATOM     10  C   UNL     1      32.441  -8.931 -21.616  0.00  0.00    +0.057 C 
ATOM     11  C   UNL     1      34.694  -9.399 -23.672  0.00  0.00    +0.094 C 
ATOM     12  C   UNL     1      32.825  -7.956 -22.667  0.00  0.00    +0.246 C 
ATOM     13  C   UNL     1      31.494 -10.689 -19.593  0.00  0.00    +0.047 C 
ATOM     14  C   UNL     1      31.787  -8.446 -20.465  0.00  0.00    +0.034 C 
ATOM     15  C   UNL     1      31.330  -9.310 -19.473  0.00  0.00    +0.142 C 
ATOM     16  H   UNL     1      32.182 -13.261 -20.590  0.00  0.00    +0.166 HD
ATOM     17  H   UNL     1      33.895  -7.599 -24.330  0.00  0.00    +0.150 HD
ENDROOT
BRANCH   8  18
ATOM     18  C   UNL     1      33.508 -13.714 -22.912  0.00  0.00    +0.015 C 
ATOM     19  C   UNL     1      33.020 -14.077 -24.166  0.00  0.00    +0.001 C 
ATOM     20  C   UNL     1      34.404 -14.545 -22.242  0.00  0.00    +0.001 C 
ATOM     21  C   UNL     1      34.326 -16.108 -24.082  0.00  0.00    -0.044 C 
ATOM     22  C   UNL     1      33.429 -15.275 -24.751  0.00  0.00    -0.006 C 
ATOM     23  C   UNL     1      34.813 -15.743 -22.828  0.00  0.00    -0.006 C 
BRANCH  21  24
ATOM     24  C   UNL     1      34.763 -17.388 -24.708  0.00  0.00    -0.054 C 
BRANCH  24  25
ATOM     25  N   UNL     1      33.971 -18.510 -24.272  0.00  0.00    +0.385 N 
ATOM     26  C   UNL     1      34.694 -19.334 -23.304  0.00  0.00    -0.105 C 
ATOM     27  H   UNL     1      33.733 -19.083 -25.082  0.00  0.00    -0.084 HD
ATOM     28  H   UNL     1      33.129 -18.152 -23.821  0.00  0.00    -0.084 HD
ENDBRANCH  24  25
ENDBRANCH  21  24
ENDBRANCH   8  18
TORSDOF 3
ENDMDL
MODEL 9
REMARK VINA RESULT:      -8.8      4.116      6.241
REMARK  Name = 9931954
REMARK  3 active torsions:
REMARK  status: ('A' for Active; 'I' for Inactive)
REMARK    1  A    between atoms: C_8  and  C_18
REMARK    2  A    between atoms: C_21  and  C_24
REMARK    3  A    between atoms: C_24  and  N_25
REMARK                            x       y       z     vdW  Elec       q    Type
REMARK                         _______ _______ _______ _____ _____    ______ ____
ROOT
ATOM      1  F   UNL     1      39.055 -22.533 -16.134  0.00  0.00    -0.204 F 
ATOM      2  O   UNL     1      37.841 -25.814 -12.622  0.00  0.00    -0.270 OA
ATOM      3  N   UNL     1      34.205 -22.616 -15.836  0.00  0.00    -0.353 N 
ATOM      4  N   UNL     1      35.781 -25.290 -11.816  0.00  0.00    -0.301 N 
ATOM      5  C   UNL     1      34.118 -23.909 -14.030  0.00  0.00    -0.003 A 
ATOM      6  C   UNL     1      35.491 -23.724 -14.380  0.00  0.00    +0.018 A 
ATOM      7  C   UNL     1      33.620 -24.666 -12.852  0.00  0.00    +0.049 C 
ATOM      8  C   UNL     1      33.357 -23.225 -14.953  0.00  0.00    +0.053 A 
ATOM      9  C   UNL     1      35.511 -22.892 -15.505  0.00  0.00    +0.059 A 
ATOM     10  C   UNL     1      36.719 -24.176 -13.848  0.00  0.00    +0.057 C 
ATOM     11  C   UNL     1      34.563 -24.508 -11.666  0.00  0.00    +0.094 C 
ATOM     12  C   UNL     1      36.815 -25.138 -12.721  0.00  0.00    +0.246 C 
ATOM     13  C   UNL     1      36.694 -22.469 -16.120  0.00  0.00    +0.047 C 
ATOM     14  C   UNL     1      37.914 -23.755 -14.465  0.00  0.00    +0.034 C 
ATOM     15  C   UNL     1      37.898 -22.914 -15.575  0.00  0.00    +0.142 C 
ATOM     16  H   UNL     1      33.922 -22.060 -16.597  0.00  0.00    +0.166 HD
ATOM     17  H   UNL     1      35.885 -26.034 -11.181  0.00  0.00    +0.150 HD
ENDROOT
BRANCH   8  18
ATOM     18  C   UNL     1      31.924 -23.080 -15.072  0.00  0.00    +0.015 C 
ATOM     19  C   UNL     1      31.350 -22.863 -16.323  0.00  0.00    +0.001 C 
ATOM     20  C   UNL     1      31.121 -23.158 -13.936  0.00  0.00    +0.001 C 
ATOM     21  C   UNL     1      29.161 -22.802 -15.301  0.00  0.00    -0.044 C 
ATOM     22  C   UNL     1      29.966 -22.724 -16.438  0.00  0.00    -0.006 C 
ATOM     23  C   UNL     1      29.738 -23.019 -14.051  0.00  0.00    -0.006 C 
BRANCH  21  24
ATOM     24  C   UNL     1      27.682 -22.653 -15.424  0.00  0.00    -0.054 C 
BRANCH  24  25
ATOM     25  N   UNL     1      27.249 -22.599 -16.798  0.00  0.00    +0.385 N 
ATOM     26  C   UNL     1      26.268 -21.536 -17.010  0.00  0.00    -0.105 C 
ATOM     27  H   UNL     1      26.828 -23.494 -17.047  0.00  0.00    -0.084 HD
ATOM     28  H   UNL     1      28.062 -22.405 -17.382  0.00  0.00    -0.084 HD
ENDBRANCH  24  25
ENDBRANCH  21  24
ENDBRANCH   8  18
TORSDOF 3
ENDMDL
