MODEL 1
REMARK VINA RESULT:     -11.9      0.000      0.000
REMARK  Name = 24880024
REMARK  5 active torsions:
REMARK  status: ('A' for Active; 'I' for Inactive)
REMARK    1  A    between atoms: N_5  and  C_12
REMARK    2  A    between atoms: C_6  and  C_22
REMARK    3  A    between atoms: C_13  and  C_21
REMARK    4  A    between atoms: C_22  and  C_23
REMARK    5  A    between atoms: C_23  and  N_25
REMARK                            x       y       z     vdW  Elec       q    Type
REMARK                         _______ _______ _______ _____ _____    ______ ____
ROOT
ATOM      1  S   UNL     1      36.509 -20.597 -19.573  0.00  0.00    -0.056 S 
ATOM      2  O   UNL     1      35.279 -23.334 -15.995  0.00  0.00    -0.252 OA
ATOM      3  N   UNL     1      34.528 -21.867 -18.500  0.00  0.00    -0.223 NA
ATOM      4  N   UNL     1      36.653 -22.022 -17.377  0.00  0.00    -0.248 N 
ATOM      5  N   UNL     1      37.542 -23.047 -15.477  0.00  0.00    -0.268 N 
ATOM      6  C   UNL     1      34.983 -20.509 -20.351  0.00  0.00    +0.031 C 
ATOM      7  C   UNL     1      34.057 -21.241 -19.638  0.00  0.00    +0.103 C 
ATOM      8  C   UNL     1      35.807 -21.597 -18.366  0.00  0.00    +0.166 C 
ATOM      9  C   UNL     1      36.381 -22.857 -16.245  0.00  0.00    +0.310 C 
ATOM     10  H   UNL     1      37.584 -21.709 -17.455  0.00  0.00    +0.158 HD
ATOM     11  H   UNL     1      38.355 -22.599 -15.805  0.00  0.00    +0.156 HD
ENDROOT
BRANCH   5  12
ATOM     12  C   UNL     1      37.686 -23.803 -14.290  0.00  0.00    +0.052 C 
ATOM     13  C   UNL     1      37.003 -24.294 -12.025  0.00  0.00    +0.073 C 
ATOM     14  C   UNL     1      36.861 -23.548 -13.195  0.00  0.00    +0.019 C 
ATOM     15  C   UNL     1      38.654 -24.805 -14.215  0.00  0.00    +0.015 C 
ATOM     16  C   UNL     1      37.970 -25.296 -11.951  0.00  0.00    +0.004 C 
ATOM     17  C   UNL     1      38.796 -25.552 -13.046  0.00  0.00    +0.001 C 
BRANCH  13  21
ATOM     18  F   UNL     1      35.728 -25.149 -10.190  0.00  0.00    -0.166 F 
ATOM     19  F   UNL     1      36.703 -23.233  -9.903  0.00  0.00    -0.166 F 
ATOM     20  F   UNL     1      34.967 -23.382 -11.203  0.00  0.00    -0.166 F 
ATOM     21  C   UNL     1      36.120 -24.022 -10.854  0.00  0.00    +0.419 C 
ENDBRANCH  13  21
ENDBRANCH   5  12
BRANCH   6  22
ATOM     22  C   UNL     1      34.815 -19.713 -21.622  0.00  0.00    +0.056 C 
BRANCH  22  23
ATOM     23  C   UNL     1      35.837 -18.585 -21.763  0.00  0.00    +0.093 C 
BRANCH  23  25
ATOM     24  S   UNL     1      34.114 -15.182 -24.403  0.00  0.00    -0.101 S 
ATOM     25  N   UNL     1      35.298 -17.497 -22.521  0.00  0.00    -0.320 N 
ATOM     26  N   UNL     1      35.008 -16.117 -20.604  0.00  0.00    -0.233 NA
ATOM     27  N   UNL     1      34.093 -13.881 -20.743  0.00  0.00    -0.247 NA
ATOM     28  C   UNL     1      34.892 -16.283 -21.936  0.00  0.00    +0.118 C 
ATOM     29  C   UNL     1      34.373 -15.250 -22.708  0.00  0.00    +0.145 C 
ATOM     30  C   UNL     1      33.983 -14.065 -22.086  0.00  0.00    +0.073 C 
ATOM     31  C   UNL     1      33.475 -13.114 -23.021  0.00  0.00    +0.022 C 
ATOM     32  C   UNL     1      33.490 -13.593 -24.311  0.00  0.00    +0.033 C 
ATOM     33  C   UNL     1      34.606 -14.938 -20.093  0.00  0.00    +0.251 C 
ATOM     34  H   UNL     1      35.206 -17.603 -23.495  0.00  0.00    +0.148 HD
ENDBRANCH  23  25
ENDBRANCH  22  23
ENDBRANCH   6  22
TORSDOF 5
ENDMDL
MODEL 2
REMARK VINA RESULT:     -11.7      1.128      1.562
REMARK  Name = 24880024
REMARK  5 active torsions:
REMARK  status: ('A' for Active; 'I' for Inactive)
REMARK    1  A    between atoms: N_5  and  C_12
REMARK    2  A    between atoms: C_6  and  C_22
REMARK    3  A    between atoms: C_13  and  C_21
REMARK    4  A    between atoms: C_22  and  C_23
REMARK    5  A    between atoms: C_23  and  N_25
REMARK                            x       y       z     vdW  Elec       q    Type
REMARK                         _______ _______ _______ _____ _____    ______ ____
ROOT
ATOM      1  S   UNL     1      36.609 -20.507 -19.487  0.00  0.00    -0.056 S 
ATOM      2  O   UNL     1      35.284 -23.352 -16.030  0.00  0.00    -0.252 OA
ATOM      3  N   UNL     1      34.605 -21.822 -18.519  0.00  0.00    -0.223 NA
ATOM      4  N   UNL     1      36.692 -21.990 -17.327  0.00  0.00    -0.248 N 
ATOM      5  N   UNL     1      37.525 -23.059 -15.426  0.00  0.00    -0.268 N 
ATOM      6  C   UNL     1      35.111 -20.410 -20.315  0.00  0.00    +0.031 C 
ATOM      7  C   UNL     1      34.168 -21.170 -19.655  0.00  0.00    +0.103 C 
ATOM      8  C   UNL     1      35.877 -21.545 -18.333  0.00  0.00    +0.166 C 
ATOM      9  C   UNL     1      36.390 -22.859 -16.228  0.00  0.00    +0.310 C 
ATOM     10  H   UNL     1      37.622 -21.667 -17.364  0.00  0.00    +0.158 HD
ATOM     11  H   UNL     1      38.344 -22.596 -15.714  0.00  0.00    +0.156 HD
ENDROOT
BRANCH   5  12
ATOM     12  C   UNL     1      37.635 -23.847 -14.256  0.00  0.00    +0.052 C 
ATOM     13  C   UNL     1      36.926 -24.362 -12.005  0.00  0.00    +0.073 C 
ATOM     14  C   UNL     1      36.817 -23.585 -13.158  0.00  0.00    +0.019 C 
ATOM     15  C   UNL     1      38.563 -24.888 -14.202  0.00  0.00    +0.015 C 
ATOM     16  C   UNL     1      37.853 -25.402 -11.950  0.00  0.00    +0.004 C 
ATOM     17  C   UNL     1      38.672 -25.665 -13.049  0.00  0.00    +0.001 C 
BRANCH  13  21
ATOM     18  F   UNL     1      35.648 -25.204 -10.167  0.00  0.00    -0.166 F 
ATOM     19  F   UNL     1      36.648 -23.301  -9.879  0.00  0.00    -0.166 F 
ATOM     20  F   UNL     1      34.905 -23.426 -11.173  0.00  0.00    -0.166 F 
ATOM     21  C   UNL     1      36.052 -24.081 -10.829  0.00  0.00    +0.419 C 
ENDBRANCH  13  21
ENDBRANCH   5  12
BRANCH   6  22
ATOM     22  C   UNL     1      34.979 -19.580 -21.569  0.00  0.00    +0.056 C 
BRANCH  22  23
ATOM     23  C   UNL     1      36.044 -18.491 -21.682  0.00  0.00    +0.093 C 
BRANCH  23  25
ATOM     24  S   UNL     1      34.246 -14.298 -20.838  0.00  0.00    -0.101 S 
ATOM     25  N   UNL     1      35.473 -17.193 -21.488  0.00  0.00    -0.320 N 
ATOM     26  N   UNL     1      34.878 -16.954 -23.780  0.00  0.00    -0.233 NA
ATOM     27  N   UNL     1      33.769 -14.980 -24.631  0.00  0.00    -0.247 NA
ATOM     28  C   UNL     1      34.900 -16.444 -22.533  0.00  0.00    +0.118 C 
ATOM     29  C   UNL     1      34.356 -15.186 -22.302  0.00  0.00    +0.145 C 
ATOM     30  C   UNL     1      33.799 -14.480 -23.368  0.00  0.00    +0.073 C 
ATOM     31  C   UNL     1      33.288 -13.212 -22.957  0.00  0.00    +0.022 C 
ATOM     32  C   UNL     1      33.466 -12.989 -21.611  0.00  0.00    +0.033 C 
ATOM     33  C   UNL     1      34.319 -16.199 -24.744  0.00  0.00    +0.251 C 
ATOM     34  H   UNL     1      35.482 -16.806 -20.583  0.00  0.00    +0.148 HD
ENDBRANCH  23  25
ENDBRANCH  22  23
ENDBRANCH   6  22
TORSDOF 5
ENDMDL
MODEL 3
REMARK VINA RESULT:     -11.3      1.809      2.325
REMARK  Name = 24880024
REMARK  5 active torsions:
REMARK  status: ('A' for Active; 'I' for Inactive)
REMARK    1  A    between atoms: N_5  and  C_12
REMARK    2  A    between atoms: C_6  and  C_22
REMARK    3  A    between atoms: C_13  and  C_21
REMARK    4  A    between atoms: C_22  and  C_23
REMARK    5  A    between atoms: C_23  and  N_25
REMARK                            x       y       z     vdW  Elec       q    Type
REMARK                         _______ _______ _______ _____ _____    ______ ____
ROOT
ATOM      1  S   UNL     1      34.215 -21.079 -19.893  0.00  0.00    -0.056 S 
ATOM      2  O   UNL     1      36.916 -22.131 -16.233  0.00  0.00    -0.252 OA
ATOM      3  N   UNL     1      36.548 -20.703 -18.844  0.00  0.00    -0.223 NA
ATOM      4  N   UNL     1      35.022 -22.112 -17.623  0.00  0.00    -0.248 N 
ATOM      5  N   UNL     1      35.000 -23.332 -15.633  0.00  0.00    -0.268 N 
ATOM      6  C   UNL     1      35.322 -20.077 -20.737  0.00  0.00    +0.031 C 
ATOM      7  C   UNL     1      36.504 -19.997 -20.030  0.00  0.00    +0.103 C 
ATOM      8  C   UNL     1      35.396 -21.312 -18.670  0.00  0.00    +0.166 C 
ATOM      9  C   UNL     1      35.766 -22.495 -16.460  0.00  0.00    +0.310 C 
ATOM     10  H   UNL     1      34.109 -22.478 -17.677  0.00  0.00    +0.158 HD
ATOM     11  H   UNL     1      34.090 -23.536 -15.949  0.00  0.00    +0.156 HD
ENDROOT
BRANCH   5  12
ATOM     12  C   UNL     1      35.374 -23.916 -14.400  0.00  0.00    +0.052 C 
ATOM     13  C   UNL     1      36.963 -25.157 -13.069  0.00  0.00    +0.073 C 
ATOM     14  C   UNL     1      36.594 -24.582 -14.285  0.00  0.00    +0.019 C 
ATOM     15  C   UNL     1      34.523 -23.826 -13.299  0.00  0.00    +0.015 C 
ATOM     16  C   UNL     1      36.112 -25.067 -11.968  0.00  0.00    +0.004 C 
ATOM     17  C   UNL     1      34.892 -24.401 -12.082  0.00  0.00    +0.001 C 
BRANCH  13  21
ATOM     18  F   UNL     1      39.353 -25.055 -13.094  0.00  0.00    -0.166 F 
ATOM     19  F   UNL     1      38.444 -26.481 -11.736  0.00  0.00    -0.166 F 
ATOM     20  F   UNL     1      38.419 -26.855 -13.879  0.00  0.00    -0.166 F 
ATOM     21  C   UNL     1      38.268 -25.870 -12.946  0.00  0.00    +0.419 C 
ENDBRANCH  13  21
ENDBRANCH   5  12
BRANCH   6  22
ATOM     22  C   UNL     1      34.935 -19.440 -22.049  0.00  0.00    +0.056 C 
BRANCH  22  23
ATOM     23  C   UNL     1      35.953 -18.412 -22.540  0.00  0.00    +0.093 C 
BRANCH  23  25
ATOM     24  S   UNL     1      33.841 -14.799 -24.543  0.00  0.00    -0.101 S 
ATOM     25  N   UNL     1      35.297 -17.267 -23.097  0.00  0.00    -0.320 N 
ATOM     26  N   UNL     1      35.104 -16.175 -20.991  0.00  0.00    -0.233 NA
ATOM     27  N   UNL     1      34.070 -14.001 -20.749  0.00  0.00    -0.247 NA
ATOM     28  C   UNL     1      34.883 -16.169 -22.320  0.00  0.00    +0.118 C 
ATOM     29  C   UNL     1      34.248 -15.077 -22.899  0.00  0.00    +0.145 C 
ATOM     30  C   UNL     1      33.854 -14.011 -22.091  0.00  0.00    +0.073 C 
ATOM     31  C   UNL     1      33.221 -12.977 -22.844  0.00  0.00    +0.022 C 
ATOM     32  C   UNL     1      33.149 -13.278 -24.185  0.00  0.00    +0.033 C 
ATOM     33  C   UNL     1      34.689 -15.101 -20.293  0.00  0.00    +0.251 C 
ATOM     34  H   UNL     1      35.127 -17.248 -24.066  0.00  0.00    +0.148 HD
ENDBRANCH  23  25
ENDBRANCH  22  23
ENDBRANCH   6  22
TORSDOF 5
ENDMDL
MODEL 4
REMARK VINA RESULT:     -11.1      2.175      2.842
REMARK  Name = 24880024
REMARK  5 active torsions:
REMARK  status: ('A' for Active; 'I' for Inactive)
REMARK    1  A    between atoms: N_5  and  C_12
REMARK    2  A    between atoms: C_6  and  C_22
REMARK    3  A    between atoms: C_13  and  C_21
REMARK    4  A    between atoms: C_22  and  C_23
REMARK    5  A    between atoms: C_23  and  N_25
REMARK                            x       y       z     vdW  Elec       q    Type
REMARK                         _______ _______ _______ _____ _____    ______ ____
ROOT
ATOM      1  S   UNL     1      34.281 -21.074 -20.029  0.00  0.00    -0.056 S 
ATOM      2  O   UNL     1      36.885 -22.026 -16.272  0.00  0.00    -0.252 OA
ATOM      3  N   UNL     1      36.551 -20.595 -18.887  0.00  0.00    -0.223 NA
ATOM      4  N   UNL     1      35.049 -22.086 -17.736  0.00  0.00    -0.248 N 
ATOM      5  N   UNL     1      35.008 -23.322 -15.756  0.00  0.00    -0.268 N 
ATOM      6  C   UNL     1      35.371 -20.013 -20.822  0.00  0.00    +0.031 C 
ATOM      7  C   UNL     1      36.519 -19.881 -20.068  0.00  0.00    +0.103 C 
ATOM      8  C   UNL     1      35.424 -21.260 -18.762  0.00  0.00    +0.166 C 
ATOM      9  C   UNL     1      35.764 -22.442 -16.547  0.00  0.00    +0.310 C 
ATOM     10  H   UNL     1      34.157 -22.495 -17.828  0.00  0.00    +0.158 HD
ATOM     11  H   UNL     1      34.122 -23.567 -16.108  0.00  0.00    +0.156 HD
ENDROOT
BRANCH   5  12
ATOM     12  C   UNL     1      35.362 -23.898 -14.513  0.00  0.00    +0.052 C 
ATOM     13  C   UNL     1      36.927 -25.133 -13.149  0.00  0.00    +0.073 C 
ATOM     14  C   UNL     1      36.578 -24.566 -14.374  0.00  0.00    +0.019 C 
ATOM     15  C   UNL     1      34.494 -23.797 -13.425  0.00  0.00    +0.015 C 
ATOM     16  C   UNL     1      36.059 -25.032 -12.062  0.00  0.00    +0.004 C 
ATOM     17  C   UNL     1      34.843 -24.364 -12.200  0.00  0.00    +0.001 C 
BRANCH  13  21
ATOM     18  F   UNL     1      39.317 -25.038 -13.138  0.00  0.00    -0.166 F 
ATOM     19  F   UNL     1      38.384 -26.450 -11.783  0.00  0.00    -0.166 F 
ATOM     20  F   UNL     1      38.390 -26.841 -13.923  0.00  0.00    -0.166 F 
ATOM     21  C   UNL     1      38.228 -25.848 -13.000  0.00  0.00    +0.419 C 
ENDBRANCH  13  21
ENDBRANCH   5  12
BRANCH   6  22
ATOM     22  C   UNL     1      35.004 -19.384 -22.144  0.00  0.00    +0.056 C 
BRANCH  22  23
ATOM     23  C   UNL     1      35.920 -18.223 -22.530  0.00  0.00    +0.093 C 
BRANCH  23  25
ATOM     24  S   UNL     1      34.184 -14.202 -21.000  0.00  0.00    -0.101 S 
ATOM     25  N   UNL     1      35.359 -16.971 -22.121  0.00  0.00    -0.320 N 
ATOM     26  N   UNL     1      34.481 -16.495 -24.281  0.00  0.00    -0.233 NA
ATOM     27  N   UNL     1      33.247 -14.469 -24.760  0.00  0.00    -0.247 NA
ATOM     28  C   UNL     1      34.651 -16.126 -22.996  0.00  0.00    +0.118 C 
ATOM     29  C   UNL     1      34.122 -14.917 -22.559  0.00  0.00    +0.145 C 
ATOM     30  C   UNL     1      33.428 -14.112 -23.461  0.00  0.00    +0.073 C 
ATOM     31  C   UNL     1      32.955 -12.913 -22.849  0.00  0.00    +0.022 C 
ATOM     32  C   UNL     1      33.296 -12.836 -21.518  0.00  0.00    +0.033 C 
ATOM     33  C   UNL     1      33.796 -15.653 -25.077  0.00  0.00    +0.251 C 
ATOM     34  H   UNL     1      35.476 -16.687 -21.186  0.00  0.00    +0.148 HD
ENDBRANCH  23  25
ENDBRANCH  22  23
ENDBRANCH   6  22
TORSDOF 5
ENDMDL
MODEL 5
REMARK VINA RESULT:     -10.7      7.934     13.963
REMARK  Name = 24880024
REMARK  5 active torsions:
REMARK  status: ('A' for Active; 'I' for Inactive)
REMARK    1  A    between atoms: N_5  and  C_12
REMARK    2  A    between atoms: C_6  and  C_22
REMARK    3  A    between atoms: C_13  and  C_21
REMARK    4  A    between atoms: C_22  and  C_23
REMARK    5  A    between atoms: C_23  and  N_25
REMARK                            x       y       z     vdW  Elec       q    Type
REMARK                         _______ _______ _______ _____ _____    ______ ____
ROOT
ATOM      1  S   UNL     1      34.792 -14.672 -22.960  0.00  0.00    -0.056 S 
ATOM      2  O   UNL     1      32.879 -10.752 -24.627  0.00  0.00    -0.252 OA
ATOM      3  N   UNL     1      33.260 -13.722 -24.813  0.00  0.00    -0.223 NA
ATOM      4  N   UNL     1      34.157 -12.143 -23.229  0.00  0.00    -0.248 N 
ATOM      5  N   UNL     1      34.057  -9.847 -22.820  0.00  0.00    -0.268 N 
ATOM      6  C   UNL     1      34.135 -15.771 -24.100  0.00  0.00    +0.031 C 
ATOM      7  C   UNL     1      33.352 -15.086 -25.005  0.00  0.00    +0.103 C 
ATOM      8  C   UNL     1      33.979 -13.391 -23.763  0.00  0.00    +0.166 C 
ATOM      9  C   UNL     1      33.620 -10.886 -23.658  0.00  0.00    +0.310 C 
ATOM     10  H   UNL     1      34.737 -12.103 -22.435  0.00  0.00    +0.158 HD
ATOM     11  H   UNL     1      34.650 -10.109 -22.080  0.00  0.00    +0.156 HD
ENDROOT
BRANCH   5  12
ATOM     12  C   UNL     1      33.749  -8.469 -22.910  0.00  0.00    +0.052 C 
ATOM     13  C   UNL     1      32.435  -6.569 -22.204  0.00  0.00    +0.073 C 
ATOM     14  C   UNL     1      32.738  -7.927 -22.116  0.00  0.00    +0.019 C 
ATOM     15  C   UNL     1      34.457  -7.652 -23.791  0.00  0.00    +0.015 C 
ATOM     16  C   UNL     1      33.143  -5.752 -23.085  0.00  0.00    +0.004 C 
ATOM     17  C   UNL     1      34.154  -6.293 -23.878  0.00  0.00    +0.001 C 
BRANCH  13  21
ATOM     18  F   UNL     1      31.140  -6.674 -20.195  0.00  0.00    -0.166 F 
ATOM     19  F   UNL     1      31.594  -4.700 -20.970  0.00  0.00    -0.166 F 
ATOM     20  F   UNL     1      30.146  -5.960 -21.991  0.00  0.00    -0.166 F 
ATOM     21  C   UNL     1      31.353  -5.988 -21.356  0.00  0.00    +0.419 C 
ENDBRANCH  13  21
ENDBRANCH   5  12
BRANCH   6  22
ATOM     22  C   UNL     1      34.449 -17.245 -24.014  0.00  0.00    +0.056 C 
BRANCH  22  23
ATOM     23  C   UNL     1      35.313 -17.605 -22.806  0.00  0.00    +0.093 C 
BRANCH  23  25
ATOM     24  S   UNL     1      32.988 -20.666 -20.209  0.00  0.00    -0.101 S 
ATOM     25  N   UNL     1      34.654 -18.563 -21.972  0.00  0.00    -0.320 N 
ATOM     26  N   UNL     1      36.644 -19.112 -20.786  0.00  0.00    -0.233 NA
ATOM     27  N   UNL     1      36.681 -20.753 -19.009  0.00  0.00    -0.247 NA
ATOM     28  C   UNL     1      35.323 -19.301 -20.978  0.00  0.00    +0.118 C 
ATOM     29  C   UNL     1      34.646 -20.223 -20.188  0.00  0.00    +0.145 C 
ATOM     30  C   UNL     1      35.349 -20.933 -19.215  0.00  0.00    +0.073 C 
ATOM     31  C   UNL     1      34.506 -21.833 -18.498  0.00  0.00    +0.022 C 
ATOM     32  C   UNL     1      33.202 -21.788 -18.937  0.00  0.00    +0.033 C 
ATOM     33  C   UNL     1      37.236 -19.842 -19.823  0.00  0.00    +0.251 C 
ATOM     34  H   UNL     1      33.690 -18.714 -22.100  0.00  0.00    +0.148 HD
ENDBRANCH  23  25
ENDBRANCH  22  23
ENDBRANCH   6  22
TORSDOF 5
ENDMDL
MODEL 6
REMARK VINA RESULT:     -10.5      2.397      3.116
REMARK  Name = 24880024
REMARK  5 active torsions:
REMARK  status: ('A' for Active; 'I' for Inactive)
REMARK    1  A    between atoms: N_5  and  C_12
REMARK    2  A    between atoms: C_6  and  C_22
REMARK    3  A    between atoms: C_13  and  C_21
REMARK    4  A    between atoms: C_22  and  C_23
REMARK    5  A    between atoms: C_23  and  N_25
REMARK                            x       y       z     vdW  Elec       q    Type
REMARK                         _______ _______ _______ _____ _____    ______ ____
ROOT
ATOM      1  S   UNL     1      33.089 -20.389 -20.625  0.00  0.00    -0.056 S 
ATOM      2  O   UNL     1      34.770 -22.745 -16.961  0.00  0.00    -0.252 OA
ATOM      3  N   UNL     1      35.262 -21.219 -19.496  0.00  0.00    -0.223 NA
ATOM      4  N   UNL     1      33.189 -21.767 -18.397  0.00  0.00    -0.248 N 
ATOM      5  N   UNL     1      32.486 -22.900 -16.481  0.00  0.00    -0.268 N 
ATOM      6  C   UNL     1      34.581 -20.011 -21.381  0.00  0.00    +0.031 C 
ATOM      7  C   UNL     1      35.620 -20.534 -20.640  0.00  0.00    +0.103 C 
ATOM      8  C   UNL     1      33.952 -21.206 -19.387  0.00  0.00    +0.166 C 
ATOM      9  C   UNL     1      33.600 -22.503 -17.239  0.00  0.00    +0.310 C 
ATOM     10  H   UNL     1      32.216 -21.647 -18.496  0.00  0.00    +0.158 HD
ATOM     11  H   UNL     1      31.607 -22.630 -16.831  0.00  0.00    +0.156 HD
ENDROOT
BRANCH   5  12
ATOM     12  C   UNL     1      32.473 -23.638 -15.274  0.00  0.00    +0.052 C 
ATOM     13  C   UNL     1      33.609 -24.439 -13.298  0.00  0.00    +0.073 C 
ATOM     14  C   UNL     1      33.623 -23.712 -14.488  0.00  0.00    +0.019 C 
ATOM     15  C   UNL     1      31.309 -24.292 -14.870  0.00  0.00    +0.015 C 
ATOM     16  C   UNL     1      32.446 -25.093 -12.894  0.00  0.00    +0.004 C 
ATOM     17  C   UNL     1      31.295 -25.019 -13.679  0.00  0.00    +0.001 C 
BRANCH  13  21
ATOM     18  F   UNL     1      35.846 -25.243 -13.027  0.00  0.00    -0.166 F 
ATOM     19  F   UNL     1      35.390 -23.300 -12.179  0.00  0.00    -0.166 F 
ATOM     20  F   UNL     1      34.609 -25.102 -11.245  0.00  0.00    -0.166 F 
ATOM     21  C   UNL     1      34.839 -24.519 -12.457  0.00  0.00    +0.419 C 
ENDBRANCH  13  21
ENDBRANCH   5  12
BRANCH   6  22
ATOM     22  C   UNL     1      34.612 -19.217 -22.664  0.00  0.00    +0.056 C 
BRANCH  22  23
ATOM     23  C   UNL     1      35.678 -18.123 -22.667  0.00  0.00    +0.093 C 
BRANCH  23  25
ATOM     24  S   UNL     1      33.958 -14.197 -24.443  0.00  0.00    -0.101 S 
ATOM     25  N   UNL     1      35.142 -16.887 -23.152  0.00  0.00    -0.320 N 
ATOM     26  N   UNL     1      34.913 -15.965 -20.969  0.00  0.00    -0.233 NA
ATOM     27  N   UNL     1      34.033 -13.744 -20.587  0.00  0.00    -0.247 NA
ATOM     28  C   UNL     1      34.768 -15.829 -22.302  0.00  0.00    +0.118 C 
ATOM     29  C   UNL     1      34.251 -14.644 -22.812  0.00  0.00    +0.145 C 
ATOM     30  C   UNL     1      33.893 -13.623 -21.933  0.00  0.00    +0.073 C 
ATOM     31  C   UNL     1      33.381 -12.482 -22.622  0.00  0.00    +0.022 C 
ATOM     32  C   UNL     1      33.363 -12.662 -23.986  0.00  0.00    +0.033 C 
ATOM     33  C   UNL     1      34.541 -14.925 -20.200  0.00  0.00    +0.251 C 
ATOM     34  H   UNL     1      35.029 -16.772 -24.122  0.00  0.00    +0.148 HD
ENDBRANCH  23  25
ENDBRANCH  22  23
ENDBRANCH   6  22
TORSDOF 5
ENDMDL
MODEL 7
REMARK VINA RESULT:     -10.4      5.582      8.939
REMARK  Name = 24880024
REMARK  5 active torsions:
REMARK  status: ('A' for Active; 'I' for Inactive)
REMARK    1  A    between atoms: N_5  and  C_12
REMARK    2  A    between atoms: C_6  and  C_22
REMARK    3  A    between atoms: C_13  and  C_21
REMARK    4  A    between atoms: C_22  and  C_23
REMARK    5  A    between atoms: C_23  and  N_25
REMARK                            x       y       z     vdW  Elec       q    Type
REMARK                         _______ _______ _______ _____ _____    ______ ____
ROOT
ATOM      1  S   UNL     1      34.011 -13.464 -23.954  0.00  0.00    -0.056 S 
ATOM      2  O   UNL     1      34.640 -16.096 -20.149  0.00  0.00    -0.252 OA
ATOM      3  N   UNL     1      33.822 -13.484 -21.376  0.00  0.00    -0.223 NA
ATOM      4  N   UNL     1      34.610 -15.506 -22.423  0.00  0.00    -0.248 N 
ATOM      5  N   UNL     1      35.305 -17.639 -21.776  0.00  0.00    -0.268 N 
ATOM      6  C   UNL     1      33.449 -12.041 -23.180  0.00  0.00    +0.031 C 
ATOM      7  C   UNL     1      33.417 -12.239 -21.815  0.00  0.00    +0.103 C 
ATOM      8  C   UNL     1      34.158 -14.213 -22.417  0.00  0.00    +0.166 C 
ATOM      9  C   UNL     1      34.835 -16.395 -21.322  0.00  0.00    +0.310 C 
ATOM     10  H   UNL     1      34.809 -15.879 -23.312  0.00  0.00    +0.158 HD
ATOM     11  H   UNL     1      35.412 -17.731 -22.751  0.00  0.00    +0.156 HD
ENDROOT
BRANCH   5  12
ATOM     12  C   UNL     1      35.641 -18.776 -21.005  0.00  0.00    +0.052 C 
ATOM     13  C   UNL     1      34.976 -20.782 -19.834  0.00  0.00    +0.073 C 
ATOM     14  C   UNL     1      34.644 -19.661 -20.594  0.00  0.00    +0.019 C 
ATOM     15  C   UNL     1      36.970 -19.014 -20.657  0.00  0.00    +0.015 C 
ATOM     16  C   UNL     1      36.305 -21.020 -19.486  0.00  0.00    +0.004 C 
ATOM     17  C   UNL     1      37.303 -20.136 -19.898  0.00  0.00    +0.001 C 
BRANCH  13  21
ATOM     18  F   UNL     1      34.266 -23.041 -19.497  0.00  0.00    -0.166 F 
ATOM     19  F   UNL     1      33.537 -21.562 -18.089  0.00  0.00    -0.166 F 
ATOM     20  F   UNL     1      32.762 -21.601 -20.121  0.00  0.00    -0.166 F 
ATOM     21  C   UNL     1      33.910 -21.728 -19.394  0.00  0.00    +0.419 C 
ENDBRANCH  13  21
ENDBRANCH   5  12
BRANCH   6  22
ATOM     22  C   UNL     1      33.079 -10.822 -23.989  0.00  0.00    +0.056 C 
BRANCH  22  23
ATOM     23  C   UNL     1      33.906  -9.589 -23.628  0.00  0.00    +0.093 C 
BRANCH  23  25
ATOM     24  S   UNL     1      31.386  -5.761 -24.348  0.00  0.00    -0.101 S 
ATOM     25  N   UNL     1      33.137  -8.392 -23.784  0.00  0.00    -0.320 N 
ATOM     26  N   UNL     1      33.354  -7.783 -21.493  0.00  0.00    -0.233 NA
ATOM     27  N   UNL     1      32.359  -5.772 -20.588  0.00  0.00    -0.247 NA
ATOM     28  C   UNL     1      32.871  -7.509 -22.721  0.00  0.00    +0.118 C 
ATOM     29  C   UNL     1      32.118  -6.356 -22.914  0.00  0.00    +0.145 C 
ATOM     30  C   UNL     1      31.879  -5.510 -21.832  0.00  0.00    +0.073 C 
ATOM     31  C   UNL     1      31.093  -4.378 -22.205  0.00  0.00    +0.022 C 
ATOM     32  C   UNL     1      30.758  -4.392 -23.539  0.00  0.00    +0.033 C 
ATOM     33  C   UNL     1      33.072  -6.907 -20.511  0.00  0.00    +0.251 C 
ATOM     34  H   UNL     1      32.776  -8.178 -24.674  0.00  0.00    +0.148 HD
ENDBRANCH  23  25
ENDBRANCH  22  23
ENDBRANCH   6  22
TORSDOF 5
ENDMDL
MODEL 8
REMARK VINA RESULT:     -10.4      8.705     14.424
REMARK  Name = 24880024
REMARK  5 active torsions:
REMARK  status: ('A' for Active; 'I' for Inactive)
REMARK    1  A    between atoms: N_5  and  C_12
REMARK    2  A    between atoms: C_6  and  C_22
REMARK    3  A    between atoms: C_13  and  C_21
REMARK    4  A    between atoms: C_22  and  C_23
REMARK    5  A    between atoms: C_23  and  N_25
REMARK                            x       y       z     vdW  Elec       q    Type
REMARK                         _______ _______ _______ _____ _____    ______ ____
ROOT
ATOM      1  S   UNL     1      34.515 -14.567 -22.713  0.00  0.00    -0.056 S 
ATOM      2  O   UNL     1      32.592 -10.692 -24.469  0.00  0.00    -0.252 OA
ATOM      3  N   UNL     1      33.296 -13.592 -24.773  0.00  0.00    -0.223 NA
ATOM      4  N   UNL     1      33.698 -12.087 -22.936  0.00  0.00    -0.248 N 
ATOM      5  N   UNL     1      33.292  -9.851 -22.402  0.00  0.00    -0.268 N 
ATOM      6  C   UNL     1      34.211 -15.615 -24.036  0.00  0.00    +0.031 C 
ATOM      7  C   UNL     1      33.558 -14.922 -25.034  0.00  0.00    +0.103 C 
ATOM      8  C   UNL     1      33.756 -13.295 -23.578  0.00  0.00    +0.166 C 
ATOM      9  C   UNL     1      33.135 -10.846 -23.380  0.00  0.00    +0.310 C 
ATOM     10  H   UNL     1      34.103 -12.067 -22.038  0.00  0.00    +0.158 HD
ATOM     11  H   UNL     1      33.749 -10.125 -21.575  0.00  0.00    +0.156 HD
ENDROOT
BRANCH   5  12
ATOM     12  C   UNL     1      32.872  -8.501 -22.460  0.00  0.00    +0.052 C 
ATOM     13  C   UNL     1      32.970  -6.321 -23.496  0.00  0.00    +0.073 C 
ATOM     14  C   UNL     1      33.384  -7.651 -23.440  0.00  0.00    +0.019 C 
ATOM     15  C   UNL     1      31.944  -8.019 -21.536  0.00  0.00    +0.015 C 
ATOM     16  C   UNL     1      32.042  -5.840 -22.573  0.00  0.00    +0.004 C 
ATOM     17  C   UNL     1      31.529  -6.689 -21.592  0.00  0.00    +0.001 C 
BRANCH  13  21
ATOM     18  F   UNL     1      33.113  -5.727 -25.809  0.00  0.00    -0.166 F 
ATOM     19  F   UNL     1      33.162  -4.103 -24.373  0.00  0.00    -0.166 F 
ATOM     20  F   UNL     1      34.882  -5.418 -24.584  0.00  0.00    -0.166 F 
ATOM     21  C   UNL     1      33.518  -5.412 -24.544  0.00  0.00    +0.419 C 
ENDBRANCH  13  21
ENDBRANCH   5  12
BRANCH   6  22
ATOM     22  C   UNL     1      34.646 -17.060 -23.986  0.00  0.00    +0.056 C 
BRANCH  22  23
ATOM     23  C   UNL     1      35.431 -17.407 -22.722  0.00  0.00    +0.093 C 
BRANCH  23  25
ATOM     24  S   UNL     1      32.991 -20.512 -20.288  0.00  0.00    -0.101 S 
ATOM     25  N   UNL     1      34.736 -18.382 -21.938  0.00  0.00    -0.320 N 
ATOM     26  N   UNL     1      36.699 -19.054 -20.772  0.00  0.00    -0.233 NA
ATOM     27  N   UNL     1      36.672 -20.781 -19.077  0.00  0.00    -0.247 NA
ATOM     28  C   UNL     1      35.375 -19.190 -20.979  0.00  0.00    +0.118 C 
ATOM     29  C   UNL     1      34.663 -20.126 -20.238  0.00  0.00    +0.145 C 
ATOM     30  C   UNL     1      35.336 -20.905 -19.298  0.00  0.00    +0.073 C 
ATOM     31  C   UNL     1      34.459 -21.811 -18.630  0.00  0.00    +0.022 C 
ATOM     32  C   UNL     1      33.161 -21.701 -19.072  0.00  0.00    +0.033 C 
ATOM     33  C   UNL     1      37.262 -19.849 -19.843  0.00  0.00    +0.251 C 
ATOM     34  H   UNL     1      33.769 -18.494 -22.078  0.00  0.00    +0.148 HD
ENDBRANCH  23  25
ENDBRANCH  22  23
ENDBRANCH   6  22
TORSDOF 5
ENDMDL
MODEL 9
REMARK VINA RESULT:     -10.4      2.716      3.595
REMARK  Name = 24880024
REMARK  5 active torsions:
REMARK  status: ('A' for Active; 'I' for Inactive)
REMARK    1  A    between atoms: N_5  and  C_12
REMARK    2  A    between atoms: C_6  and  C_22
REMARK    3  A    between atoms: C_13  and  C_21
REMARK    4  A    between atoms: C_22  and  C_23
REMARK    5  A    between atoms: C_23  and  N_25
REMARK                            x       y       z     vdW  Elec       q    Type
REMARK                         _______ _______ _______ _____ _____    ______ ____
ROOT
ATOM      1  S   UNL     1      33.109 -20.195 -20.703  0.00  0.00    -0.056 S 
ATOM      2  O   UNL     1      34.719 -22.720 -17.120  0.00  0.00    -0.252 OA
ATOM      3  N   UNL     1      35.255 -21.134 -19.609  0.00  0.00    -0.223 NA
ATOM      4  N   UNL     1      33.168 -21.644 -18.519  0.00  0.00    -0.248 N 
ATOM      5  N   UNL     1      32.433 -22.810 -16.636  0.00  0.00    -0.268 N 
ATOM      6  C   UNL     1      34.611 -19.845 -21.453  0.00  0.00    +0.031 C 
ATOM      7  C   UNL     1      35.634 -20.427 -20.733  0.00  0.00    +0.103 C 
ATOM      8  C   UNL     1      33.947 -21.080 -19.494  0.00  0.00    +0.166 C 
ATOM      9  C   UNL     1      33.557 -22.429 -17.386  0.00  0.00    +0.310 C 
ATOM     10  H   UNL     1      32.200 -21.488 -18.610  0.00  0.00    +0.158 HD
ATOM     11  H   UNL     1      31.562 -22.500 -16.974  0.00  0.00    +0.156 HD
ENDROOT
BRANCH   5  12
ATOM     12  C   UNL     1      32.398 -23.585 -15.452  0.00  0.00    +0.052 C 
ATOM     13  C   UNL     1      33.492 -24.429 -13.471  0.00  0.00    +0.073 C 
ATOM     14  C   UNL     1      33.527 -23.666 -14.638  0.00  0.00    +0.019 C 
ATOM     15  C   UNL     1      31.233 -24.266 -15.099  0.00  0.00    +0.015 C 
ATOM     16  C   UNL     1      32.327 -25.110 -13.118  0.00  0.00    +0.004 C 
ATOM     17  C   UNL     1      31.197 -25.029 -13.931  0.00  0.00    +0.001 C 
BRANCH  13  21
ATOM     18  F   UNL     1      35.709 -25.264 -13.136  0.00  0.00    -0.166 F 
ATOM     19  F   UNL     1      35.263 -23.304 -12.322  0.00  0.00    -0.166 F 
ATOM     20  F   UNL     1      34.431 -25.082 -11.386  0.00  0.00    -0.166 F 
ATOM     21  C   UNL     1      34.700 -24.517 -12.599  0.00  0.00    +0.419 C 
ENDBRANCH  13  21
ENDBRANCH   5  12
BRANCH   6  22
ATOM     22  C   UNL     1      34.665 -19.014 -22.712  0.00  0.00    +0.056 C 
BRANCH  22  23
ATOM     23  C   UNL     1      35.711 -17.902 -22.652  0.00  0.00    +0.093 C 
BRANCH  23  25
ATOM     24  S   UNL     1      33.876 -13.945 -21.070  0.00  0.00    -0.101 S 
ATOM     25  N   UNL     1      35.122 -16.668 -22.227  0.00  0.00    -0.320 N 
ATOM     26  N   UNL     1      34.316 -16.138 -24.403  0.00  0.00    -0.233 NA
ATOM     27  N   UNL     1      33.078 -14.112 -24.868  0.00  0.00    -0.247 NA
ATOM     28  C   UNL     1      34.436 -15.805 -23.103  0.00  0.00    +0.118 C 
ATOM     29  C   UNL     1      33.879 -14.615 -22.650  0.00  0.00    +0.145 C 
ATOM     30  C   UNL     1      33.208 -13.791 -23.553  0.00  0.00    +0.073 C 
ATOM     31  C   UNL     1      32.699 -12.615 -22.924  0.00  0.00    +0.022 C 
ATOM     32  C   UNL     1      32.992 -12.574 -21.581  0.00  0.00    +0.033 C 
ATOM     33  C   UNL     1      33.651 -15.280 -25.199  0.00  0.00    +0.251 C 
ATOM     34  H   UNL     1      35.202 -16.410 -21.281  0.00  0.00    +0.148 HD
ENDBRANCH  23  25
ENDBRANCH  22  23
ENDBRANCH   6  22
TORSDOF 5
ENDMDL
