MODEL 1
REMARK VINA RESULT:     -11.8      0.000      0.000
REMARK  Name = 25058128
REMARK  13 active torsions:
REMARK  status: ('A' for Active; 'I' for Inactive)
REMARK    1  A    between atoms: C_1  and  S_11
REMARK    2  A    between atoms: C_9  and  O_27
REMARK    3  A    between atoms: S_11  and  N_14
REMARK    4  A    between atoms: N_14  and  C_16
REMARK    5  A    between atoms: C_16  and  C_18
REMARK    6  A    between atoms: C_16  and  C_21
REMARK    7  A    between atoms: C_18  and  O_19
REMARK    8  A    between atoms: C_21  and  C_22
REMARK    9  A    between atoms: C_22  and  C_24
REMARK   10  A    between atoms: C_24  and  O_25
REMARK   11  A    between atoms: O_27  and  C_28
REMARK   12  A    between atoms: C_28  and  C_30
REMARK   13  A    between atoms: C_35  and  C_37
REMARK                            x       y       z     vdW  Elec       q    Type
REMARK                         _______ _______ _______ _____ _____    ______ ____
ROOT
ATOM      1  C   UNL     1      35.553 -23.050 -16.092  0.00  0.00    +0.122 C 
ATOM      2  C   UNL     1      34.449 -22.041 -18.010  0.00  0.00    +0.002 C 
ATOM      3  C   UNL     1      34.410 -22.854 -16.866  0.00  0.00    +0.020 C 
ATOM      4  C   UNL     1      35.668 -21.417 -18.373  0.00  0.00    +0.003 C 
ATOM      5  C   UNL     1      36.750 -22.437 -16.448  0.00  0.00    +0.020 C 
ATOM      6  C   UNL     1      36.808 -21.625 -17.581  0.00  0.00    +0.001 C 
ATOM      7  C   UNL     1      35.708 -20.603 -19.516  0.00  0.00    +0.037 C 
ATOM      8  C   UNL     1      33.309 -21.832 -18.802  0.00  0.00    +0.003 C 
ATOM      9  C   UNL     1      34.564 -20.407 -20.292  0.00  0.00    +0.139 C 
ATOM     10  C   UNL     1      33.367 -21.020 -19.935  0.00  0.00    +0.037 C 
ENDROOT
BRANCH   1  11
ATOM     11  S   UNL     1      35.481 -24.079 -14.655  0.00  0.00    +0.061 S 
ATOM     12  O   UNL     1      34.415 -23.586 -13.805  0.00  0.00    -0.153 OA
ATOM     13  O   UNL     1      35.469 -25.453 -15.120  0.00  0.00    -0.153 OA
BRANCH  11  14
ATOM     14  N   UNL     1      36.980 -23.760 -13.922  0.00  0.00    -0.170 NA
ATOM     15  H   UNL     1      36.842 -22.961 -13.302  0.00  0.00    +0.149 HD
BRANCH  14  16
ATOM     16  C   UNL     1      37.651 -24.809 -13.123  0.00  0.00    +0.174 C 
BRANCH  16  18
ATOM     17  O   UNL     1      40.046 -24.970 -13.513  0.00  0.00    -0.249 OA
ATOM     18  C   UNL     1      38.900 -25.230 -13.859  0.00  0.00    +0.330 C 
BRANCH  18  19
ATOM     19  O   UNL     1      38.620 -25.965 -14.966  0.00  0.00    -0.479 OA
ATOM     20  H   UNL     1      37.954 -26.623 -14.936  0.00  0.00    +0.295 HD
ENDBRANCH  18  19
ENDBRANCH  16  18
BRANCH  16  21
ATOM     21  C   UNL     1      37.888 -24.323 -11.689  0.00  0.00    +0.040 C 
BRANCH  21  22
ATOM     22  C   UNL     1      36.732 -23.569 -11.025  0.00  0.00    +0.111 C 
BRANCH  22  24
ATOM     23  O   UNL     1      35.601 -24.661  -9.190  0.00  0.00    -0.250 OA
ATOM     24  C   UNL     1      35.698 -24.469 -10.396  0.00  0.00    +0.314 C 
BRANCH  24  25
ATOM     25  O   UNL     1      34.890 -25.062 -11.310  0.00  0.00    -0.480 OA
ATOM     26  H   UNL     1      34.710 -25.980 -11.249  0.00  0.00    +0.295 HD
ENDBRANCH  24  25
ENDBRANCH  22  24
ENDBRANCH  21  22
ENDBRANCH  16  21
ENDBRANCH  14  16
ENDBRANCH  11  14
ENDBRANCH   1  11
BRANCH   9  27
ATOM     27  O   UNL     1      34.619 -19.614 -21.396  0.00  0.00    -0.471 OA
BRANCH  27  28
ATOM     28  C   UNL     1      35.750 -18.753 -21.523  0.00  0.00    +0.234 C 
BRANCH  28  30
ATOM     29  F   UNL     1      35.080 -18.114 -24.198  0.00  0.00    -0.204 F 
ATOM     30  C   UNL     1      35.285 -17.392 -21.946  0.00  0.00    +0.049 C 
ATOM     31  C   UNL     1      34.971 -17.142 -23.282  0.00  0.00    +0.140 C 
ATOM     32  C   UNL     1      35.166 -16.373 -21.000  0.00  0.00    +0.002 C 
ATOM     33  C   UNL     1      34.539 -15.873 -23.671  0.00  0.00    +0.040 C 
ATOM     34  C   UNL     1      34.735 -15.105 -21.390  0.00  0.00    +0.010 C 
ATOM     35  C   UNL     1      34.421 -14.855 -22.726  0.00  0.00    +0.071 C 
BRANCH  35  37
ATOM     36  N   UNL     1      33.617 -12.502 -23.448  0.00  0.00    -0.191 NA
ATOM     37  C   UNL     1      33.977 -13.557 -23.125  0.00  0.00    +0.100 C 
ENDBRANCH  35  37
ENDBRANCH  28  30
ENDBRANCH  27  28
ENDBRANCH   9  27
TORSDOF 13
ENDMDL
MODEL 2
REMARK VINA RESULT:     -11.6      3.173      5.038
REMARK  Name = 25058128
REMARK  13 active torsions:
REMARK  status: ('A' for Active; 'I' for Inactive)
REMARK    1  A    between atoms: C_1  and  S_11
REMARK    2  A    between atoms: C_9  and  O_27
REMARK    3  A    between atoms: S_11  and  N_14
REMARK    4  A    between atoms: N_14  and  C_16
REMARK    5  A    between atoms: C_16  and  C_18
REMARK    6  A    between atoms: C_16  and  C_21
REMARK    7  A    between atoms: C_18  and  O_19
REMARK    8  A    between atoms: C_21  and  C_22
REMARK    9  A    between atoms: C_22  and  C_24
REMARK   10  A    between atoms: C_24  and  O_25
REMARK   11  A    between atoms: O_27  and  C_28
REMARK   12  A    between atoms: C_28  and  C_30
REMARK   13  A    between atoms: C_35  and  C_37
REMARK                            x       y       z     vdW  Elec       q    Type
REMARK                         _______ _______ _______ _____ _____    ______ ____
ROOT
ATOM      1  C   UNL     1      34.174 -21.977 -18.511  0.00  0.00    +0.122 C 
ATOM      2  C   UNL     1      35.578 -20.448 -19.778  0.00  0.00    +0.002 C 
ATOM      3  C   UNL     1      35.434 -21.471 -18.826  0.00  0.00    +0.020 C 
ATOM      4  C   UNL     1      34.426 -19.933 -20.420  0.00  0.00    +0.003 C 
ATOM      5  C   UNL     1      33.041 -21.472 -19.142  0.00  0.00    +0.020 C 
ATOM      6  C   UNL     1      33.165 -20.456 -20.091  0.00  0.00    +0.001 C 
ATOM      7  C   UNL     1      34.569 -18.911 -21.372  0.00  0.00    +0.037 C 
ATOM      8  C   UNL     1      36.839 -19.925 -20.108  0.00  0.00    +0.003 C 
ATOM      9  C   UNL     1      35.831 -18.403 -21.687  0.00  0.00    +0.139 C 
ATOM     10  C   UNL     1      36.963 -18.909 -21.056  0.00  0.00    +0.037 C 
ENDROOT
BRANCH   1  11
ATOM     11  S   UNL     1      34.015 -23.265 -17.309  0.00  0.00    +0.061 S 
ATOM     12  O   UNL     1      33.612 -24.474 -18.000  0.00  0.00    -0.153 OA
ATOM     13  O   UNL     1      35.225 -23.248 -16.511  0.00  0.00    -0.153 OA
BRANCH  11  14
ATOM     14  N   UNL     1      32.723 -22.699 -16.361  0.00  0.00    -0.170 NA
ATOM     15  H   UNL     1      32.059 -22.259 -16.998  0.00  0.00    +0.149 HD
BRANCH  14  16
ATOM     16  C   UNL     1      31.950 -23.644 -15.525  0.00  0.00    +0.174 C 
BRANCH  16  18
ATOM     17  O   UNL     1      32.688 -24.950 -13.611  0.00  0.00    -0.249 OA
ATOM     18  C   UNL     1      32.747 -23.921 -14.273  0.00  0.00    +0.330 C 
BRANCH  18  19
ATOM     19  O   UNL     1      33.576 -22.893 -13.955  0.00  0.00    -0.479 OA
ATOM     20  H   UNL     1      34.495 -23.045 -13.858  0.00  0.00    +0.295 HD
ENDBRANCH  18  19
ENDBRANCH  16  18
BRANCH  16  21
ATOM     21  C   UNL     1      30.536 -23.107 -15.276  0.00  0.00    +0.040 C 
BRANCH  21  22
ATOM     22  C   UNL     1      29.378 -24.036 -15.650  0.00  0.00    +0.111 C 
BRANCH  22  24
ATOM     23  O   UNL     1      27.574 -24.004 -17.256  0.00  0.00    -0.250 OA
ATOM     24  C   UNL     1      28.327 -23.386 -16.514  0.00  0.00    +0.314 C 
BRANCH  24  25
ATOM     25  O   UNL     1      28.312 -22.035 -16.398  0.00  0.00    -0.480 OA
ATOM     26  H   UNL     1      27.968 -21.509 -17.094  0.00  0.00    +0.295 HD
ENDBRANCH  24  25
ENDBRANCH  22  24
ENDBRANCH  21  22
ENDBRANCH  16  21
ENDBRANCH  14  16
ENDBRANCH  11  14
ENDBRANCH   1  11
BRANCH   9  27
ATOM     27  O   UNL     1      35.953 -17.414 -22.613  0.00  0.00    -0.471 OA
BRANCH  27  28
ATOM     28  C   UNL     1      34.871 -17.240 -23.526  0.00  0.00    +0.234 C 
BRANCH  28  30
ATOM     29  F   UNL     1      33.356 -16.065 -25.609  0.00  0.00    -0.204 F 
ATOM     30  C   UNL     1      34.451 -15.800 -23.520  0.00  0.00    +0.049 C 
ATOM     31  C   UNL     1      33.705 -15.283 -24.579  0.00  0.00    +0.140 C 
ATOM     32  C   UNL     1      34.808 -14.978 -22.451  0.00  0.00    +0.002 C 
ATOM     33  C   UNL     1      33.317 -13.943 -24.569  0.00  0.00    +0.040 C 
ATOM     34  C   UNL     1      34.420 -13.637 -22.442  0.00  0.00    +0.010 C 
ATOM     35  C   UNL     1      33.674 -13.120 -23.501  0.00  0.00    +0.071 C 
BRANCH  35  37
ATOM     36  N   UNL     1      32.951 -10.634 -23.482  0.00  0.00    -0.191 NA
ATOM     37  C   UNL     1      33.274 -11.748 -23.491  0.00  0.00    +0.100 C 
ENDBRANCH  35  37
ENDBRANCH  28  30
ENDBRANCH  27  28
ENDBRANCH   9  27
TORSDOF 13
ENDMDL
MODEL 3
REMARK VINA RESULT:     -11.6      1.498      3.050
REMARK  Name = 25058128
REMARK  13 active torsions:
REMARK  status: ('A' for Active; 'I' for Inactive)
REMARK    1  A    between atoms: C_1  and  S_11
REMARK    2  A    between atoms: C_9  and  O_27
REMARK    3  A    between atoms: S_11  and  N_14
REMARK    4  A    between atoms: N_14  and  C_16
REMARK    5  A    between atoms: C_16  and  C_18
REMARK    6  A    between atoms: C_16  and  C_21
REMARK    7  A    between atoms: C_18  and  O_19
REMARK    8  A    between atoms: C_21  and  C_22
REMARK    9  A    between atoms: C_22  and  C_24
REMARK   10  A    between atoms: C_24  and  O_25
REMARK   11  A    between atoms: O_27  and  C_28
REMARK   12  A    between atoms: C_28  and  C_30
REMARK   13  A    between atoms: C_35  and  C_37
REMARK                            x       y       z     vdW  Elec       q    Type
REMARK                         _______ _______ _______ _____ _____    ______ ____
ROOT
ATOM      1  C   UNL     1      35.845 -23.179 -15.222  0.00  0.00    +0.122 C 
ATOM      2  C   UNL     1      34.811 -22.435 -17.293  0.00  0.00    +0.002 C 
ATOM      3  C   UNL     1      34.745 -23.133 -16.076  0.00  0.00    +0.020 C 
ATOM      4  C   UNL     1      36.011 -21.773 -17.647  0.00  0.00    +0.003 C 
ATOM      5  C   UNL     1      37.025 -22.528 -15.569  0.00  0.00    +0.020 C 
ATOM      6  C   UNL     1      37.109 -21.829 -16.773  0.00  0.00    +0.001 C 
ATOM      7  C   UNL     1      36.078 -21.074 -18.863  0.00  0.00    +0.037 C 
ATOM      8  C   UNL     1      33.713 -22.379 -18.167  0.00  0.00    +0.003 C 
ATOM      9  C   UNL     1      34.977 -21.029 -19.719  0.00  0.00    +0.139 C 
ATOM     10  C   UNL     1      33.797 -21.680 -19.372  0.00  0.00    +0.037 C 
ENDROOT
BRANCH   1  11
ATOM     11  S   UNL     1      35.741 -24.063 -13.694  0.00  0.00    +0.061 S 
ATOM     12  O   UNL     1      34.543 -23.627 -13.005  0.00  0.00    -0.153 OA
ATOM     13  O   UNL     1      35.934 -25.467 -14.005  0.00  0.00    -0.153 OA
BRANCH  11  14
ATOM     14  N   UNL     1      37.110 -23.491 -12.865  0.00  0.00    -0.170 NA
ATOM     15  H   UNL     1      36.798 -22.713 -12.282  0.00  0.00    +0.149 HD
BRANCH  14  16
ATOM     16  C   UNL     1      37.877 -24.402 -11.987  0.00  0.00    +0.174 C 
BRANCH  16  18
ATOM     17  O   UNL     1      36.431 -24.282 -10.035  0.00  0.00    -0.249 OA
ATOM     18  C   UNL     1      36.937 -24.940 -10.936  0.00  0.00    +0.330 C 
BRANCH  18  19
ATOM     19  O   UNL     1      36.683 -26.264 -11.105  0.00  0.00    -0.479 OA
ATOM     20  H   UNL     1      35.838 -26.610 -10.898  0.00  0.00    +0.295 HD
ENDBRANCH  18  19
ENDBRANCH  16  18
BRANCH  16  21
ATOM     21  C   UNL     1      38.587 -25.476 -12.819  0.00  0.00    +0.040 C 
BRANCH  21  22
ATOM     22  C   UNL     1      39.547 -24.976 -13.901  0.00  0.00    +0.111 C 
BRANCH  22  24
ATOM     23  O   UNL     1      41.164 -26.758 -13.686  0.00  0.00    -0.250 OA
ATOM     24  C   UNL     1      40.496 -26.031 -14.411  0.00  0.00    +0.314 C 
BRANCH  24  25
ATOM     25  O   UNL     1      40.547 -26.083 -15.766  0.00  0.00    -0.480 OA
ATOM     26  H   UNL     1      41.340 -26.340 -16.194  0.00  0.00    +0.295 HD
ENDBRANCH  24  25
ENDBRANCH  22  24
ENDBRANCH  21  22
ENDBRANCH  16  21
ENDBRANCH  14  16
ENDBRANCH  11  14
ENDBRANCH   1  11
BRANCH   9  27
ATOM     27  O   UNL     1      35.056 -20.346 -20.894  0.00  0.00    -0.471 OA
BRANCH  27  28
ATOM     28  C   UNL     1      35.822 -19.143 -20.896  0.00  0.00    +0.234 C 
BRANCH  28  30
ATOM     29  F   UNL     1      35.500 -16.352 -20.551  0.00  0.00    -0.204 F 
ATOM     30  C   UNL     1      35.312 -18.239 -21.979  0.00  0.00    +0.049 C 
ATOM     31  C   UNL     1      35.176 -16.871 -21.743  0.00  0.00    +0.140 C 
ATOM     32  C   UNL     1      34.973 -18.769 -23.224  0.00  0.00    +0.002 C 
ATOM     33  C   UNL     1      34.700 -16.033 -22.753  0.00  0.00    +0.040 C 
ATOM     34  C   UNL     1      34.497 -17.931 -24.233  0.00  0.00    +0.010 C 
ATOM     35  C   UNL     1      34.360 -16.563 -23.997  0.00  0.00    +0.071 C 
BRANCH  35  37
ATOM     36  N   UNL     1      33.482 -15.008 -25.872  0.00  0.00    -0.191 NA
ATOM     37  C   UNL     1      33.875 -15.705 -25.031  0.00  0.00    +0.100 C 
ENDBRANCH  35  37
ENDBRANCH  28  30
ENDBRANCH  27  28
ENDBRANCH   9  27
TORSDOF 13
ENDMDL
MODEL 4
REMARK VINA RESULT:     -11.5      1.868      2.821
REMARK  Name = 25058128
REMARK  13 active torsions:
REMARK  status: ('A' for Active; 'I' for Inactive)
REMARK    1  A    between atoms: C_1  and  S_11
REMARK    2  A    between atoms: C_9  and  O_27
REMARK    3  A    between atoms: S_11  and  N_14
REMARK    4  A    between atoms: N_14  and  C_16
REMARK    5  A    between atoms: C_16  and  C_18
REMARK    6  A    between atoms: C_16  and  C_21
REMARK    7  A    between atoms: C_18  and  O_19
REMARK    8  A    between atoms: C_21  and  C_22
REMARK    9  A    between atoms: C_22  and  C_24
REMARK   10  A    between atoms: C_24  and  O_25
REMARK   11  A    between atoms: O_27  and  C_28
REMARK   12  A    between atoms: C_28  and  C_30
REMARK   13  A    between atoms: C_35  and  C_37
REMARK                            x       y       z     vdW  Elec       q    Type
REMARK                         _______ _______ _______ _____ _____    ______ ____
ROOT
ATOM      1  C   UNL     1      35.175 -22.573 -16.834  0.00  0.00    +0.122 C 
ATOM      2  C   UNL     1      34.189 -21.487 -18.774  0.00  0.00    +0.002 C 
ATOM      3  C   UNL     1      34.055 -22.231 -17.591  0.00  0.00    +0.020 C 
ATOM      4  C   UNL     1      35.479 -21.083 -19.195  0.00  0.00    +0.003 C 
ATOM      5  C   UNL     1      36.443 -22.176 -17.247  0.00  0.00    +0.020 C 
ATOM      6  C   UNL     1      36.596 -21.435 -18.420  0.00  0.00    +0.001 C 
ATOM      7  C   UNL     1      35.614 -20.338 -20.378  0.00  0.00    +0.037 C 
ATOM      8  C   UNL     1      33.072 -21.134 -19.550  0.00  0.00    +0.003 C 
ATOM      9  C   UNL     1      34.493 -19.997 -21.136  0.00  0.00    +0.139 C 
ATOM     10  C   UNL     1      33.225 -20.394 -20.723  0.00  0.00    +0.037 C 
ENDROOT
BRANCH   1  11
ATOM     11  S   UNL     1      34.984 -23.511 -15.347  0.00  0.00    +0.061 S 
ATOM     12  O   UNL     1      35.069 -22.595 -14.227  0.00  0.00    -0.153 OA
ATOM     13  O   UNL     1      33.809 -24.343 -15.522  0.00  0.00    -0.153 OA
BRANCH  11  14
ATOM     14  N   UNL     1      36.366 -24.498 -15.377  0.00  0.00    -0.170 NA
ATOM     15  H   UNL     1      37.162 -23.886 -15.559  0.00  0.00    +0.149 HD
BRANCH  14  16
ATOM     16  C   UNL     1      36.717 -25.315 -14.194  0.00  0.00    +0.174 C 
BRANCH  16  18
ATOM     17  O   UNL     1      36.806 -27.162 -15.774  0.00  0.00    -0.249 OA
ATOM     18  C   UNL     1      36.745 -26.763 -14.617  0.00  0.00    +0.330 C 
BRANCH  18  19
ATOM     19  O   UNL     1      36.713 -27.609 -13.554  0.00  0.00    -0.479 OA
ATOM     20  H   UNL     1      36.297 -28.444 -13.632  0.00  0.00    +0.295 HD
ENDBRANCH  18  19
ENDBRANCH  16  18
BRANCH  16  21
ATOM     21  C   UNL     1      38.019 -24.810 -13.561  0.00  0.00    +0.040 C 
BRANCH  21  22
ATOM     22  C   UNL     1      39.204 -25.780 -13.573  0.00  0.00    +0.111 C 
BRANCH  22  24
ATOM     23  O   UNL     1      41.209 -24.587 -14.199  0.00  0.00    -0.250 OA
ATOM     24  C   UNL     1      40.318 -25.371 -14.503  0.00  0.00    +0.314 C 
BRANCH  24  25
ATOM     25  O   UNL     1      40.223 -25.950 -15.725  0.00  0.00    -0.480 OA
ATOM     26  H   UNL     1      39.562 -25.668 -16.327  0.00  0.00    +0.295 HD
ENDBRANCH  24  25
ENDBRANCH  22  24
ENDBRANCH  21  22
ENDBRANCH  16  21
ENDBRANCH  14  16
ENDBRANCH  11  14
ENDBRANCH   1  11
BRANCH   9  27
ATOM     27  O   UNL     1      34.640 -19.274 -22.279  0.00  0.00    -0.471 OA
BRANCH  27  28
ATOM     28  C   UNL     1      35.717 -18.338 -22.323  0.00  0.00    +0.234 C 
BRANCH  28  30
ATOM     29  F   UNL     1      35.285 -16.328 -20.377  0.00  0.00    -0.204 F 
ATOM     30  C   UNL     1      35.174 -16.981 -22.657  0.00  0.00    +0.049 C 
ATOM     31  C   UNL     1      34.983 -16.035 -21.650  0.00  0.00    +0.140 C 
ATOM     32  C   UNL     1      34.858 -16.665 -23.979  0.00  0.00    +0.002 C 
ATOM     33  C   UNL     1      34.477 -14.773 -21.965  0.00  0.00    +0.040 C 
ATOM     34  C   UNL     1      34.351 -15.404 -24.293  0.00  0.00    +0.010 C 
ATOM     35  C   UNL     1      34.161 -14.458 -23.286  0.00  0.00    +0.071 C 
BRANCH  35  37
ATOM     36  N   UNL     1      33.226 -12.115 -23.869  0.00  0.00    -0.191 NA
ATOM     37  C   UNL     1      33.644 -13.165 -23.608  0.00  0.00    +0.100 C 
ENDBRANCH  35  37
ENDBRANCH  28  30
ENDBRANCH  27  28
ENDBRANCH   9  27
TORSDOF 13
ENDMDL
MODEL 5
REMARK VINA RESULT:     -11.3      6.728     13.902
REMARK  Name = 25058128
REMARK  13 active torsions:
REMARK  status: ('A' for Active; 'I' for Inactive)
REMARK    1  A    between atoms: C_1  and  S_11
REMARK    2  A    between atoms: C_9  and  O_27
REMARK    3  A    between atoms: S_11  and  N_14
REMARK    4  A    between atoms: N_14  and  C_16
REMARK    5  A    between atoms: C_16  and  C_18
REMARK    6  A    between atoms: C_16  and  C_21
REMARK    7  A    between atoms: C_18  and  O_19
REMARK    8  A    between atoms: C_21  and  C_22
REMARK    9  A    between atoms: C_22  and  C_24
REMARK   10  A    between atoms: C_24  and  O_25
REMARK   11  A    between atoms: O_27  and  C_28
REMARK   12  A    between atoms: C_28  and  C_30
REMARK   13  A    between atoms: C_35  and  C_37
REMARK                            x       y       z     vdW  Elec       q    Type
REMARK                         _______ _______ _______ _____ _____    ______ ____
ROOT
ATOM      1  C   UNL     1      32.554 -11.646 -22.020  0.00  0.00    +0.122 C 
ATOM      2  C   UNL     1      33.854 -13.689 -22.249  0.00  0.00    +0.002 C 
ATOM      3  C   UNL     1      33.344 -12.498 -22.791  0.00  0.00    +0.020 C 
ATOM      4  C   UNL     1      33.558 -14.019 -20.904  0.00  0.00    +0.003 C 
ATOM      5  C   UNL     1      32.264 -11.969 -20.698  0.00  0.00    +0.020 C 
ATOM      6  C   UNL     1      32.762 -13.148 -20.142  0.00  0.00    +0.001 C 
ATOM      7  C   UNL     1      34.068 -15.209 -20.360  0.00  0.00    +0.037 C 
ATOM      8  C   UNL     1      34.650 -14.561 -23.010  0.00  0.00    +0.003 C 
ATOM      9  C   UNL     1      34.858 -16.063 -21.132  0.00  0.00    +0.139 C 
ATOM     10  C   UNL     1      35.148 -15.740 -22.453  0.00  0.00    +0.037 C 
ENDROOT
BRANCH   1  11
ATOM     11  S   UNL     1      31.922 -10.151 -22.723  0.00  0.00    +0.061 S 
ATOM     12  O   UNL     1      32.375 -10.077 -24.098  0.00  0.00    -0.153 OA
ATOM     13  O   UNL     1      30.505 -10.108 -22.418  0.00  0.00    -0.153 OA
BRANCH  11  14
ATOM     14  N   UNL     1      32.720  -8.968 -21.800  0.00  0.00    -0.170 NA
ATOM     15  H   UNL     1      33.144  -8.315 -22.460  0.00  0.00    +0.149 HD
BRANCH  14  16
ATOM     16  C   UNL     1      31.960  -8.155 -20.825  0.00  0.00    +0.174 C 
BRANCH  16  18
ATOM     17  O   UNL     1      32.485  -9.188 -18.687  0.00  0.00    -0.249 OA
ATOM     18  C   UNL     1      32.644  -8.272 -19.485  0.00  0.00    +0.330 C 
BRANCH  18  19
ATOM     19  O   UNL     1      33.494  -7.239 -19.251  0.00  0.00    -0.479 OA
ATOM     20  H   UNL     1      34.007  -6.886 -19.952  0.00  0.00    +0.295 HD
ENDBRANCH  18  19
ENDBRANCH  16  18
BRANCH  16  21
ATOM     21  C   UNL     1      31.798  -6.718 -21.335  0.00  0.00    +0.040 C 
BRANCH  21  22
ATOM     22  C   UNL     1      30.705  -6.486 -22.382  0.00  0.00    +0.111 C 
BRANCH  22  24
ATOM     23  O   UNL     1      30.747  -5.354 -24.516  0.00  0.00    -0.250 OA
ATOM     24  C   UNL     1      31.234  -6.188 -23.762  0.00  0.00    +0.314 C 
BRANCH  24  25
ATOM     25  O   UNL     1      32.303  -6.955 -24.093  0.00  0.00    -0.480 OA
ATOM     26  H   UNL     1      32.183  -7.722 -24.617  0.00  0.00    +0.295 HD
ENDBRANCH  24  25
ENDBRANCH  22  24
ENDBRANCH  21  22
ENDBRANCH  16  21
ENDBRANCH  14  16
ENDBRANCH  11  14
ENDBRANCH   1  11
BRANCH   9  27
ATOM     27  O   UNL     1      35.345 -17.212 -20.590  0.00  0.00    -0.471 OA
BRANCH  27  28
ATOM     28  C   UNL     1      35.355 -18.370 -21.424  0.00  0.00    +0.234 C 
BRANCH  28  30
ATOM     29  F   UNL     1      37.255 -19.998 -20.100  0.00  0.00    -0.204 F 
ATOM     30  C   UNL     1      34.976 -19.567 -20.604  0.00  0.00    +0.049 C 
ATOM     31  C   UNL     1      35.962 -20.329 -19.977  0.00  0.00    +0.140 C 
ATOM     32  C   UNL     1      33.632 -19.919 -20.469  0.00  0.00    +0.002 C 
ATOM     33  C   UNL     1      35.605 -21.443 -19.216  0.00  0.00    +0.040 C 
ATOM     34  C   UNL     1      33.276 -21.033 -19.708  0.00  0.00    +0.010 C 
ATOM     35  C   UNL     1      34.262 -21.795 -19.081  0.00  0.00    +0.071 C 
BRANCH  35  37
ATOM     36  N   UNL     1      33.600 -23.859 -17.666  0.00  0.00    -0.191 NA
ATOM     37  C   UNL     1      33.897 -22.934 -18.300  0.00  0.00    +0.100 C 
ENDBRANCH  35  37
ENDBRANCH  28  30
ENDBRANCH  27  28
ENDBRANCH   9  27
TORSDOF 13
ENDMDL
MODEL 6
REMARK VINA RESULT:     -11.3      1.408      2.214
REMARK  Name = 25058128
REMARK  13 active torsions:
REMARK  status: ('A' for Active; 'I' for Inactive)
REMARK    1  A    between atoms: C_1  and  S_11
REMARK    2  A    between atoms: C_9  and  O_27
REMARK    3  A    between atoms: S_11  and  N_14
REMARK    4  A    between atoms: N_14  and  C_16
REMARK    5  A    between atoms: C_16  and  C_18
REMARK    6  A    between atoms: C_16  and  C_21
REMARK    7  A    between atoms: C_18  and  O_19
REMARK    8  A    between atoms: C_21  and  C_22
REMARK    9  A    between atoms: C_22  and  C_24
REMARK   10  A    between atoms: C_24  and  O_25
REMARK   11  A    between atoms: O_27  and  C_28
REMARK   12  A    between atoms: C_28  and  C_30
REMARK   13  A    between atoms: C_35  and  C_37
REMARK                            x       y       z     vdW  Elec       q    Type
REMARK                         _______ _______ _______ _____ _____    ______ ____
ROOT
ATOM      1  C   UNL     1      34.794 -22.778 -16.363  0.00  0.00    +0.122 C 
ATOM      2  C   UNL     1      35.482 -21.478 -18.300  0.00  0.00    +0.002 C 
ATOM      3  C   UNL     1      35.776 -22.082 -17.066  0.00  0.00    +0.020 C 
ATOM      4  C   UNL     1      34.172 -21.584 -18.827  0.00  0.00    +0.003 C 
ATOM      5  C   UNL     1      33.507 -22.882 -16.880  0.00  0.00    +0.020 C 
ATOM      6  C   UNL     1      33.197 -22.290 -18.105  0.00  0.00    +0.001 C 
ATOM      7  C   UNL     1      33.878 -20.982 -20.061  0.00  0.00    +0.037 C 
ATOM      8  C   UNL     1      36.458 -20.772 -19.023  0.00  0.00    +0.003 C 
ATOM      9  C   UNL     1      34.860 -20.284 -20.765  0.00  0.00    +0.139 C 
ATOM     10  C   UNL     1      36.147 -20.180 -20.247  0.00  0.00    +0.037 C 
ENDROOT
BRANCH   1  11
ATOM     11  S   UNL     1      35.186 -23.530 -14.811  0.00  0.00    +0.061 S 
ATOM     12  O   UNL     1      36.146 -22.682 -14.132  0.00  0.00    -0.153 OA
ATOM     13  O   UNL     1      33.926 -23.862 -14.173  0.00  0.00    -0.153 OA
BRANCH  11  14
ATOM     14  N   UNL     1      35.949 -24.967 -15.302  0.00  0.00    -0.170 NA
ATOM     15  H   UNL     1      36.800 -24.695 -15.796  0.00  0.00    +0.149 HD
BRANCH  14  16
ATOM     16  C   UNL     1      36.343 -25.976 -14.295  0.00  0.00    +0.174 C 
BRANCH  16  18
ATOM     17  O   UNL     1      36.822 -27.612 -16.029  0.00  0.00    -0.249 OA
ATOM     18  C   UNL     1      37.148 -27.045 -14.993  0.00  0.00    +0.330 C 
BRANCH  18  19
ATOM     19  O   UNL     1      38.315 -27.311 -14.350  0.00  0.00    -0.479 OA
ATOM     20  H   UNL     1      39.000 -26.673 -14.340  0.00  0.00    +0.295 HD
ENDBRANCH  18  19
ENDBRANCH  16  18
BRANCH  16  21
ATOM     21  C   UNL     1      37.060 -25.306 -13.116  0.00  0.00    +0.040 C 
BRANCH  21  22
ATOM     22  C   UNL     1      36.453 -25.535 -11.730  0.00  0.00    +0.111 C 
BRANCH  22  24
ATOM     23  O   UNL     1      36.916 -23.858 -10.054  0.00  0.00    -0.250 OA
ATOM     24  C   UNL     1      36.197 -24.265 -10.958  0.00  0.00    +0.314 C 
BRANCH  24  25
ATOM     25  O   UNL     1      35.071 -23.623 -11.358  0.00  0.00    -0.480 OA
ATOM     26  H   UNL     1      34.634 -23.037 -10.771  0.00  0.00    +0.295 HD
ENDBRANCH  24  25
ENDBRANCH  22  24
ENDBRANCH  21  22
ENDBRANCH  16  21
ENDBRANCH  14  16
ENDBRANCH  11  14
ENDBRANCH   1  11
BRANCH   9  27
ATOM     27  O   UNL     1      34.559 -19.707 -21.960  0.00  0.00    -0.471 OA
BRANCH  27  28
ATOM     28  C   UNL     1      35.604 -18.991 -22.618  0.00  0.00    +0.234 C 
BRANCH  28  30
ATOM     29  F   UNL     1      35.567 -16.932 -20.676  0.00  0.00    -0.204 F 
ATOM     30  C   UNL     1      35.133 -17.598 -22.913  0.00  0.00    +0.049 C 
ATOM     31  C   UNL     1      35.139 -16.629 -21.910  0.00  0.00    +0.140 C 
ATOM     32  C   UNL     1      34.687 -17.273 -24.194  0.00  0.00    +0.002 C 
ATOM     33  C   UNL     1      34.700 -15.334 -22.188  0.00  0.00    +0.040 C 
ATOM     34  C   UNL     1      34.248 -15.978 -24.472  0.00  0.00    +0.010 C 
ATOM     35  C   UNL     1      34.254 -15.009 -23.469  0.00  0.00    +0.071 C 
BRANCH  35  37
ATOM     36  N   UNL     1      33.442 -12.605 -23.986  0.00  0.00    -0.191 NA
ATOM     37  C   UNL     1      33.806 -13.682 -23.754  0.00  0.00    +0.100 C 
ENDBRANCH  35  37
ENDBRANCH  28  30
ENDBRANCH  27  28
ENDBRANCH   9  27
TORSDOF 13
ENDMDL
MODEL 7
REMARK VINA RESULT:     -11.1      2.134      3.268
REMARK  Name = 25058128
REMARK  13 active torsions:
REMARK  status: ('A' for Active; 'I' for Inactive)
REMARK    1  A    between atoms: C_1  and  S_11
REMARK    2  A    between atoms: C_9  and  O_27
REMARK    3  A    between atoms: S_11  and  N_14
REMARK    4  A    between atoms: N_14  and  C_16
REMARK    5  A    between atoms: C_16  and  C_18
REMARK    6  A    between atoms: C_16  and  C_21
REMARK    7  A    between atoms: C_18  and  O_19
REMARK    8  A    between atoms: C_21  and  C_22
REMARK    9  A    between atoms: C_22  and  C_24
REMARK   10  A    between atoms: C_24  and  O_25
REMARK   11  A    between atoms: O_27  and  C_28
REMARK   12  A    between atoms: C_28  and  C_30
REMARK   13  A    between atoms: C_35  and  C_37
REMARK                            x       y       z     vdW  Elec       q    Type
REMARK                         _______ _______ _______ _____ _____    ______ ____
ROOT
ATOM      1  C   UNL     1      35.721 -22.749 -16.434  0.00  0.00    +0.122 C 
ATOM      2  C   UNL     1      36.048 -21.336 -18.387  0.00  0.00    +0.002 C 
ATOM      3  C   UNL     1      36.546 -21.953 -17.227  0.00  0.00    +0.020 C 
ATOM      4  C   UNL     1      34.692 -21.530 -18.745  0.00  0.00    +0.003 C 
ATOM      5  C   UNL     1      34.389 -22.941 -16.786  0.00  0.00    +0.020 C 
ATOM      6  C   UNL     1      33.876 -22.336 -17.934  0.00  0.00    +0.001 C 
ATOM      7  C   UNL     1      34.193 -20.914 -19.904  0.00  0.00    +0.037 C 
ATOM      8  C   UNL     1      36.863 -20.530 -19.198  0.00  0.00    +0.003 C 
ATOM      9  C   UNL     1      35.018 -20.117 -20.698  0.00  0.00    +0.139 C 
ATOM     10  C   UNL     1      36.350 -19.926 -20.346  0.00  0.00    +0.037 C 
ENDROOT
BRANCH   1  11
ATOM     11  S   UNL     1      36.369 -23.517 -14.978  0.00  0.00    +0.061 S 
ATOM     12  O   UNL     1      36.400 -24.948 -15.204  0.00  0.00    -0.153 OA
ATOM     13  O   UNL     1      37.585 -22.805 -14.632  0.00  0.00    -0.153 OA
BRANCH  11  14
ATOM     14  N   UNL     1      35.172 -23.152 -13.829  0.00  0.00    -0.170 NA
ATOM     15  H   UNL     1      34.356 -22.823 -14.346  0.00  0.00    +0.149 HD
BRANCH  14  16
ATOM     16  C   UNL     1      34.694 -24.201 -12.901  0.00  0.00    +0.174 C 
BRANCH  16  18
ATOM     17  O   UNL     1      36.314 -23.219 -11.376  0.00  0.00    -0.249 OA
ATOM     18  C   UNL     1      35.451 -24.058 -11.603  0.00  0.00    +0.330 C 
BRANCH  18  19
ATOM     19  O   UNL     1      35.054 -24.968 -10.676  0.00  0.00    -0.479 OA
ATOM     20  H   UNL     1      34.647 -24.681  -9.882  0.00  0.00    +0.295 HD
ENDBRANCH  18  19
ENDBRANCH  16  18
BRANCH  16  21
ATOM     21  C   UNL     1      33.168 -24.138 -12.761  0.00  0.00    +0.040 C 
BRANCH  21  22
ATOM     22  C   UNL     1      32.353 -24.650 -13.951  0.00  0.00    +0.111 C 
BRANCH  22  24
ATOM     23  O   UNL     1      30.323 -25.909 -14.314  0.00  0.00    -0.250 OA
ATOM     24  C   UNL     1      31.008 -25.216 -13.571  0.00  0.00    +0.314 C 
BRANCH  24  25
ATOM     25  O   UNL     1      30.622 -24.864 -12.320  0.00  0.00    -0.480 OA
ATOM     26  H   UNL     1      31.211 -24.389 -11.765  0.00  0.00    +0.295 HD
ENDBRANCH  24  25
ENDBRANCH  22  24
ENDBRANCH  21  22
ENDBRANCH  16  21
ENDBRANCH  14  16
ENDBRANCH  11  14
ENDBRANCH   1  11
BRANCH   9  27
ATOM     27  O   UNL     1      34.520 -19.528 -21.819  0.00  0.00    -0.471 OA
BRANCH  27  28
ATOM     28  C   UNL     1      35.459 -18.931 -22.712  0.00  0.00    +0.234 C 
BRANCH  28  30
ATOM     29  F   UNL     1      35.575 -16.869 -20.776  0.00  0.00    -0.204 F 
ATOM     30  C   UNL     1      35.038 -17.519 -22.994  0.00  0.00    +0.049 C 
ATOM     31  C   UNL     1      35.119 -16.550 -21.995  0.00  0.00    +0.140 C 
ATOM     32  C   UNL     1      34.564 -17.177 -24.261  0.00  0.00    +0.002 C 
ATOM     33  C   UNL     1      34.726 -15.238 -22.262  0.00  0.00    +0.040 C 
ATOM     34  C   UNL     1      34.170 -15.865 -24.527  0.00  0.00    +0.010 C 
ATOM     35  C   UNL     1      34.251 -14.896 -23.528  0.00  0.00    +0.071 C 
BRANCH  35  37
ATOM     36  N   UNL     1      33.525 -12.460 -24.024  0.00  0.00    -0.191 NA
ATOM     37  C   UNL     1      33.850 -13.552 -23.801  0.00  0.00    +0.100 C 
ENDBRANCH  35  37
ENDBRANCH  28  30
ENDBRANCH  27  28
ENDBRANCH   9  27
TORSDOF 13
ENDMDL
MODEL 8
REMARK VINA RESULT:     -10.8      6.588     13.834
REMARK  Name = 25058128
REMARK  13 active torsions:
REMARK  status: ('A' for Active; 'I' for Inactive)
REMARK    1  A    between atoms: C_1  and  S_11
REMARK    2  A    between atoms: C_9  and  O_27
REMARK    3  A    between atoms: S_11  and  N_14
REMARK    4  A    between atoms: N_14  and  C_16
REMARK    5  A    between atoms: C_16  and  C_18
REMARK    6  A    between atoms: C_16  and  C_21
REMARK    7  A    between atoms: C_18  and  O_19
REMARK    8  A    between atoms: C_21  and  C_22
REMARK    9  A    between atoms: C_22  and  C_24
REMARK   10  A    between atoms: C_24  and  O_25
REMARK   11  A    between atoms: O_27  and  C_28
REMARK   12  A    between atoms: C_28  and  C_30
REMARK   13  A    between atoms: C_35  and  C_37
REMARK                            x       y       z     vdW  Elec       q    Type
REMARK                         _______ _______ _______ _____ _____    ______ ____
ROOT
ATOM      1  C   UNL     1      32.943 -11.651 -22.797  0.00  0.00    +0.122 C 
ATOM      2  C   UNL     1      33.576 -13.506 -21.356  0.00  0.00    +0.002 C 
ATOM      3  C   UNL     1      32.933 -12.272 -21.549  0.00  0.00    +0.020 C 
ATOM      4  C   UNL     1      34.238 -14.118 -22.447  0.00  0.00    +0.003 C 
ATOM      5  C   UNL     1      33.593 -12.253 -23.870  0.00  0.00    +0.020 C 
ATOM      6  C   UNL     1      34.237 -13.479 -23.697  0.00  0.00    +0.001 C 
ATOM      7  C   UNL     1      34.881 -15.352 -22.256  0.00  0.00    +0.037 C 
ATOM      8  C   UNL     1      33.577 -14.145 -20.106  0.00  0.00    +0.003 C 
ATOM      9  C   UNL     1      34.871 -15.973 -21.006  0.00  0.00    +0.139 C 
ATOM     10  C   UNL     1      34.221 -15.371 -19.933  0.00  0.00    +0.037 C 
ENDROOT
BRANCH   1  11
ATOM     11  S   UNL     1      32.127 -10.098 -23.018  0.00  0.00    +0.061 S 
ATOM     12  O   UNL     1      32.252  -9.722 -24.412  0.00  0.00    -0.153 OA
ATOM     13  O   UNL     1      30.817 -10.219 -22.409  0.00  0.00    -0.153 OA
BRANCH  11  14
ATOM     14  N   UNL     1      33.082  -9.064 -22.066  0.00  0.00    -0.170 NA
ATOM     15  H   UNL     1      33.816  -8.697 -22.673  0.00  0.00    +0.149 HD
BRANCH  14  16
ATOM     16  C   UNL     1      32.465  -7.901 -21.391  0.00  0.00    +0.174 C 
BRANCH  16  18
ATOM     17  O   UNL     1      31.618  -8.913 -19.349  0.00  0.00    -0.249 OA
ATOM     18  C   UNL     1      32.428  -8.185 -19.909  0.00  0.00    +0.330 C 
BRANCH  18  19
ATOM     19  O   UNL     1      33.425  -7.550 -19.240  0.00  0.00    -0.479 OA
ATOM     20  H   UNL     1      33.253  -7.153 -18.409  0.00  0.00    +0.295 HD
ENDBRANCH  18  19
ENDBRANCH  16  18
BRANCH  16  21
ATOM     21  C   UNL     1      33.196  -6.608 -21.775  0.00  0.00    +0.040 C 
BRANCH  21  22
ATOM     22  C   UNL     1      33.381  -6.349 -23.272  0.00  0.00    +0.111 C 
BRANCH  22  24
ATOM     23  O   UNL     1      35.167  -6.313 -24.898  0.00  0.00    -0.250 OA
ATOM     24  C   UNL     1      34.791  -6.566 -23.760  0.00  0.00    +0.314 C 
BRANCH  24  25
ATOM     25  O   UNL     1      35.602  -7.091 -22.809  0.00  0.00    -0.480 OA
ATOM     26  H   UNL     1      36.217  -7.762 -23.036  0.00  0.00    +0.295 HD
ENDBRANCH  24  25
ENDBRANCH  22  24
ENDBRANCH  21  22
ENDBRANCH  16  21
ENDBRANCH  14  16
ENDBRANCH  11  14
ENDBRANCH   1  11
BRANCH   9  27
ATOM     27  O   UNL     1      35.497 -17.170 -20.836  0.00  0.00    -0.471 OA
BRANCH  27  28
ATOM     28  C   UNL     1      35.073 -18.249 -21.667  0.00  0.00    +0.234 C 
BRANCH  28  30
ATOM     29  F   UNL     1      37.074 -19.771 -20.366  0.00  0.00    -0.204 F 
ATOM     30  C   UNL     1      34.765 -19.438 -20.806  0.00  0.00    +0.049 C 
ATOM     31  C   UNL     1      35.799 -20.146 -20.193  0.00  0.00    +0.140 C 
ATOM     32  C   UNL     1      33.441 -19.836 -20.619  0.00  0.00    +0.002 C 
ATOM     33  C   UNL     1      35.509 -21.252 -19.394  0.00  0.00    +0.040 C 
ATOM     34  C   UNL     1      33.152 -20.943 -19.820  0.00  0.00    +0.010 C 
ATOM     35  C   UNL     1      34.185 -21.651 -19.207  0.00  0.00    +0.071 C 
BRANCH  35  37
ATOM     36  N   UNL     1      33.647 -23.701 -17.721  0.00  0.00    -0.191 NA
ATOM     37  C   UNL     1      33.889 -22.782 -18.387  0.00  0.00    +0.100 C 
ENDBRANCH  35  37
ENDBRANCH  28  30
ENDBRANCH  27  28
ENDBRANCH   9  27
TORSDOF 13
ENDMDL
MODEL 9
REMARK VINA RESULT:     -10.7      6.449     13.571
REMARK  Name = 25058128
REMARK  13 active torsions:
REMARK  status: ('A' for Active; 'I' for Inactive)
REMARK    1  A    between atoms: C_1  and  S_11
REMARK    2  A    between atoms: C_9  and  O_27
REMARK    3  A    between atoms: S_11  and  N_14
REMARK    4  A    between atoms: N_14  and  C_16
REMARK    5  A    between atoms: C_16  and  C_18
REMARK    6  A    between atoms: C_16  and  C_21
REMARK    7  A    between atoms: C_18  and  O_19
REMARK    8  A    between atoms: C_21  and  C_22
REMARK    9  A    between atoms: C_22  and  C_24
REMARK   10  A    between atoms: C_24  and  O_25
REMARK   11  A    between atoms: O_27  and  C_28
REMARK   12  A    between atoms: C_28  and  C_30
REMARK   13  A    between atoms: C_35  and  C_37
REMARK                            x       y       z     vdW  Elec       q    Type
REMARK                         _______ _______ _______ _____ _____    ______ ____
ROOT
ATOM      1  C   UNL     1      32.336 -11.984 -21.341  0.00  0.00    +0.122 C 
ATOM      2  C   UNL     1      33.731 -13.885 -21.937  0.00  0.00    +0.002 C 
ATOM      3  C   UNL     1      33.086 -12.686 -22.283  0.00  0.00    +0.020 C 
ATOM      4  C   UNL     1      33.612 -14.377 -20.615  0.00  0.00    +0.003 C 
ATOM      5  C   UNL     1      32.219 -12.467 -20.041  0.00  0.00    +0.020 C 
ATOM      6  C   UNL     1      32.853 -13.656 -19.679  0.00  0.00    +0.001 C 
ATOM      7  C   UNL     1      34.257 -15.575 -20.268  0.00  0.00    +0.037 C 
ATOM      8  C   UNL     1      34.490 -14.606 -22.873  0.00  0.00    +0.003 C 
ATOM      9  C   UNL     1      35.008 -16.279 -21.212  0.00  0.00    +0.139 C 
ATOM     10  C   UNL     1      35.124 -15.795 -22.511  0.00  0.00    +0.037 C 
ENDROOT
BRANCH   1  11
ATOM     11  S   UNL     1      31.532 -10.476 -21.797  0.00  0.00    +0.061 S 
ATOM     12  O   UNL     1      30.247 -10.813 -22.379  0.00  0.00    -0.153 OA
ATOM     13  O   UNL     1      31.605  -9.594 -20.648  0.00  0.00    -0.153 OA
BRANCH  11  14
ATOM     14  N   UNL     1      32.564  -9.884 -23.011  0.00  0.00    -0.170 NA
ATOM     15  H   UNL     1      31.973  -9.627 -23.802  0.00  0.00    +0.149 HD
BRANCH  14  16
ATOM     16  C   UNL     1      33.438  -8.723 -22.736  0.00  0.00    +0.174 C 
BRANCH  16  18
ATOM     17  O   UNL     1      35.572  -8.087 -23.714  0.00  0.00    -0.249 OA
ATOM     18  C   UNL     1      34.759  -8.957 -23.428  0.00  0.00    +0.330 C 
BRANCH  18  19
ATOM     19  O   UNL     1      34.973 -10.272 -23.692  0.00  0.00    -0.479 OA
ATOM     20  H   UNL     1      34.926 -10.903 -23.001  0.00  0.00    +0.295 HD
ENDBRANCH  18  19
ENDBRANCH  16  18
BRANCH  16  21
ATOM     21  C   UNL     1      32.735  -7.417 -23.128  0.00  0.00    +0.040 C 
BRANCH  21  22
ATOM     22  C   UNL     1      33.044  -6.191 -22.265  0.00  0.00    +0.111 C 
BRANCH  22  24
ATOM     23  O   UNL     1      31.350  -4.710 -21.386  0.00  0.00    -0.250 OA
ATOM     24  C   UNL     1      31.920  -5.794 -21.343  0.00  0.00    +0.314 C 
BRANCH  24  25
ATOM     25  O   UNL     1      31.611  -6.760 -20.442  0.00  0.00    -0.480 OA
ATOM     26  H   UNL     1      32.296  -7.228 -20.005  0.00  0.00    +0.295 HD
ENDBRANCH  24  25
ENDBRANCH  22  24
ENDBRANCH  21  22
ENDBRANCH  16  21
ENDBRANCH  14  16
ENDBRANCH  11  14
ENDBRANCH   1  11
BRANCH   9  27
ATOM     27  O   UNL     1      35.628 -17.438 -20.860  0.00  0.00    -0.471 OA
BRANCH  27  28
ATOM     28  C   UNL     1      35.298 -18.605 -21.611  0.00  0.00    +0.234 C 
BRANCH  28  30
ATOM     29  F   UNL     1      37.234 -20.056 -20.142  0.00  0.00    -0.204 F 
ATOM     30  C   UNL     1      34.944 -19.713 -20.664  0.00  0.00    +0.049 C 
ATOM     31  C   UNL     1      35.948 -20.390 -19.970  0.00  0.00    +0.140 C 
ATOM     32  C   UNL     1      33.608 -20.067 -20.477  0.00  0.00    +0.002 C 
ATOM     33  C   UNL     1      35.614 -21.421 -19.091  0.00  0.00    +0.040 C 
ATOM     34  C   UNL     1      33.275 -21.098 -19.598  0.00  0.00    +0.010 C 
ATOM     35  C   UNL     1      34.278 -21.775 -18.905  0.00  0.00    +0.071 C 
BRANCH  35  37
ATOM     36  N   UNL     1      33.660 -23.685 -17.270  0.00  0.00    -0.191 NA
ATOM     37  C   UNL     1      33.938 -22.829 -18.003  0.00  0.00    +0.100 C 
ENDBRANCH  35  37
ENDBRANCH  28  30
ENDBRANCH  27  28
ENDBRANCH   9  27
TORSDOF 13
ENDMDL
