MODEL 1
REMARK VINA RESULT:     -10.6      0.000      0.000
REMARK  Name = 444394
REMARK  9 active torsions:
REMARK  status: ('A' for Active; 'I' for Inactive)
REMARK    1  A    between atoms: C_1  and  C_7
REMARK    2  A    between atoms: C_6  and  C_23
REMARK    3  A    between atoms: C_8  and  C_13
REMARK    4  A    between atoms: C_9  and  O_19
REMARK    5  A    between atoms: N_22  and  C_25
REMARK    6  A    between atoms: C_25  and  C_26
REMARK    7  A    between atoms: C_26  and  C_27
REMARK    8  A    between atoms: C_27  and  C_29
REMARK    9  A    between atoms: C_29  and  O_30
REMARK                            x       y       z     vdW  Elec       q    Type
REMARK                         _______ _______ _______ _____ _____    ______ ____
ROOT
ATOM      1  C   UNL     1      33.523 -12.877 -23.526  0.00  0.00    -0.020 C 
ATOM      2  C   UNL     1      33.257 -13.659 -24.646  0.00  0.00    -0.004 C 
ATOM      3  C   UNL     1      34.201 -13.413 -22.436  0.00  0.00    -0.004 C 
ATOM      4  C   UNL     1      33.673 -14.990 -24.675  0.00  0.00    +0.004 C 
ATOM      5  C   UNL     1      34.618 -14.743 -22.465  0.00  0.00    +0.004 C 
ATOM      6  C   UNL     1      34.354 -15.532 -23.584  0.00  0.00    +0.053 C 
ENDROOT
BRANCH   1   7
ATOM      7  C   UNL     1      33.070 -11.425 -23.496  0.00  0.00    +0.049 C 
ATOM      8  C   UNL     1      32.593  -8.834 -22.113  0.00  0.00    +0.025 C 
ATOM      9  C   UNL     1      34.228 -10.454 -23.190  0.00  0.00    +0.115 C 
ATOM     10  C   UNL     1      33.742  -9.002 -23.117  0.00  0.00    +0.034 C 
ATOM     11  C   UNL     1      31.908 -11.239 -22.504  0.00  0.00    +0.007 C 
ATOM     12  C   UNL     1      31.434  -9.787 -22.450  0.00  0.00    +0.005 C 
BRANCH   8  13
ATOM     13  C   UNL     1      32.128  -7.392 -22.022  0.00  0.00    -0.022 C 
ATOM     14  C   UNL     1      31.150  -6.921 -22.896  0.00  0.00    -0.004 C 
ATOM     15  C   UNL     1      32.682  -6.543 -21.066  0.00  0.00    -0.004 C 
ATOM     16  C   UNL     1      30.723  -5.596 -22.813  0.00  0.00    -0.000 C 
ATOM     17  C   UNL     1      32.256  -5.218 -20.983  0.00  0.00    -0.000 C 
ATOM     18  C   UNL     1      31.277  -4.744 -21.856  0.00  0.00    -0.000 C 
ENDBRANCH   8  13
BRANCH   9  19
ATOM     19  O   UNL     1      35.202 -10.550 -24.231  0.00  0.00    -0.384 OA
ATOM     20  H   UNL     1      36.006 -10.076 -23.966  0.00  0.00    +0.210 HD
ENDBRANCH   9  19
ENDBRANCH   1   7
BRANCH   6  23
ATOM     21  O   UNL     1      34.507 -17.649 -24.583  0.00  0.00    -0.270 OA
ATOM     22  N   UNL     1      35.539 -17.374 -22.524  0.00  0.00    -0.301 N 
ATOM     23  C   UNL     1      34.787 -16.920 -23.614  0.00  0.00    +0.246 C 
ATOM     24  H   UNL     1      35.724 -16.744 -21.791  0.00  0.00    +0.150 HD
BRANCH  22  25
ATOM     25  C   UNL     1      36.061 -18.718 -22.419  0.00  0.00    +0.090 C 
BRANCH  25  26
ATOM     26  C   UNL     1      35.684 -19.398 -21.102  0.00  0.00    +0.033 C 
BRANCH  26  27
ATOM     27  C   UNL     1      34.203 -19.769 -20.992  0.00  0.00    +0.111 C 
BRANCH  27  29
ATOM     28  O   UNL     1      34.718 -21.359 -19.220  0.00  0.00    -0.250 OA
ATOM     29  C   UNL     1      33.901 -20.676 -19.819  0.00  0.00    +0.314 C 
BRANCH  29  30
ATOM     30  O   UNL     1      32.585 -20.628 -19.481  0.00  0.00    -0.480 OA
ATOM     31  H   UNL     1      32.270 -19.947 -18.922  0.00  0.00    +0.295 HD
ENDBRANCH  29  30
ENDBRANCH  27  29
ENDBRANCH  26  27
ENDBRANCH  25  26
ENDBRANCH  22  25
ENDBRANCH   6  23
TORSDOF 9
ENDMDL
MODEL 2
REMARK VINA RESULT:     -10.5      7.206     11.486
REMARK  Name = 444394
REMARK  9 active torsions:
REMARK  status: ('A' for Active; 'I' for Inactive)
REMARK    1  A    between atoms: C_1  and  C_7
REMARK    2  A    between atoms: C_6  and  C_23
REMARK    3  A    between atoms: C_8  and  C_13
REMARK    4  A    between atoms: C_9  and  O_19
REMARK    5  A    between atoms: N_22  and  C_25
REMARK    6  A    between atoms: C_25  and  C_26
REMARK    7  A    between atoms: C_26  and  C_27
REMARK    8  A    between atoms: C_27  and  C_29
REMARK    9  A    between atoms: C_29  and  O_30
REMARK                            x       y       z     vdW  Elec       q    Type
REMARK                         _______ _______ _______ _____ _____    ______ ____
ROOT
ATOM      1  C   UNL     1      34.780 -22.371 -17.736  0.00  0.00    -0.020 C 
ATOM      2  C   UNL     1      35.898 -22.279 -16.912  0.00  0.00    -0.004 C 
ATOM      3  C   UNL     1      33.664 -23.099 -17.335  0.00  0.00    -0.004 C 
ATOM      4  C   UNL     1      35.899 -22.920 -15.674  0.00  0.00    +0.004 C 
ATOM      5  C   UNL     1      33.666 -23.740 -16.096  0.00  0.00    +0.004 C 
ATOM      6  C   UNL     1      34.782 -23.651 -15.265  0.00  0.00    +0.053 C 
ENDROOT
BRANCH   1   7
ATOM      7  C   UNL     1      34.779 -21.670 -19.087  0.00  0.00    +0.049 C 
ATOM      8  C   UNL     1      34.723 -19.240 -20.803  0.00  0.00    +0.025 C 
ATOM      9  C   UNL     1      36.043 -20.813 -19.305  0.00  0.00    +0.115 C 
ATOM     10  C   UNL     1      36.000 -20.079 -20.650  0.00  0.00    +0.034 C 
ATOM     11  C   UNL     1      33.499 -20.834 -19.264  0.00  0.00    +0.007 C 
ATOM     12  C   UNL     1      33.473 -20.115 -20.612  0.00  0.00    +0.005 C 
BRANCH   8  13
ATOM     13  C   UNL     1      34.692 -18.493 -22.124  0.00  0.00    -0.022 C 
ATOM     14  C   UNL     1      35.118 -17.168 -22.182  0.00  0.00    -0.004 C 
ATOM     15  C   UNL     1      34.235 -19.135 -23.273  0.00  0.00    -0.004 C 
ATOM     16  C   UNL     1      35.088 -16.481 -23.395  0.00  0.00    -0.000 C 
ATOM     17  C   UNL     1      34.206 -18.448 -24.487  0.00  0.00    -0.000 C 
ATOM     18  C   UNL     1      34.632 -17.121 -24.548  0.00  0.00    -0.000 C 
ENDBRANCH   8  13
BRANCH   9  19
ATOM     19  O   UNL     1      37.189 -21.665 -19.295  0.00  0.00    -0.384 OA
ATOM     20  H   UNL     1      37.386 -21.954 -20.200  0.00  0.00    +0.210 HD
ENDBRANCH   9  19
ENDBRANCH   1   7
BRANCH   6  23
ATOM     21  O   UNL     1      33.713 -24.637 -13.426  0.00  0.00    -0.270 OA
ATOM     22  N   UNL     1      36.032 -24.607 -13.409  0.00  0.00    -0.301 N 
ATOM     23  C   UNL     1      34.784 -24.321 -13.975  0.00  0.00    +0.246 C 
ATOM     24  H   UNL     1      36.840 -24.328 -13.898  0.00  0.00    +0.150 HD
BRANCH  22  25
ATOM     25  C   UNL     1      36.199 -25.288 -12.145  0.00  0.00    +0.090 C 
BRANCH  25  26
ATOM     26  C   UNL     1      37.534 -26.025 -12.041  0.00  0.00    +0.033 C 
BRANCH  26  27
ATOM     27  C   UNL     1      38.677 -25.358 -12.810  0.00  0.00    +0.111 C 
BRANCH  27  29
ATOM     28  O   UNL     1      40.184 -26.729 -14.146  0.00  0.00    -0.250 OA
ATOM     29  C   UNL     1      39.117 -26.145 -14.025  0.00  0.00    +0.314 C 
BRANCH  29  30
ATOM     30  O   UNL     1      38.157 -26.151 -14.987  0.00  0.00    -0.480 OA
ATOM     31  H   UNL     1      38.319 -25.741 -15.814  0.00  0.00    +0.295 HD
ENDBRANCH  29  30
ENDBRANCH  27  29
ENDBRANCH  26  27
ENDBRANCH  25  26
ENDBRANCH  22  25
ENDBRANCH   6  23
TORSDOF 9
ENDMDL
MODEL 3
REMARK VINA RESULT:     -10.4      4.807     12.761
REMARK  Name = 444394
REMARK  9 active torsions:
REMARK  status: ('A' for Active; 'I' for Inactive)
REMARK    1  A    between atoms: C_1  and  C_7
REMARK    2  A    between atoms: C_6  and  C_23
REMARK    3  A    between atoms: C_8  and  C_13
REMARK    4  A    between atoms: C_9  and  O_19
REMARK    5  A    between atoms: N_22  and  C_25
REMARK    6  A    between atoms: C_25  and  C_26
REMARK    7  A    between atoms: C_26  and  C_27
REMARK    8  A    between atoms: C_27  and  C_29
REMARK    9  A    between atoms: C_29  and  O_30
REMARK                            x       y       z     vdW  Elec       q    Type
REMARK                         _______ _______ _______ _____ _____    ______ ____
ROOT
ATOM      1  C   UNL     1      35.834 -20.892 -19.243  0.00  0.00    -0.020 C 
ATOM      2  C   UNL     1      34.553 -20.824 -19.781  0.00  0.00    -0.004 C 
ATOM      3  C   UNL     1      36.861 -20.112 -19.765  0.00  0.00    -0.004 C 
ATOM      4  C   UNL     1      34.295 -19.967 -20.850  0.00  0.00    +0.004 C 
ATOM      5  C   UNL     1      36.604 -19.255 -20.834  0.00  0.00    +0.004 C 
ATOM      6  C   UNL     1      35.322 -19.182 -21.378  0.00  0.00    +0.053 C 
ENDROOT
BRANCH   1   7
ATOM      7  C   UNL     1      36.114 -21.827 -18.075  0.00  0.00    +0.049 C 
ATOM      8  C   UNL     1      35.965 -22.582 -15.202  0.00  0.00    +0.025 C 
ATOM      9  C   UNL     1      34.822 -22.407 -17.464  0.00  0.00    +0.115 C 
ATOM     10  C   UNL     1      35.122 -23.307 -16.261  0.00  0.00    +0.034 C 
ATOM     11  C   UNL     1      36.969 -21.121 -17.007  0.00  0.00    +0.007 C 
ATOM     12  C   UNL     1      37.263 -22.037 -15.820  0.00  0.00    +0.005 C 
BRANCH   8  13
ATOM     13  C   UNL     1      36.241 -23.465 -13.998  0.00  0.00    -0.022 C 
ATOM     14  C   UNL     1      37.533 -23.933 -13.762  0.00  0.00    -0.004 C 
ATOM     15  C   UNL     1      35.202 -23.807 -13.135  0.00  0.00    -0.004 C 
ATOM     16  C   UNL     1      37.787 -24.745 -12.658  0.00  0.00    -0.000 C 
ATOM     17  C   UNL     1      35.457 -24.619 -12.029  0.00  0.00    -0.000 C 
ATOM     18  C   UNL     1      36.748 -25.088 -11.791  0.00  0.00    -0.000 C 
ENDBRANCH   8  13
BRANCH   9  19
ATOM     19  O   UNL     1      34.151 -23.189 -18.454  0.00  0.00    -0.384 OA
ATOM     20  H   UNL     1      34.743 -23.333 -19.208  0.00  0.00    +0.210 HD
ENDBRANCH   9  19
ENDBRANCH   1   7
BRANCH   6  23
ATOM     21  O   UNL     1      34.462 -18.704 -23.506  0.00  0.00    -0.270 OA
ATOM     22  N   UNL     1      35.472 -16.960 -22.359  0.00  0.00    -0.301 N 
ATOM     23  C   UNL     1      35.054 -18.290 -22.494  0.00  0.00    +0.246 C 
ATOM     24  H   UNL     1      35.936 -16.700 -21.531  0.00  0.00    +0.150 HD
BRANCH  22  25
ATOM     25  C   UNL     1      35.259 -15.950 -23.370  0.00  0.00    +0.090 C 
BRANCH  25  26
ATOM     26  C   UNL     1      34.179 -14.940 -22.980  0.00  0.00    +0.033 C 
BRANCH  26  27
ATOM     27  C   UNL     1      34.545 -14.068 -21.778  0.00  0.00    +0.111 C 
BRANCH  27  29
ATOM     28  O   UNL     1      32.885 -14.213 -20.001  0.00  0.00    -0.250 OA
ATOM     29  C   UNL     1      33.954 -14.566 -20.476  0.00  0.00    +0.314 C 
BRANCH  29  30
ATOM     30  O   UNL     1      34.755 -15.494 -19.890  0.00  0.00    -0.480 OA
ATOM     31  H   UNL     1      34.832 -15.524 -18.957  0.00  0.00    +0.295 HD
ENDBRANCH  29  30
ENDBRANCH  27  29
ENDBRANCH  26  27
ENDBRANCH  25  26
ENDBRANCH  22  25
ENDBRANCH   6  23
TORSDOF 9
ENDMDL
MODEL 4
REMARK VINA RESULT:     -10.4      1.234      1.710
REMARK  Name = 444394
REMARK  9 active torsions:
REMARK  status: ('A' for Active; 'I' for Inactive)
REMARK    1  A    between atoms: C_1  and  C_7
REMARK    2  A    between atoms: C_6  and  C_23
REMARK    3  A    between atoms: C_8  and  C_13
REMARK    4  A    between atoms: C_9  and  O_19
REMARK    5  A    between atoms: N_22  and  C_25
REMARK    6  A    between atoms: C_25  and  C_26
REMARK    7  A    between atoms: C_26  and  C_27
REMARK    8  A    between atoms: C_27  and  C_29
REMARK    9  A    between atoms: C_29  and  O_30
REMARK                            x       y       z     vdW  Elec       q    Type
REMARK                         _______ _______ _______ _____ _____    ______ ____
ROOT
ATOM      1  C   UNL     1      33.525 -12.673 -22.953  0.00  0.00    -0.020 C 
ATOM      2  C   UNL     1      33.172 -13.248 -24.169  0.00  0.00    -0.004 C 
ATOM      3  C   UNL     1      34.254 -13.398 -22.015  0.00  0.00    -0.004 C 
ATOM      4  C   UNL     1      33.551 -14.560 -24.451  0.00  0.00    +0.004 C 
ATOM      5  C   UNL     1      34.634 -14.710 -22.296  0.00  0.00    +0.004 C 
ATOM      6  C   UNL     1      34.283 -15.291 -23.515  0.00  0.00    +0.053 C 
ENDROOT
BRANCH   1   7
ATOM      7  C   UNL     1      33.112 -11.241 -22.646  0.00  0.00    +0.049 C 
ATOM      8  C   UNL     1      31.837  -8.649 -23.357  0.00  0.00    +0.025 C 
ATOM      9  C   UNL     1      31.580 -11.066 -22.614  0.00  0.00    +0.115 C 
ATOM     10  C   UNL     1      31.186  -9.608 -22.350  0.00  0.00    +0.034 C 
ATOM     11  C   UNL     1      33.766 -10.263 -23.638  0.00  0.00    +0.007 C 
ATOM     12  C   UNL     1      33.365  -8.815 -23.355  0.00  0.00    +0.005 C 
BRANCH   8  13
ATOM     13  C   UNL     1      31.427  -7.209 -23.113  0.00  0.00    -0.022 C 
ATOM     14  C   UNL     1      31.154  -6.371 -24.192  0.00  0.00    -0.004 C 
ATOM     15  C   UNL     1      31.326  -6.728 -21.808  0.00  0.00    -0.004 C 
ATOM     16  C   UNL     1      30.779  -5.046 -23.968  0.00  0.00    -0.000 C 
ATOM     17  C   UNL     1      30.949  -5.404 -21.583  0.00  0.00    -0.000 C 
ATOM     18  C   UNL     1      30.676  -4.563 -22.663  0.00  0.00    -0.000 C 
ENDBRANCH   8  13
BRANCH   9  19
ATOM     19  O   UNL     1      31.042 -11.873 -21.565  0.00  0.00    -0.384 OA
ATOM     20  H   UNL     1      31.692 -12.547 -21.311  0.00  0.00    +0.210 HD
ENDBRANCH   9  19
ENDBRANCH   1   7
BRANCH   6  23
ATOM     21  O   UNL     1      34.626 -17.097 -24.971  0.00  0.00    -0.270 OA
ATOM     22  N   UNL     1      35.130 -17.435 -22.733  0.00  0.00    -0.301 N 
ATOM     23  C   UNL     1      34.677 -16.660 -23.807  0.00  0.00    +0.246 C 
ATOM     24  H   UNL     1      35.144 -17.025 -21.837  0.00  0.00    +0.150 HD
BRANCH  22  25
ATOM     25  C   UNL     1      35.578 -18.802 -22.867  0.00  0.00    +0.090 C 
BRANCH  25  26
ATOM     26  C   UNL     1      34.655 -19.799 -22.166  0.00  0.00    +0.033 C 
BRANCH  26  27
ATOM     27  C   UNL     1      34.694 -19.718 -20.638  0.00  0.00    +0.111 C 
BRANCH  27  29
ATOM     28  O   UNL     1      32.468 -20.612 -20.211  0.00  0.00    -0.250 OA
ATOM     29  C   UNL     1      33.665 -20.603 -19.967  0.00  0.00    +0.314 C 
BRANCH  29  30
ATOM     30  O   UNL     1      34.242 -21.428 -19.053  0.00  0.00    -0.480 OA
ATOM     31  H   UNL     1      34.625 -22.237 -19.328  0.00  0.00    +0.295 HD
ENDBRANCH  29  30
ENDBRANCH  27  29
ENDBRANCH  26  27
ENDBRANCH  25  26
ENDBRANCH  22  25
ENDBRANCH   6  23
TORSDOF 9
ENDMDL
MODEL 5
REMARK VINA RESULT:     -10.2      1.849      2.788
REMARK  Name = 444394
REMARK  9 active torsions:
REMARK  status: ('A' for Active; 'I' for Inactive)
REMARK    1  A    between atoms: C_1  and  C_7
REMARK    2  A    between atoms: C_6  and  C_23
REMARK    3  A    between atoms: C_8  and  C_13
REMARK    4  A    between atoms: C_9  and  O_19
REMARK    5  A    between atoms: N_22  and  C_25
REMARK    6  A    between atoms: C_25  and  C_26
REMARK    7  A    between atoms: C_26  and  C_27
REMARK    8  A    between atoms: C_27  and  C_29
REMARK    9  A    between atoms: C_29  and  O_30
REMARK                            x       y       z     vdW  Elec       q    Type
REMARK                         _______ _______ _______ _____ _____    ______ ____
ROOT
ATOM      1  C   UNL     1      34.386 -14.350 -21.976  0.00  0.00    -0.020 C 
ATOM      2  C   UNL     1      34.568 -14.948 -20.733  0.00  0.00    -0.004 C 
ATOM      3  C   UNL     1      34.591 -15.076 -23.145  0.00  0.00    -0.004 C 
ATOM      4  C   UNL     1      34.959 -16.285 -20.658  0.00  0.00    +0.004 C 
ATOM      5  C   UNL     1      34.982 -16.413 -23.071  0.00  0.00    +0.004 C 
ATOM      6  C   UNL     1      35.166 -17.017 -21.827  0.00  0.00    +0.053 C 
ENDROOT
BRANCH   1   7
ATOM      7  C   UNL     1      33.958 -12.892 -22.057  0.00  0.00    +0.049 C 
ATOM      8  C   UNL     1      32.337 -10.674 -23.198  0.00  0.00    +0.025 C 
ATOM      9  C   UNL     1      32.482 -12.690 -21.658  0.00  0.00    +0.115 C 
ATOM     10  C   UNL     1      32.058 -11.224 -21.791  0.00  0.00    +0.034 C 
ATOM     11  C   UNL     1      34.242 -12.319 -23.457  0.00  0.00    +0.007 C 
ATOM     12  C   UNL     1      33.818 -10.855 -23.568  0.00  0.00    +0.005 C 
BRANCH   8  13
ATOM     13  C   UNL     1      31.894  -9.229 -23.338  0.00  0.00    -0.022 C 
ATOM     14  C   UNL     1      31.966  -8.598 -24.578  0.00  0.00    -0.004 C 
ATOM     15  C   UNL     1      31.419  -8.537 -22.225  0.00  0.00    -0.004 C 
ATOM     16  C   UNL     1      31.561  -7.269 -24.707  0.00  0.00    -0.000 C 
ATOM     17  C   UNL     1      31.013  -7.209 -22.354  0.00  0.00    -0.000 C 
ATOM     18  C   UNL     1      31.084  -6.575 -23.594  0.00  0.00    -0.000 C 
ENDBRANCH   8  13
BRANCH   9  19
ATOM     19  O   UNL     1      32.310 -13.085 -20.296  0.00  0.00    -0.384 OA
ATOM     20  H   UNL     1      32.783 -12.466 -19.718  0.00  0.00    +0.210 HD
ENDBRANCH   9  19
ENDBRANCH   1   7
BRANCH   6  23
ATOM     21  O   UNL     1      35.391 -19.178 -22.711  0.00  0.00    -0.270 OA
ATOM     22  N   UNL     1      36.198 -18.825 -20.566  0.00  0.00    -0.301 N 
ATOM     23  C   UNL     1      35.576 -18.411 -21.749  0.00  0.00    +0.246 C 
ATOM     24  H   UNL     1      36.312 -18.165 -19.844  0.00  0.00    +0.150 HD
BRANCH  22  25
ATOM     25  C   UNL     1      36.681 -20.169 -20.346  0.00  0.00    +0.090 C 
BRANCH  25  26
ATOM     26  C   UNL     1      36.062 -20.828 -19.114  0.00  0.00    +0.033 C 
BRANCH  26  27
ATOM     27  C   UNL     1      34.963 -21.843 -19.435  0.00  0.00    +0.111 C 
BRANCH  27  29
ATOM     28  O   UNL     1      33.244 -20.192 -19.939  0.00  0.00    -0.250 OA
ATOM     29  C   UNL     1      33.572 -21.245 -19.414  0.00  0.00    +0.314 C 
BRANCH  29  30
ATOM     30  O   UNL     1      32.698 -22.044 -18.746  0.00  0.00    -0.480 OA
ATOM     31  H   UNL     1      32.088 -22.572 -19.223  0.00  0.00    +0.295 HD
ENDBRANCH  29  30
ENDBRANCH  27  29
ENDBRANCH  26  27
ENDBRANCH  25  26
ENDBRANCH  22  25
ENDBRANCH   6  23
TORSDOF 9
ENDMDL
MODEL 6
REMARK VINA RESULT:     -10.2      1.778      2.450
REMARK  Name = 444394
REMARK  9 active torsions:
REMARK  status: ('A' for Active; 'I' for Inactive)
REMARK    1  A    between atoms: C_1  and  C_7
REMARK    2  A    between atoms: C_6  and  C_23
REMARK    3  A    between atoms: C_8  and  C_13
REMARK    4  A    between atoms: C_9  and  O_19
REMARK    5  A    between atoms: N_22  and  C_25
REMARK    6  A    between atoms: C_25  and  C_26
REMARK    7  A    between atoms: C_26  and  C_27
REMARK    8  A    between atoms: C_27  and  C_29
REMARK    9  A    between atoms: C_29  and  O_30
REMARK                            x       y       z     vdW  Elec       q    Type
REMARK                         _______ _______ _______ _____ _____    ______ ____
ROOT
ATOM      1  C   UNL     1      34.056 -13.674 -22.131  0.00  0.00    -0.020 C 
ATOM      2  C   UNL     1      34.199 -14.395 -23.313  0.00  0.00    -0.004 C 
ATOM      3  C   UNL     1      34.345 -14.266 -20.904  0.00  0.00    -0.004 C 
ATOM      4  C   UNL     1      34.634 -15.719 -23.268  0.00  0.00    +0.004 C 
ATOM      5  C   UNL     1      34.780 -15.590 -20.860  0.00  0.00    +0.004 C 
ATOM      6  C   UNL     1      34.925 -16.317 -22.041  0.00  0.00    +0.053 C 
ENDROOT
BRANCH   1   7
ATOM      7  C   UNL     1      33.583 -12.229 -22.180  0.00  0.00    +0.049 C 
ATOM      8  C   UNL     1      32.240  -9.932 -23.510  0.00  0.00    +0.025 C 
ATOM      9  C   UNL     1      32.045 -12.116 -22.225  0.00  0.00    +0.115 C 
ATOM     10  C   UNL     1      31.591 -10.655 -22.321  0.00  0.00    +0.034 C 
ATOM     11  C   UNL     1      34.233 -11.484 -23.358  0.00  0.00    +0.007 C 
ATOM     12  C   UNL     1      33.773 -10.029 -23.434  0.00  0.00    +0.005 C 
BRANCH   8  13
ATOM     13  C   UNL     1      31.771  -8.493 -23.621  0.00  0.00    -0.022 C 
ATOM     14  C   UNL     1      31.153  -7.878 -22.534  0.00  0.00    -0.004 C 
ATOM     15  C   UNL     1      31.958  -7.792 -24.811  0.00  0.00    -0.004 C 
ATOM     16  C   UNL     1      30.720  -6.556 -22.636  0.00  0.00    -0.000 C 
ATOM     17  C   UNL     1      31.526  -6.470 -24.913  0.00  0.00    -0.000 C 
ATOM     18  C   UNL     1      30.907  -5.852 -23.827  0.00  0.00    -0.000 C 
ENDBRANCH   8  13
BRANCH   9  19
ATOM     19  O   UNL     1      31.503 -12.677 -21.029  0.00  0.00    -0.384 OA
ATOM     20  H   UNL     1      31.098 -13.536 -21.229  0.00  0.00    +0.210 HD
ENDBRANCH   9  19
ENDBRANCH   1   7
BRANCH   6  23
ATOM     21  O   UNL     1      35.607 -18.323 -23.045  0.00  0.00    -0.270 OA
ATOM     22  N   UNL     1      35.558 -18.265 -20.727  0.00  0.00    -0.301 N 
ATOM     23  C   UNL     1      35.377 -17.698 -21.995  0.00  0.00    +0.246 C 
ATOM     24  H   UNL     1      35.356 -17.713 -19.937  0.00  0.00    +0.150 HD
BRANCH  22  25
ATOM     25  C   UNL     1      36.024 -19.617 -20.516  0.00  0.00    +0.090 C 
BRANCH  25  26
ATOM     26  C   UNL     1      34.891 -20.590 -20.191  0.00  0.00    +0.033 C 
BRANCH  26  27
ATOM     27  C   UNL     1      35.274 -21.682 -19.190  0.00  0.00    +0.111 C 
BRANCH  27  29
ATOM     28  O   UNL     1      34.153 -23.473 -17.977  0.00  0.00    -0.250 OA
ATOM     29  C   UNL     1      34.106 -22.554 -18.781  0.00  0.00    +0.314 C 
BRANCH  29  30
ATOM     30  O   UNL     1      32.961 -22.175 -19.407  0.00  0.00    -0.480 OA
ATOM     31  H   UNL     1      32.827 -22.389 -20.309  0.00  0.00    +0.295 HD
ENDBRANCH  29  30
ENDBRANCH  27  29
ENDBRANCH  26  27
ENDBRANCH  25  26
ENDBRANCH  22  25
ENDBRANCH   6  23
TORSDOF 9
ENDMDL
MODEL 7
REMARK VINA RESULT:     -10.2      4.886     13.038
REMARK  Name = 444394
REMARK  9 active torsions:
REMARK  status: ('A' for Active; 'I' for Inactive)
REMARK    1  A    between atoms: C_1  and  C_7
REMARK    2  A    between atoms: C_6  and  C_23
REMARK    3  A    between atoms: C_8  and  C_13
REMARK    4  A    between atoms: C_9  and  O_19
REMARK    5  A    between atoms: N_22  and  C_25
REMARK    6  A    between atoms: C_25  and  C_26
REMARK    7  A    between atoms: C_26  and  C_27
REMARK    8  A    between atoms: C_27  and  C_29
REMARK    9  A    between atoms: C_29  and  O_30
REMARK                            x       y       z     vdW  Elec       q    Type
REMARK                         _______ _______ _______ _____ _____    ______ ____
ROOT
ATOM      1  C   UNL     1      35.812 -21.071 -19.063  0.00  0.00    -0.020 C 
ATOM      2  C   UNL     1      36.850 -20.275 -19.536  0.00  0.00    -0.004 C 
ATOM      3  C   UNL     1      34.555 -21.021 -19.660  0.00  0.00    -0.004 C 
ATOM      4  C   UNL     1      36.631 -19.420 -20.616  0.00  0.00    +0.004 C 
ATOM      5  C   UNL     1      34.336 -20.167 -20.740  0.00  0.00    +0.004 C 
ATOM      6  C   UNL     1      35.373 -19.366 -21.218  0.00  0.00    +0.053 C 
ENDROOT
BRANCH   1   7
ATOM      7  C   UNL     1      36.052 -22.005 -17.886  0.00  0.00    +0.049 C 
ATOM      8  C   UNL     1      35.914 -22.706 -14.998  0.00  0.00    +0.025 C 
ATOM      9  C   UNL     1      34.737 -22.486 -17.240  0.00  0.00    +0.115 C 
ATOM     10  C   UNL     1      35.002 -23.387 -16.028  0.00  0.00    +0.034 C 
ATOM     11  C   UNL     1      36.976 -21.344 -16.848  0.00  0.00    +0.007 C 
ATOM     12  C   UNL     1      37.233 -22.260 -15.652  0.00  0.00    +0.005 C 
BRANCH   8  13
ATOM     13  C   UNL     1      36.156 -23.587 -13.787  0.00  0.00    -0.022 C 
ATOM     14  C   UNL     1      37.420 -24.133 -13.566  0.00  0.00    -0.004 C 
ATOM     15  C   UNL     1      35.114 -23.850 -12.900  0.00  0.00    -0.004 C 
ATOM     16  C   UNL     1      37.642 -24.945 -12.454  0.00  0.00    -0.000 C 
ATOM     17  C   UNL     1      35.336 -24.660 -11.787  0.00  0.00    -0.000 C 
ATOM     18  C   UNL     1      36.600 -25.208 -11.564  0.00  0.00    -0.000 C 
ENDBRANCH   8  13
BRANCH   9  19
ATOM     19  O   UNL     1      33.993 -23.235 -18.202  0.00  0.00    -0.384 OA
ATOM     20  H   UNL     1      33.980 -24.170 -17.944  0.00  0.00    +0.210 HD
ENDBRANCH   9  19
ENDBRANCH   1   7
BRANCH   6  23
ATOM     21  O   UNL     1      34.547 -18.877 -23.358  0.00  0.00    -0.270 OA
ATOM     22  N   UNL     1      35.600 -17.157 -22.213  0.00  0.00    -0.301 N 
ATOM     23  C   UNL     1      35.143 -18.473 -22.343  0.00  0.00    +0.246 C 
ATOM     24  H   UNL     1      36.065 -16.905 -21.382  0.00  0.00    +0.150 HD
BRANCH  22  25
ATOM     25  C   UNL     1      35.427 -16.147 -23.232  0.00  0.00    +0.090 C 
BRANCH  25  26
ATOM     26  C   UNL     1      34.283 -15.181 -22.921  0.00  0.00    +0.033 C 
BRANCH  26  27
ATOM     27  C   UNL     1      33.846 -14.326 -24.113  0.00  0.00    +0.111 C 
BRANCH  27  29
ATOM     28  O   UNL     1      33.466 -16.306 -25.481  0.00  0.00    -0.250 OA
ATOM     29  C   UNL     1      33.225 -15.134 -25.232  0.00  0.00    +0.314 C 
BRANCH  29  30
ATOM     30  O   UNL     1      32.326 -14.397 -25.937  0.00  0.00    -0.480 OA
ATOM     31  H   UNL     1      32.436 -13.470 -26.011  0.00  0.00    +0.295 HD
ENDBRANCH  29  30
ENDBRANCH  27  29
ENDBRANCH  26  27
ENDBRANCH  25  26
ENDBRANCH  22  25
ENDBRANCH   6  23
TORSDOF 9
ENDMDL
MODEL 8
REMARK VINA RESULT:     -10.2      7.243     11.550
REMARK  Name = 444394
REMARK  9 active torsions:
REMARK  status: ('A' for Active; 'I' for Inactive)
REMARK    1  A    between atoms: C_1  and  C_7
REMARK    2  A    between atoms: C_6  and  C_23
REMARK    3  A    between atoms: C_8  and  C_13
REMARK    4  A    between atoms: C_9  and  O_19
REMARK    5  A    between atoms: N_22  and  C_25
REMARK    6  A    between atoms: C_25  and  C_26
REMARK    7  A    between atoms: C_26  and  C_27
REMARK    8  A    between atoms: C_27  and  C_29
REMARK    9  A    between atoms: C_29  and  O_30
REMARK                            x       y       z     vdW  Elec       q    Type
REMARK                         _______ _______ _______ _____ _____    ______ ____
ROOT
ATOM      1  C   UNL     1      35.311 -21.984 -17.514  0.00  0.00    -0.020 C 
ATOM      2  C   UNL     1      34.300 -22.906 -17.261  0.00  0.00    -0.004 C 
ATOM      3  C   UNL     1      36.510 -22.040 -16.811  0.00  0.00    -0.004 C 
ATOM      4  C   UNL     1      34.491 -23.895 -16.295  0.00  0.00    +0.004 C 
ATOM      5  C   UNL     1      36.701 -23.028 -15.845  0.00  0.00    +0.004 C 
ATOM      6  C   UNL     1      35.692 -23.956 -15.587  0.00  0.00    +0.053 C 
ENDROOT
BRANCH   1   7
ATOM      7  C   UNL     1      35.103 -20.907 -18.569  0.00  0.00    +0.049 C 
ATOM      8  C   UNL     1      35.035 -19.941 -21.381  0.00  0.00    +0.025 C 
ATOM      9  C   UNL     1      33.906 -21.213 -19.493  0.00  0.00    +0.115 C 
ATOM     10  C   UNL     1      33.743 -20.141 -20.575  0.00  0.00    +0.034 C 
ATOM     11  C   UNL     1      36.392 -20.683 -19.379  0.00  0.00    +0.007 C 
ATOM     12  C   UNL     1      36.211 -19.607 -20.448  0.00  0.00    +0.005 C 
BRANCH   8  13
ATOM     13  C   UNL     1      34.866 -18.898 -22.470  0.00  0.00    -0.022 C 
ATOM     14  C   UNL     1      35.336 -17.601 -22.269  0.00  0.00    -0.004 C 
ATOM     15  C   UNL     1      34.240 -19.239 -23.668  0.00  0.00    -0.004 C 
ATOM     16  C   UNL     1      35.180 -16.642 -23.270  0.00  0.00    -0.000 C 
ATOM     17  C   UNL     1      34.084 -18.280 -24.668  0.00  0.00    -0.000 C 
ATOM     18  C   UNL     1      34.553 -16.982 -24.469  0.00  0.00    -0.000 C 
ENDBRANCH   8  13
BRANCH   9  19
ATOM     19  O   UNL     1      32.712 -21.247 -18.710  0.00  0.00    -0.384 OA
ATOM     20  H   UNL     1      32.143 -20.500 -18.955  0.00  0.00    +0.210 HD
ENDBRANCH   9  19
ENDBRANCH   1   7
BRANCH   6  23
ATOM     21  O   UNL     1      35.698 -26.183 -14.853  0.00  0.00    -0.270 OA
ATOM     22  N   UNL     1      36.323 -24.562 -13.317  0.00  0.00    -0.301 N 
ATOM     23  C   UNL     1      35.890 -24.985 -14.579  0.00  0.00    +0.246 C 
ATOM     24  H   UNL     1      36.455 -23.598 -13.168  0.00  0.00    +0.150 HD
BRANCH  22  25
ATOM     25  C   UNL     1      36.586 -25.465 -12.219  0.00  0.00    +0.090 C 
BRANCH  25  26
ATOM     26  C   UNL     1      37.949 -26.149 -12.329  0.00  0.00    +0.033 C 
BRANCH  26  27
ATOM     27  C   UNL     1      39.068 -25.235 -12.834  0.00  0.00    +0.111 C 
BRANCH  27  29
ATOM     28  O   UNL     1      40.931 -25.787 -14.303  0.00  0.00    -0.250 OA
ATOM     29  C   UNL     1      39.727 -25.742 -14.099  0.00  0.00    +0.314 C 
BRANCH  29  30
ATOM     30  O   UNL     1      38.806 -26.176 -14.999  0.00  0.00    -0.480 OA
ATOM     31  H   UNL     1      38.766 -25.790 -15.852  0.00  0.00    +0.295 HD
ENDBRANCH  29  30
ENDBRANCH  27  29
ENDBRANCH  26  27
ENDBRANCH  25  26
ENDBRANCH  22  25
ENDBRANCH   6  23
TORSDOF 9
ENDMDL
MODEL 9
REMARK VINA RESULT:     -10.1      4.586     13.051
REMARK  Name = 444394
REMARK  9 active torsions:
REMARK  status: ('A' for Active; 'I' for Inactive)
REMARK    1  A    between atoms: C_1  and  C_7
REMARK    2  A    between atoms: C_6  and  C_23
REMARK    3  A    between atoms: C_8  and  C_13
REMARK    4  A    between atoms: C_9  and  O_19
REMARK    5  A    between atoms: N_22  and  C_25
REMARK    6  A    between atoms: C_25  and  C_26
REMARK    7  A    between atoms: C_26  and  C_27
REMARK    8  A    between atoms: C_27  and  C_29
REMARK    9  A    between atoms: C_29  and  O_30
REMARK                            x       y       z     vdW  Elec       q    Type
REMARK                         _______ _______ _______ _____ _____    ______ ____
ROOT
ATOM      1  C   UNL     1      35.800 -21.001 -19.122  0.00  0.00    -0.020 C 
ATOM      2  C   UNL     1      34.515 -20.921 -19.652  0.00  0.00    -0.004 C 
ATOM      3  C   UNL     1      36.835 -20.244 -19.663  0.00  0.00    -0.004 C 
ATOM      4  C   UNL     1      34.263 -20.076 -20.732  0.00  0.00    +0.004 C 
ATOM      5  C   UNL     1      36.583 -19.399 -20.744  0.00  0.00    +0.004 C 
ATOM      6  C   UNL     1      35.298 -19.315 -21.278  0.00  0.00    +0.053 C 
ENDROOT
BRANCH   1   7
ATOM      7  C   UNL     1      36.074 -21.922 -17.942  0.00  0.00    +0.049 C 
ATOM      8  C   UNL     1      35.948 -22.626 -15.055  0.00  0.00    +0.025 C 
ATOM      9  C   UNL     1      34.777 -22.461 -17.304  0.00  0.00    +0.115 C 
ATOM     10  C   UNL     1      35.074 -23.348 -16.090  0.00  0.00    +0.034 C 
ATOM     11  C   UNL     1      36.961 -21.220 -16.899  0.00  0.00    +0.007 C 
ATOM     12  C   UNL     1      37.250 -22.122 -15.700  0.00  0.00    +0.005 C 
BRANCH   8  13
ATOM     13  C   UNL     1      36.221 -23.495 -13.841  0.00  0.00    -0.022 C 
ATOM     14  C   UNL     1      35.170 -23.877 -13.010  0.00  0.00    -0.004 C 
ATOM     15  C   UNL     1      37.523 -23.906 -13.560  0.00  0.00    -0.004 C 
ATOM     16  C   UNL     1      35.421 -24.675 -11.893  0.00  0.00    -0.000 C 
ATOM     17  C   UNL     1      37.774 -24.704 -12.444  0.00  0.00    -0.000 C 
ATOM     18  C   UNL     1      36.723 -25.088 -11.610  0.00  0.00    -0.000 C 
ENDBRANCH   8  13
BRANCH   9  19
ATOM     19  O   UNL     1      34.074 -23.243 -18.271  0.00  0.00    -0.384 OA
ATOM     20  H   UNL     1      33.611 -23.969 -17.824  0.00  0.00    +0.210 HD
ENDBRANCH   9  19
ENDBRANCH   1   7
BRANCH   6  23
ATOM     21  O   UNL     1      34.573 -18.890 -23.468  0.00  0.00    -0.270 OA
ATOM     22  N   UNL     1      35.305 -17.073 -22.226  0.00  0.00    -0.301 N 
ATOM     23  C   UNL     1      35.036 -18.435 -22.406  0.00  0.00    +0.246 C 
ATOM     24  H   UNL     1      35.671 -16.782 -21.359  0.00  0.00    +0.150 HD
BRANCH  22  25
ATOM     25  C   UNL     1      35.076 -16.072 -23.243  0.00  0.00    +0.090 C 
BRANCH  25  26
ATOM     26  C   UNL     1      34.645 -14.726 -22.662  0.00  0.00    +0.033 C 
BRANCH  26  27
ATOM     27  C   UNL     1      33.685 -13.938 -23.557  0.00  0.00    +0.111 C 
BRANCH  27  29
ATOM     28  O   UNL     1      32.658 -12.051 -22.408  0.00  0.00    -0.250 OA
ATOM     29  C   UNL     1      33.532 -12.491 -23.141  0.00  0.00    +0.314 C 
BRANCH  29  30
ATOM     30  O   UNL     1      34.517 -11.716 -23.667  0.00  0.00    -0.480 OA
ATOM     31  H   UNL     1      34.626 -10.834 -23.374  0.00  0.00    +0.295 HD
ENDBRANCH  29  30
ENDBRANCH  27  29
ENDBRANCH  26  27
ENDBRANCH  25  26
ENDBRANCH  22  25
ENDBRANCH   6  23
TORSDOF 9
ENDMDL
