MODEL 1
REMARK VINA RESULT:     -11.4      0.000      0.000
REMARK  Name = 6419789
REMARK  3 active torsions:
REMARK  status: ('A' for Active; 'I' for Inactive)
REMARK    1  A    between atoms: N_4  and  C_13
REMARK    2  A    between atoms: C_5  and  C_19
REMARK    3  A    between atoms: C_22  and  N_25
REMARK                            x       y       z     vdW  Elec       q    Type
REMARK                         _______ _______ _______ _____ _____    ______ ____
ROOT
ATOM      1  N   UNL     1      36.193 -23.143 -14.169  0.00  0.00    -0.164 N 
ATOM      2  N   UNL     1      35.098 -22.777 -16.279  0.00  0.00    -0.374 NA
ATOM      3  N   UNL     1      35.913 -23.537 -12.900  0.00  0.00    -0.174 NA
ATOM      4  N   UNL     1      36.344 -22.055 -18.106  0.00  0.00    -0.288 N 
ATOM      5  C   UNL     1      34.016 -23.551 -14.160  0.00  0.00    +0.134 C 
ATOM      6  C   UNL     1      35.053 -23.140 -14.967  0.00  0.00    +0.194 C 
ATOM      7  C   UNL     1      34.602 -23.780 -12.909  0.00  0.00    +0.104 C 
ATOM      8  C   UNL     1      36.260 -22.425 -16.782  0.00  0.00    +0.186 C 
ATOM      9  C   UNL     1      37.424 -22.772 -14.692  0.00  0.00    +0.096 C 
ATOM     10  C   UNL     1      37.529 -22.406 -15.972  0.00  0.00    +0.066 C 
ATOM     11  H   UNL     1      37.197 -22.235 -18.563  0.00  0.00    +0.155 HD
ENDROOT
BRANCH   4  13
ATOM     12 CL   UNL     1      35.077 -18.750 -21.821  0.00  0.00    -0.082 Cl
ATOM     13  C   UNL     1      35.345 -21.452 -18.864  0.00  0.00    +0.051 C 
ATOM     14  C   UNL     1      35.667 -20.507 -19.853  0.00  0.00    +0.026 C 
ATOM     15  C   UNL     1      33.995 -21.775 -18.656  0.00  0.00    +0.015 C 
ATOM     16  C   UNL     1      34.664 -19.904 -20.613  0.00  0.00    +0.059 C 
ATOM     17  C   UNL     1      32.993 -21.171 -19.415  0.00  0.00    +0.002 C 
ATOM     18  C   UNL     1      33.327 -20.235 -20.394  0.00  0.00    +0.011 C 
ENDBRANCH   4  13
BRANCH   5  19
ATOM     19  C   UNL     1      32.658 -23.686 -14.593  0.00  0.00    -0.008 C 
ATOM     20  C   UNL     1      31.813 -24.613 -13.978  0.00  0.00    +0.011 C 
ATOM     21  C   UNL     1      32.172 -22.891 -15.634  0.00  0.00    -0.003 C 
ATOM     22  C   UNL     1      30.490 -24.745 -14.401  0.00  0.00    +0.041 C 
ATOM     23  C   UNL     1      30.849 -23.023 -16.057  0.00  0.00    +0.001 C 
ATOM     24  C   UNL     1      30.009 -23.950 -15.441  0.00  0.00    +0.014 C 
BRANCH  22  25
ATOM     25  N   UNL     1      29.640 -25.683 -13.778  0.00  0.00    -0.357 N 
ATOM     26  H   UNL     1      29.924 -26.621 -13.691  0.00  0.00    +0.142 HD
ATOM     27  H   UNL     1      28.764 -25.398 -13.433  0.00  0.00    +0.142 HD
ENDBRANCH  22  25
ENDBRANCH   5  19
TORSDOF 3
ENDMDL
MODEL 2
REMARK VINA RESULT:     -10.7      2.332      5.901
REMARK  Name = 6419789
REMARK  3 active torsions:
REMARK  status: ('A' for Active; 'I' for Inactive)
REMARK    1  A    between atoms: N_4  and  C_13
REMARK    2  A    between atoms: C_5  and  C_19
REMARK    3  A    between atoms: C_22  and  N_25
REMARK                            x       y       z     vdW  Elec       q    Type
REMARK                         _______ _______ _______ _____ _____    ______ ____
ROOT
ATOM      1  N   UNL     1      36.644 -23.340 -13.833  0.00  0.00    -0.164 N 
ATOM      2  N   UNL     1      34.304 -23.201 -14.366  0.00  0.00    -0.374 NA
ATOM      3  N   UNL     1      37.861 -23.146 -14.405  0.00  0.00    -0.174 NA
ATOM      4  N   UNL     1      32.726 -23.727 -12.740  0.00  0.00    -0.288 N 
ATOM      5  C   UNL     1      36.209 -22.696 -15.907  0.00  0.00    +0.134 C 
ATOM      6  C   UNL     1      35.611 -23.073 -14.726  0.00  0.00    +0.194 C 
ATOM      7  C   UNL     1      37.584 -22.758 -15.651  0.00  0.00    +0.104 C 
ATOM      8  C   UNL     1      34.036 -23.589 -13.139  0.00  0.00    +0.186 C 
ATOM      9  C   UNL     1      36.372 -23.750 -12.536  0.00  0.00    +0.096 C 
ATOM     10  C   UNL     1      35.108 -23.894 -12.127  0.00  0.00    +0.066 C 
ATOM     11  H   UNL     1      32.533 -23.567 -11.788  0.00  0.00    +0.155 HD
ENDROOT
BRANCH   4  13
ATOM     12 CL   UNL     1      29.192 -22.265 -16.161  0.00  0.00    -0.082 Cl
ATOM     13  C   UNL     1      31.645 -24.070 -13.546  0.00  0.00    +0.051 C 
ATOM     14  C   UNL     1      31.023 -23.109 -14.361  0.00  0.00    +0.026 C 
ATOM     15  C   UNL     1      31.152 -25.385 -13.561  0.00  0.00    +0.015 C 
ATOM     16  C   UNL     1      29.940 -23.455 -15.169  0.00  0.00    +0.059 C 
ATOM     17  C   UNL     1      30.069 -25.730 -14.369  0.00  0.00    +0.002 C 
ATOM     18  C   UNL     1      29.462 -24.766 -15.173  0.00  0.00    +0.011 C 
ENDBRANCH   4  13
BRANCH   5  19
ATOM     19  C   UNL     1      35.497 -22.332 -17.095  0.00  0.00    -0.008 C 
ATOM     20  C   UNL     1      36.110 -21.540 -18.068  0.00  0.00    +0.011 C 
ATOM     21  C   UNL     1      34.184 -22.770 -17.286  0.00  0.00    -0.003 C 
ATOM     22  C   UNL     1      35.415 -21.186 -19.225  0.00  0.00    +0.041 C 
ATOM     23  C   UNL     1      33.488 -22.416 -18.442  0.00  0.00    +0.001 C 
ATOM     24  C   UNL     1      34.104 -21.624 -19.412  0.00  0.00    +0.014 C 
BRANCH  22  25
ATOM     25  N   UNL     1      36.037 -20.385 -20.205  0.00  0.00    -0.357 N 
ATOM     26  H   UNL     1      35.969 -19.404 -20.153  0.00  0.00    +0.142 HD
ATOM     27  H   UNL     1      36.537 -20.806 -20.940  0.00  0.00    +0.142 HD
ENDBRANCH  22  25
ENDBRANCH   5  19
TORSDOF 3
ENDMDL
MODEL 3
REMARK VINA RESULT:     -10.6      3.246      5.826
REMARK  Name = 6419789
REMARK  3 active torsions:
REMARK  status: ('A' for Active; 'I' for Inactive)
REMARK    1  A    between atoms: N_4  and  C_13
REMARK    2  A    between atoms: C_5  and  C_19
REMARK    3  A    between atoms: C_22  and  N_25
REMARK                            x       y       z     vdW  Elec       q    Type
REMARK                         _______ _______ _______ _____ _____    ______ ____
ROOT
ATOM      1  N   UNL     1      34.968 -22.211 -17.613  0.00  0.00    -0.164 N 
ATOM      2  N   UNL     1      35.383 -22.985 -15.374  0.00  0.00    -0.374 NA
ATOM      3  N   UNL     1      33.953 -22.091 -18.507  0.00  0.00    -0.174 NA
ATOM      4  N   UNL     1      37.532 -22.845 -14.494  0.00  0.00    -0.288 N 
ATOM      5  C   UNL     1      33.185 -23.011 -16.570  0.00  0.00    +0.134 C 
ATOM      6  C   UNL     1      34.532 -22.771 -16.416  0.00  0.00    +0.194 C 
ATOM      7  C   UNL     1      32.888 -22.575 -17.867  0.00  0.00    +0.104 C 
ATOM      8  C   UNL     1      36.643 -22.646 -15.527  0.00  0.00    +0.186 C 
ATOM      9  C   UNL     1      36.297 -21.851 -17.784  0.00  0.00    +0.096 C 
ATOM     10  C   UNL     1      37.177 -22.037 -16.796  0.00  0.00    +0.066 C 
ATOM     11  H   UNL     1      38.289 -22.219 -14.434  0.00  0.00    +0.155 HD
ENDROOT
BRANCH   4  13
ATOM     12 CL   UNL     1      35.807 -24.377  -9.910  0.00  0.00    -0.082 Cl
ATOM     13  C   UNL     1      37.468 -23.842 -13.526  0.00  0.00    +0.051 C 
ATOM     14  C   UNL     1      36.753 -23.641 -12.333  0.00  0.00    +0.026 C 
ATOM     15  C   UNL     1      38.118 -25.072 -13.721  0.00  0.00    +0.015 C 
ATOM     16  C   UNL     1      36.689 -24.642 -11.364  0.00  0.00    +0.059 C 
ATOM     17  C   UNL     1      38.055 -26.072 -12.751  0.00  0.00    +0.002 C 
ATOM     18  C   UNL     1      37.341 -25.858 -11.572  0.00  0.00    +0.011 C 
ENDBRANCH   4  13
BRANCH   5  19
ATOM     19  C   UNL     1      32.346 -23.587 -15.563  0.00  0.00    -0.008 C 
ATOM     20  C   UNL     1      30.959 -23.602 -15.728  0.00  0.00    +0.011 C 
ATOM     21  C   UNL     1      32.911 -24.138 -14.410  0.00  0.00    -0.003 C 
ATOM     22  C   UNL     1      30.141 -24.163 -14.747  0.00  0.00    +0.041 C 
ATOM     23  C   UNL     1      32.094 -24.699 -13.428  0.00  0.00    +0.001 C 
ATOM     24  C   UNL     1      30.710 -24.711 -13.597  0.00  0.00    +0.014 C 
BRANCH  22  25
ATOM     25  N   UNL     1      28.741 -24.176 -14.917  0.00  0.00    -0.357 N 
ATOM     26  H   UNL     1      28.330 -23.662 -15.649  0.00  0.00    +0.142 HD
ATOM     27  H   UNL     1      28.176 -24.698 -14.302  0.00  0.00    +0.142 HD
ENDBRANCH  22  25
ENDBRANCH   5  19
TORSDOF 3
ENDMDL
MODEL 4
REMARK VINA RESULT:     -10.1      3.108      6.950
REMARK  Name = 6419789
REMARK  3 active torsions:
REMARK  status: ('A' for Active; 'I' for Inactive)
REMARK    1  A    between atoms: N_4  and  C_13
REMARK    2  A    between atoms: C_5  and  C_19
REMARK    3  A    between atoms: C_22  and  N_25
REMARK                            x       y       z     vdW  Elec       q    Type
REMARK                         _______ _______ _______ _____ _____    ______ ____
ROOT
ATOM      1  N   UNL     1      31.466 -23.715 -15.027  0.00  0.00    -0.164 N 
ATOM      2  N   UNL     1      33.766 -24.036 -14.405  0.00  0.00    -0.374 NA
ATOM      3  N   UNL     1      30.717 -23.164 -16.018  0.00  0.00    -0.174 NA
ATOM      4  N   UNL     1      34.272 -25.153 -12.428  0.00  0.00    -0.288 N 
ATOM      5  C   UNL     1      32.933 -22.881 -16.462  0.00  0.00    +0.134 C 
ATOM      6  C   UNL     1      32.827 -23.559 -15.268  0.00  0.00    +0.194 C 
ATOM      7  C   UNL     1      31.612 -22.667 -16.872  0.00  0.00    +0.104 C 
ATOM      8  C   UNL     1      33.351 -24.655 -13.322  0.00  0.00    +0.186 C 
ATOM      9  C   UNL     1      31.018 -24.367 -13.887  0.00  0.00    +0.096 C 
ATOM     10  C   UNL     1      31.893 -24.855 -13.004  0.00  0.00    +0.066 C 
ATOM     11  H   UNL     1      34.006 -25.951 -11.916  0.00  0.00    +0.155 HD
ENDROOT
BRANCH   4  13
ATOM     12 CL   UNL     1      39.335 -25.441 -13.208  0.00  0.00    -0.082 Cl
ATOM     13  C   UNL     1      35.540 -24.641 -12.172  0.00  0.00    +0.051 C 
ATOM     14  C   UNL     1      36.680 -25.226 -12.748  0.00  0.00    +0.026 C 
ATOM     15  C   UNL     1      35.707 -23.528 -11.332  0.00  0.00    +0.015 C 
ATOM     16  C   UNL     1      37.951 -24.711 -12.492  0.00  0.00    +0.059 C 
ATOM     17  C   UNL     1      36.978 -23.015 -11.075  0.00  0.00    +0.002 C 
ATOM     18  C   UNL     1      38.100 -23.606 -11.654  0.00  0.00    +0.011 C 
ENDBRANCH   4  13
BRANCH   5  19
ATOM     19  C   UNL     1      34.173 -22.514 -17.077  0.00  0.00    -0.008 C 
ATOM     20  C   UNL     1      35.337 -22.423 -16.312  0.00  0.00    +0.011 C 
ATOM     21  C   UNL     1      34.222 -22.246 -18.447  0.00  0.00    -0.003 C 
ATOM     22  C   UNL     1      36.545 -22.065 -16.912  0.00  0.00    +0.041 C 
ATOM     23  C   UNL     1      35.429 -21.888 -19.048  0.00  0.00    +0.001 C 
ATOM     24  C   UNL     1      36.590 -21.798 -18.281  0.00  0.00    +0.014 C 
BRANCH  22  25
ATOM     25  N   UNL     1      37.719 -21.973 -16.137  0.00  0.00    -0.357 N 
ATOM     26  H   UNL     1      37.679 -21.605 -15.225  0.00  0.00    +0.142 HD
ATOM     27  H   UNL     1      38.579 -22.276 -16.508  0.00  0.00    +0.142 HD
ENDBRANCH  22  25
ENDBRANCH   5  19
TORSDOF 3
ENDMDL
MODEL 5
REMARK VINA RESULT:     -10.1      3.112      5.519
REMARK  Name = 6419789
REMARK  3 active torsions:
REMARK  status: ('A' for Active; 'I' for Inactive)
REMARK    1  A    between atoms: N_4  and  C_13
REMARK    2  A    between atoms: C_5  and  C_19
REMARK    3  A    between atoms: C_22  and  N_25
REMARK                            x       y       z     vdW  Elec       q    Type
REMARK                         _______ _______ _______ _____ _____    ______ ____
ROOT
ATOM      1  N   UNL     1      34.360 -22.217 -17.907  0.00  0.00    -0.164 N 
ATOM      2  N   UNL     1      35.389 -22.992 -15.878  0.00  0.00    -0.374 NA
ATOM      3  N   UNL     1      33.142 -22.152 -18.504  0.00  0.00    -0.174 NA
ATOM      4  N   UNL     1      37.681 -22.723 -15.579  0.00  0.00    -0.288 N 
ATOM      5  C   UNL     1      32.962 -23.148 -16.463  0.00  0.00    +0.134 C 
ATOM      6  C   UNL     1      34.286 -22.821 -16.657  0.00  0.00    +0.194 C 
ATOM      7  C   UNL     1      32.312 -22.714 -17.625  0.00  0.00    +0.104 C 
ATOM      8  C   UNL     1      36.544 -22.568 -16.341  0.00  0.00    +0.186 C 
ATOM      9  C   UNL     1      35.575 -21.766 -18.406  0.00  0.00    +0.096 C 
ATOM     10  C   UNL     1      36.691 -21.908 -17.686  0.00  0.00    +0.066 C 
ATOM     11  H   UNL     1      38.389 -22.049 -15.699  0.00  0.00    +0.155 HD
ENDROOT
BRANCH   4  13
ATOM     12 CL   UNL     1      40.746 -26.520 -13.994  0.00  0.00    -0.082 Cl
ATOM     13  C   UNL     1      37.932 -23.735 -14.659  0.00  0.00    +0.051 C 
ATOM     14  C   UNL     1      39.082 -24.536 -14.768  0.00  0.00    +0.026 C 
ATOM     15  C   UNL     1      37.042 -23.977 -13.601  0.00  0.00    +0.015 C 
ATOM     16  C   UNL     1      39.333 -25.550 -13.844  0.00  0.00    +0.059 C 
ATOM     17  C   UNL     1      37.293 -24.992 -12.677  0.00  0.00    +0.002 C 
ATOM     18  C   UNL     1      38.438 -25.779 -12.798  0.00  0.00    +0.011 C 
ENDBRANCH   4  13
BRANCH   5  19
ATOM     19  C   UNL     1      32.450 -23.792 -15.292  0.00  0.00    -0.008 C 
ATOM     20  C   UNL     1      31.123 -24.225 -15.252  0.00  0.00    +0.011 C 
ATOM     21  C   UNL     1      33.277 -23.991 -14.184  0.00  0.00    -0.003 C 
ATOM     22  C   UNL     1      30.624 -24.853 -14.110  0.00  0.00    +0.041 C 
ATOM     23  C   UNL     1      32.779 -24.618 -13.041  0.00  0.00    +0.001 C 
ATOM     24  C   UNL     1      31.453 -25.049 -13.004  0.00  0.00    +0.014 C 
BRANCH  22  25
ATOM     25  N   UNL     1      29.284 -25.289 -14.072  0.00  0.00    -0.357 N 
ATOM     26  H   UNL     1      28.785 -25.417 -14.910  0.00  0.00    +0.142 HD
ATOM     27  H   UNL     1      28.848 -25.463 -13.207  0.00  0.00    +0.142 HD
ENDBRANCH  22  25
ENDBRANCH   5  19
TORSDOF 3
ENDMDL
MODEL 6
REMARK VINA RESULT:     -10.0      1.503      4.633
REMARK  Name = 6419789
REMARK  3 active torsions:
REMARK  status: ('A' for Active; 'I' for Inactive)
REMARK    1  A    between atoms: N_4  and  C_13
REMARK    2  A    between atoms: C_5  and  C_19
REMARK    3  A    between atoms: C_22  and  N_25
REMARK                            x       y       z     vdW  Elec       q    Type
REMARK                         _______ _______ _______ _____ _____    ______ ____
ROOT
ATOM      1  N   UNL     1      31.231 -24.480 -14.481  0.00  0.00    -0.164 N 
ATOM      2  N   UNL     1      32.710 -23.061 -15.737  0.00  0.00    -0.374 NA
ATOM      3  N   UNL     1      31.225 -25.267 -13.374  0.00  0.00    -0.174 NA
ATOM      4  N   UNL     1      31.924 -21.988 -17.645  0.00  0.00    -0.288 N 
ATOM      5  C   UNL     1      33.281 -24.329 -13.657  0.00  0.00    +0.134 C 
ATOM      6  C   UNL     1      32.475 -23.891 -14.683  0.00  0.00    +0.194 C 
ATOM      7  C   UNL     1      32.462 -25.166 -12.889  0.00  0.00    +0.104 C 
ATOM      8  C   UNL     1      31.722 -22.825 -16.570  0.00  0.00    +0.186 C 
ATOM      9  C   UNL     1      30.181 -24.238 -15.357  0.00  0.00    +0.096 C 
ATOM     10  C   UNL     1      30.354 -23.432 -16.408  0.00  0.00    +0.066 C 
ATOM     11  H   UNL     1      31.142 -21.482 -17.965  0.00  0.00    +0.155 HD
ENDROOT
BRANCH   4  13
ATOM     12 CL   UNL     1      34.431 -19.657 -21.467  0.00  0.00    -0.082 Cl
ATOM     13  C   UNL     1      33.119 -21.786 -18.327  0.00  0.00    +0.051 C 
ATOM     14  C   UNL     1      33.178 -20.922 -19.433  0.00  0.00    +0.026 C 
ATOM     15  C   UNL     1      34.293 -22.442 -17.923  0.00  0.00    +0.015 C 
ATOM     16  C   UNL     1      34.378 -20.720 -20.115  0.00  0.00    +0.059 C 
ATOM     17  C   UNL     1      35.493 -22.240 -18.606  0.00  0.00    +0.002 C 
ATOM     18  C   UNL     1      35.536 -21.379 -19.701  0.00  0.00    +0.011 C 
ENDBRANCH   4  13
BRANCH   5  19
ATOM     19  C   UNL     1      34.653 -23.956 -13.490  0.00  0.00    -0.008 C 
ATOM     20  C   UNL     1      35.473 -23.772 -14.606  0.00  0.00    +0.011 C 
ATOM     21  C   UNL     1      35.178 -23.774 -12.208  0.00  0.00    -0.003 C 
ATOM     22  C   UNL     1      36.810 -23.409 -14.442  0.00  0.00    +0.041 C 
ATOM     23  C   UNL     1      36.515 -23.411 -12.044  0.00  0.00    +0.001 C 
ATOM     24  C   UNL     1      37.331 -23.229 -13.160  0.00  0.00    +0.014 C 
BRANCH  22  25
ATOM     25  N   UNL     1      37.635 -23.225 -15.571  0.00  0.00    -0.357 N 
ATOM     26  H   UNL     1      37.376 -22.581 -16.269  0.00  0.00    +0.142 HD
ATOM     27  H   UNL     1      38.468 -23.741 -15.660  0.00  0.00    +0.142 HD
ENDBRANCH  22  25
ENDBRANCH   5  19
TORSDOF 3
ENDMDL
MODEL 7
REMARK VINA RESULT:      -9.1      3.101      6.671
REMARK  Name = 6419789
REMARK  3 active torsions:
REMARK  status: ('A' for Active; 'I' for Inactive)
REMARK    1  A    between atoms: N_4  and  C_13
REMARK    2  A    between atoms: C_5  and  C_19
REMARK    3  A    between atoms: C_22  and  N_25
REMARK                            x       y       z     vdW  Elec       q    Type
REMARK                         _______ _______ _______ _____ _____    ______ ____
ROOT
ATOM      1  N   UNL     1      30.589 -23.618 -14.788  0.00  0.00    -0.164 N 
ATOM      2  N   UNL     1      32.957 -24.033 -14.847  0.00  0.00    -0.374 NA
ATOM      3  N   UNL     1      29.619 -22.990 -15.503  0.00  0.00    -0.174 NA
ATOM      4  N   UNL     1      33.944 -25.277 -13.147  0.00  0.00    -0.288 N 
ATOM      5  C   UNL     1      31.636 -22.737 -16.531  0.00  0.00    +0.134 C 
ATOM      6  C   UNL     1      31.836 -23.482 -15.390  0.00  0.00    +0.194 C 
ATOM      7  C   UNL     1      30.262 -22.466 -16.547  0.00  0.00    +0.104 C 
ATOM      8  C   UNL     1      32.832 -24.705 -13.724  0.00  0.00    +0.186 C 
ATOM      9  C   UNL     1      30.448 -24.325 -13.602  0.00  0.00    +0.096 C 
ATOM     10  C   UNL     1      31.512 -24.887 -13.023  0.00  0.00    +0.066 C 
ATOM     11  H   UNL     1      33.798 -26.098 -12.623  0.00  0.00    +0.155 HD
ENDROOT
BRANCH   4  13
ATOM     12 CL   UNL     1      37.722 -22.482 -11.089  0.00  0.00    -0.082 Cl
ATOM     13  C   UNL     1      35.253 -24.814 -13.229  0.00  0.00    +0.051 C 
ATOM     14  C   UNL     1      35.780 -23.973 -12.234  0.00  0.00    +0.026 C 
ATOM     15  C   UNL     1      36.075 -25.178 -14.308  0.00  0.00    +0.015 C 
ATOM     16  C   UNL     1      37.094 -23.510 -12.317  0.00  0.00    +0.059 C 
ATOM     17  C   UNL     1      37.388 -24.714 -14.390  0.00  0.00    +0.002 C 
ATOM     18  C   UNL     1      37.898 -23.880 -13.395  0.00  0.00    +0.011 C 
ENDBRANCH   4  13
BRANCH   5  19
ATOM     19  C   UNL     1      32.671 -22.366 -17.448  0.00  0.00    -0.008 C 
ATOM     20  C   UNL     1      32.389 -21.518 -18.520  0.00  0.00    +0.011 C 
ATOM     21  C   UNL     1      33.969 -22.852 -17.272  0.00  0.00    -0.003 C 
ATOM     22  C   UNL     1      33.398 -21.157 -19.414  0.00  0.00    +0.041 C 
ATOM     23  C   UNL     1      34.979 -22.492 -18.165  0.00  0.00    +0.001 C 
ATOM     24  C   UNL     1      34.693 -21.644 -19.236  0.00  0.00    +0.014 C 
BRANCH  22  25
ATOM     25  N   UNL     1      33.110 -20.300 -20.496  0.00  0.00    -0.357 N 
ATOM     26  H   UNL     1      33.641 -20.357 -21.323  0.00  0.00    +0.142 HD
ATOM     27  H   UNL     1      32.379 -19.645 -20.424  0.00  0.00    +0.142 HD
ENDBRANCH  22  25
ENDBRANCH   5  19
TORSDOF 3
ENDMDL
MODEL 8
REMARK VINA RESULT:      -9.0      2.128      4.749
REMARK  Name = 6419789
REMARK  3 active torsions:
REMARK  status: ('A' for Active; 'I' for Inactive)
REMARK    1  A    between atoms: N_4  and  C_13
REMARK    2  A    between atoms: C_5  and  C_19
REMARK    3  A    between atoms: C_22  and  N_25
REMARK                            x       y       z     vdW  Elec       q    Type
REMARK                         _______ _______ _______ _____ _____    ______ ____
ROOT
ATOM      1  N   UNL     1      31.152 -24.555 -14.435  0.00  0.00    -0.164 N 
ATOM      2  N   UNL     1      32.701 -23.133 -15.603  0.00  0.00    -0.374 NA
ATOM      3  N   UNL     1      31.081 -25.336 -13.326  0.00  0.00    -0.174 NA
ATOM      4  N   UNL     1      32.029 -22.074 -17.562  0.00  0.00    -0.288 N 
ATOM      5  C   UNL     1      33.146 -24.389 -13.486  0.00  0.00    +0.134 C 
ATOM      6  C   UNL     1      32.403 -23.960 -14.562  0.00  0.00    +0.194 C 
ATOM      7  C   UNL     1      32.286 -25.226 -12.766  0.00  0.00    +0.104 C 
ATOM      8  C   UNL     1      31.765 -22.906 -16.498  0.00  0.00    +0.186 C 
ATOM      9  C   UNL     1      30.158 -24.322 -15.375  0.00  0.00    +0.096 C 
ATOM     10  C   UNL     1      30.392 -23.520 -16.418  0.00  0.00    +0.066 C 
ATOM     11  H   UNL     1      31.266 -21.573 -17.933  0.00  0.00    +0.155 HD
ENDROOT
BRANCH   4  13
ATOM     12 CL   UNL     1      37.145 -22.269 -17.226  0.00  0.00    -0.082 Cl
ATOM     13  C   UNL     1      33.264 -21.869 -18.169  0.00  0.00    +0.051 C 
ATOM     14  C   UNL     1      34.457 -22.138 -17.478  0.00  0.00    +0.026 C 
ATOM     15  C   UNL     1      33.343 -21.388 -19.487  0.00  0.00    +0.015 C 
ATOM     16  C   UNL     1      35.695 -21.933 -18.088  0.00  0.00    +0.059 C 
ATOM     17  C   UNL     1      34.581 -21.183 -20.096  0.00  0.00    +0.002 C 
ATOM     18  C   UNL     1      35.757 -21.455 -19.398  0.00  0.00    +0.011 C 
ENDBRANCH   4  13
BRANCH   5  19
ATOM     19  C   UNL     1      34.504 -24.007 -13.235  0.00  0.00    -0.008 C 
ATOM     20  C   UNL     1      34.993 -23.969 -11.928  0.00  0.00    +0.011 C 
ATOM     21  C   UNL     1      35.345 -23.671 -14.299  0.00  0.00    -0.003 C 
ATOM     22  C   UNL     1      36.315 -23.597 -11.684  0.00  0.00    +0.041 C 
ATOM     23  C   UNL     1      36.667 -23.299 -14.056  0.00  0.00    +0.001 C 
ATOM     24  C   UNL     1      37.152 -23.261 -12.749  0.00  0.00    +0.014 C 
BRANCH  22  25
ATOM     25  N   UNL     1      36.807 -23.558 -10.363  0.00  0.00    -0.357 N 
ATOM     26  H   UNL     1      36.726 -24.351  -9.785  0.00  0.00    +0.142 HD
ATOM     27  H   UNL     1      37.228 -22.738 -10.019  0.00  0.00    +0.142 HD
ENDBRANCH  22  25
ENDBRANCH   5  19
TORSDOF 3
ENDMDL
MODEL 9
REMARK VINA RESULT:      -9.0     11.714     15.319
REMARK  Name = 6419789
REMARK  3 active torsions:
REMARK  status: ('A' for Active; 'I' for Inactive)
REMARK    1  A    between atoms: N_4  and  C_13
REMARK    2  A    between atoms: C_5  and  C_19
REMARK    3  A    between atoms: C_22  and  N_25
REMARK                            x       y       z     vdW  Elec       q    Type
REMARK                         _______ _______ _______ _____ _____    ______ ____
ROOT
ATOM      1  N   UNL     1      32.041  -8.475 -19.205  0.00  0.00    -0.164 N 
ATOM      2  N   UNL     1      32.374  -9.808 -21.178  0.00  0.00    -0.374 NA
ATOM      3  N   UNL     1      32.260  -7.217 -18.743  0.00  0.00    -0.174 NA
ATOM      4  N   UNL     1      31.680 -12.028 -21.192  0.00  0.00    -0.288 N 
ATOM      5  C   UNL     1      33.014  -7.407 -20.883  0.00  0.00    +0.134 C 
ATOM      6  C   UNL     1      32.491  -8.625 -20.512  0.00  0.00    +0.194 C 
ATOM      7  C   UNL     1      32.844  -6.587 -19.762  0.00  0.00    +0.104 C 
ATOM      8  C   UNL     1      31.818 -10.818 -20.548  0.00  0.00    +0.186 C 
ATOM      9  C   UNL     1      31.453  -9.537 -18.531  0.00  0.00    +0.096 C 
ATOM     10  C   UNL     1      31.311 -10.720 -19.134  0.00  0.00    +0.066 C 
ATOM     11  H   UNL     1      30.914 -12.587 -20.926  0.00  0.00    +0.155 HD
ENDROOT
BRANCH   4  13
ATOM     12 CL   UNL     1      34.787 -15.801 -22.753  0.00  0.00    -0.082 Cl
ATOM     13  C   UNL     1      32.514 -12.543 -22.179  0.00  0.00    +0.051 C 
ATOM     14  C   UNL     1      33.165 -13.775 -21.999  0.00  0.00    +0.026 C 
ATOM     15  C   UNL     1      32.723 -11.840 -23.377  0.00  0.00    +0.015 C 
ATOM     16  C   UNL     1      34.000 -14.290 -22.991  0.00  0.00    +0.059 C 
ATOM     17  C   UNL     1      33.559 -12.356 -24.368  0.00  0.00    +0.002 C 
ATOM     18  C   UNL     1      34.197 -13.580 -24.175  0.00  0.00    +0.011 C 
ENDBRANCH   4  13
BRANCH   5  19
ATOM     19  C   UNL     1      33.589  -7.130 -22.165  0.00  0.00    -0.008 C 
ATOM     20  C   UNL     1      32.792  -6.642 -23.202  0.00  0.00    +0.011 C 
ATOM     21  C   UNL     1      34.952  -7.346 -22.383  0.00  0.00    -0.003 C 
ATOM     22  C   UNL     1      33.353  -6.372 -24.451  0.00  0.00    +0.041 C 
ATOM     23  C   UNL     1      35.514  -7.077 -23.631  0.00  0.00    +0.001 C 
ATOM     24  C   UNL     1      34.714  -6.590 -24.665  0.00  0.00    +0.014 C 
BRANCH  22  25
ATOM     25  N   UNL     1      32.545  -5.879 -25.496  0.00  0.00    -0.357 N 
ATOM     26  H   UNL     1      32.649  -6.236 -26.408  0.00  0.00    +0.142 HD
ATOM     27  H   UNL     1      31.879  -5.178 -25.315  0.00  0.00    +0.142 HD
ENDBRANCH  22  25
ENDBRANCH   5  19
TORSDOF 3
ENDMDL
