MODEL 1
REMARK VINA RESULT:     -11.5      0.000      0.000
REMARK  Name = 11712628
REMARK  7 active torsions:
REMARK  status: ('A' for Active; 'I' for Inactive)
REMARK    1  A    between atoms: C_1  and  C_10
REMARK    2  A    between atoms: C_2  and  C_16
REMARK    3  A    between atoms: C_3  and  C_14
REMARK    4  A    between atoms: C_4  and  S_25
REMARK    5  A    between atoms: C_15  and  C_24
REMARK    6  A    between atoms: S_25  and  C_26
REMARK    7  A    between atoms: C_29  and  N_32
REMARK                            x       y       z     vdW  Elec       q    Type
REMARK                         _______ _______ _______ _____ _____    ______ ____
ROOT
ATOM      1  C   UNL     1      34.164 -14.944 -22.590  0.00  0.00    +0.076 C 
ATOM      2  C   UNL     1      34.208 -14.585 -21.251  0.00  0.00    +0.004 C 
ATOM      3  C   UNL     1      34.621 -16.203 -22.978  0.00  0.00    +0.081 C 
ATOM      4  C   UNL     1      35.118 -17.090 -22.022  0.00  0.00    +0.033 C 
ATOM      5  C   UNL     1      34.700 -15.456 -20.291  0.00  0.00    +0.000 C 
ATOM      6  C   UNL     1      35.157 -16.716 -20.679  0.00  0.00    +0.006 C 
ENDROOT
BRANCH   1  10
ATOM      7  F   UNL     1      33.995 -14.322 -24.894  0.00  0.00    -0.166 F 
ATOM      8  F   UNL     1      32.269 -13.927 -23.639  0.00  0.00    -0.166 F 
ATOM      9  F   UNL     1      34.065 -12.720 -23.426  0.00  0.00    -0.166 F 
ATOM     10  C   UNL     1      33.631 -13.996 -23.621  0.00  0.00    +0.419 C 
ENDBRANCH   1  10
BRANCH   3  14
ATOM     11  F   UNL     1      34.672 -17.926 -24.636  0.00  0.00    -0.166 F 
ATOM     12  F   UNL     1      33.413 -16.207 -25.042  0.00  0.00    -0.166 F 
ATOM     13  F   UNL     1      35.576 -16.017 -25.148  0.00  0.00    -0.166 F 
ATOM     14  C   UNL     1      34.570 -16.583 -24.426  0.00  0.00    +0.419 C 
ENDBRANCH   3  14
BRANCH   2  16
ATOM     15  C   UNL     1      32.479 -13.002 -20.437  0.00  0.00    +0.058 C 
ATOM     16  C   UNL     1      33.733 -13.264 -20.806  0.00  0.00    +0.005 C 
BRANCH  15  24
ATOM     17  O   UNL     1      31.818  -8.580 -22.866  0.00  0.00    -0.350 OA
ATOM     18  O   UNL     1      32.215 -11.358 -18.823  0.00  0.00    -0.270 OA
ATOM     19  N   UNL     1      31.804 -10.710 -21.016  0.00  0.00    -0.271 N 
ATOM     20  C   UNL     1      31.329  -9.381 -20.631  0.00  0.00    +0.126 C 
ATOM     21  C   UNL     1      31.716 -10.969 -22.459  0.00  0.00    +0.126 C 
ATOM     22  C   UNL     1      32.013  -8.313 -21.475  0.00  0.00    +0.164 C 
ATOM     23  C   UNL     1      32.387  -9.841 -23.234  0.00  0.00    +0.164 C 
ATOM     24  C   UNL     1      32.155 -11.622 -20.026  0.00  0.00    +0.249 C 
ENDBRANCH  15  24
ENDBRANCH   2  16
BRANCH   4  25
ATOM     25  S   UNL     1      35.719 -18.716 -22.463  0.00  0.00    -0.087 S 
BRANCH  25  26
ATOM     26  C   UNL     1      34.998 -19.710 -21.167  0.00  0.00    +0.031 C 
ATOM     27  C   UNL     1      35.822 -20.380 -20.265  0.00  0.00    +0.021 C 
ATOM     28  C   UNL     1      33.613 -19.814 -21.063  0.00  0.00    +0.007 C 
ATOM     29  C   UNL     1      35.257 -21.156 -19.254  0.00  0.00    +0.042 C 
ATOM     30  C   UNL     1      33.048 -20.591 -20.051  0.00  0.00    +0.002 C 
ATOM     31  C   UNL     1      33.871 -21.262 -19.147  0.00  0.00    +0.014 C 
BRANCH  29  32
ATOM     32  N   UNL     1      36.088 -21.836 -18.338  0.00  0.00    -0.357 N 
ATOM     33  H   UNL     1      36.975 -21.471 -18.114  0.00  0.00    +0.142 HD
ATOM     34  H   UNL     1      35.781 -22.674 -17.923  0.00  0.00    +0.142 HD
ENDBRANCH  29  32
ENDBRANCH  25  26
ENDBRANCH   4  25
TORSDOF 7
ENDMDL
MODEL 2
REMARK VINA RESULT:     -10.7      4.352      9.546
REMARK  Name = 11712628
REMARK  7 active torsions:
REMARK  status: ('A' for Active; 'I' for Inactive)
REMARK    1  A    between atoms: C_1  and  C_10
REMARK    2  A    between atoms: C_2  and  C_16
REMARK    3  A    between atoms: C_3  and  C_14
REMARK    4  A    between atoms: C_4  and  S_25
REMARK    5  A    between atoms: C_15  and  C_24
REMARK    6  A    between atoms: S_25  and  C_26
REMARK    7  A    between atoms: C_29  and  N_32
REMARK                            x       y       z     vdW  Elec       q    Type
REMARK                         _______ _______ _______ _____ _____    ______ ____
ROOT
ATOM      1  C   UNL     1      32.578 -11.880 -21.535  0.00  0.00    +0.076 C 
ATOM      2  C   UNL     1      33.420 -12.685 -22.287  0.00  0.00    +0.004 C 
ATOM      3  C   UNL     1      32.101 -10.688 -22.080  0.00  0.00    +0.081 C 
ATOM      4  C   UNL     1      32.472 -10.314 -23.372  0.00  0.00    +0.033 C 
ATOM      5  C   UNL     1      33.798 -12.325 -23.572  0.00  0.00    +0.000 C 
ATOM      6  C   UNL     1      33.321 -11.133 -24.118  0.00  0.00    +0.006 C 
ENDROOT
BRANCH   1  10
ATOM      7  F   UNL     1      32.656 -13.496 -19.771  0.00  0.00    -0.166 F 
ATOM      8  F   UNL     1      32.604 -11.405 -19.190  0.00  0.00    -0.166 F 
ATOM      9  F   UNL     1      30.822 -12.351 -20.002  0.00  0.00    -0.166 F 
ATOM     10  C   UNL     1      32.175 -12.277 -20.147  0.00  0.00    +0.419 C 
ENDBRANCH   1  10
BRANCH   3  14
ATOM     11  F   UNL     1      30.048 -10.459 -20.874  0.00  0.00    -0.166 F 
ATOM     12  F   UNL     1      31.764  -9.375 -20.110  0.00  0.00    -0.166 F 
ATOM     13  F   UNL     1      30.787  -8.712 -21.935  0.00  0.00    -0.166 F 
ATOM     14  C   UNL     1      31.190  -9.825 -21.262  0.00  0.00    +0.419 C 
ENDBRANCH   3  14
BRANCH   2  16
ATOM     15  C   UNL     1      34.537 -14.893 -22.475  0.00  0.00    +0.058 C 
ATOM     16  C   UNL     1      33.943 -13.950 -21.743  0.00  0.00    +0.005 C 
BRANCH  15  24
ATOM     17  O   UNL     1      34.786 -19.832 -23.670  0.00  0.00    -0.350 OA
ATOM     18  O   UNL     1      35.226 -16.031 -20.575  0.00  0.00    -0.270 OA
ATOM     19  N   UNL     1      35.146 -17.274 -22.536  0.00  0.00    -0.271 N 
ATOM     20  C   UNL     1      35.746 -18.457 -21.919  0.00  0.00    +0.126 C 
ATOM     21  C   UNL     1      34.890 -17.428 -23.975  0.00  0.00    +0.126 C 
ATOM     22  C   UNL     1      34.927 -19.697 -22.254  0.00  0.00    +0.164 C 
ATOM     23  C   UNL     1      34.101 -18.708 -24.229  0.00  0.00    +0.164 C 
ATOM     24  C   UNL     1      34.998 -16.113 -21.783  0.00  0.00    +0.249 C 
ENDBRANCH  15  24
ENDBRANCH   2  16
BRANCH   4  25
ATOM     25  S   UNL     1      31.892  -8.797 -24.121  0.00  0.00    -0.087 S 
BRANCH  25  26
ATOM     26  C   UNL     1      33.366  -7.793 -24.045  0.00  0.00    +0.031 C 
ATOM     27  C   UNL     1      33.566  -6.780 -24.982  0.00  0.00    +0.021 C 
ATOM     28  C   UNL     1      34.312  -8.024 -23.050  0.00  0.00    +0.007 C 
ATOM     29  C   UNL     1      34.718  -5.997 -24.922  0.00  0.00    +0.042 C 
ATOM     30  C   UNL     1      35.465  -7.240 -22.990  0.00  0.00    +0.002 C 
ATOM     31  C   UNL     1      35.667  -6.227 -23.926  0.00  0.00    +0.014 C 
BRANCH  29  32
ATOM     32  N   UNL     1      34.925  -4.972 -25.868  0.00  0.00    -0.357 N 
ATOM     33  H   UNL     1      35.511  -5.129 -26.644  0.00  0.00    +0.142 HD
ATOM     34  H   UNL     1      34.483  -4.099 -25.754  0.00  0.00    +0.142 HD
ENDBRANCH  29  32
ENDBRANCH  25  26
ENDBRANCH   4  25
TORSDOF 7
ENDMDL
MODEL 3
REMARK VINA RESULT:     -10.6      4.339      9.636
REMARK  Name = 11712628
REMARK  7 active torsions:
REMARK  status: ('A' for Active; 'I' for Inactive)
REMARK    1  A    between atoms: C_1  and  C_10
REMARK    2  A    between atoms: C_2  and  C_16
REMARK    3  A    between atoms: C_3  and  C_14
REMARK    4  A    between atoms: C_4  and  S_25
REMARK    5  A    between atoms: C_15  and  C_24
REMARK    6  A    between atoms: S_25  and  C_26
REMARK    7  A    between atoms: C_29  and  N_32
REMARK                            x       y       z     vdW  Elec       q    Type
REMARK                         _______ _______ _______ _____ _____    ______ ____
ROOT
ATOM      1  C   UNL     1      32.480 -12.116 -21.852  0.00  0.00    +0.076 C 
ATOM      2  C   UNL     1      32.921 -12.413 -23.132  0.00  0.00    +0.004 C 
ATOM      3  C   UNL     1      32.206 -10.791 -21.511  0.00  0.00    +0.081 C 
ATOM      4  C   UNL     1      32.376  -9.779 -22.456  0.00  0.00    +0.033 C 
ATOM      5  C   UNL     1      33.095 -11.416 -24.081  0.00  0.00    +0.000 C 
ATOM      6  C   UNL     1      32.820 -10.092 -23.741  0.00  0.00    +0.006 C 
ENDROOT
BRANCH   1  10
ATOM      7  F   UNL     1      31.165 -13.050 -20.084  0.00  0.00    -0.166 F 
ATOM      8  F   UNL     1      32.208 -14.445 -21.379  0.00  0.00    -0.166 F 
ATOM      9  F   UNL     1      33.326 -13.254 -19.943  0.00  0.00    -0.166 F 
ATOM     10  C   UNL     1      32.295 -13.199 -20.833  0.00  0.00    +0.419 C 
ENDBRANCH   1  10
BRANCH   3  14
ATOM     11  F   UNL     1      32.351 -11.213 -19.161  0.00  0.00    -0.166 F 
ATOM     12  F   UNL     1      31.922  -9.176 -19.770  0.00  0.00    -0.166 F 
ATOM     13  F   UNL     1      30.397 -10.712 -19.971  0.00  0.00    -0.166 F 
ATOM     14  C   UNL     1      31.730 -10.478 -20.126  0.00  0.00    +0.419 C 
ENDBRANCH   3  14
BRANCH   2  16
ATOM     15  C   UNL     1      34.443 -14.332 -23.533  0.00  0.00    +0.058 C 
ATOM     16  C   UNL     1      33.220 -13.801 -23.527  0.00  0.00    +0.005 C 
BRANCH  15  24
ATOM     17  O   UNL     1      35.748 -18.689 -21.253  0.00  0.00    -0.350 OA
ATOM     18  O   UNL     1      34.565 -15.964 -25.177  0.00  0.00    -0.270 OA
ATOM     19  N   UNL     1      34.719 -16.712 -22.983  0.00  0.00    -0.271 N 
ATOM     20  C   UNL     1      34.703 -18.124 -23.366  0.00  0.00    +0.126 C 
ATOM     21  C   UNL     1      34.743 -16.499 -21.529  0.00  0.00    +0.126 C 
ATOM     22  C   UNL     1      35.832 -18.871 -22.668  0.00  0.00    +0.164 C 
ATOM     23  C   UNL     1      35.874 -17.307 -20.903  0.00  0.00    +0.164 C 
ATOM     24  C   UNL     1      34.581 -15.737 -23.966  0.00  0.00    +0.249 C 
ENDBRANCH  15  24
ENDBRANCH   2  16
BRANCH   4  25
ATOM     25  S   UNL     1      32.041  -8.063 -22.074  0.00  0.00    -0.087 S 
BRANCH  25  26
ATOM     26  C   UNL     1      33.234  -7.241 -23.117  0.00  0.00    +0.031 C 
ATOM     27  C   UNL     1      32.815  -6.601 -24.281  0.00  0.00    +0.021 C 
ATOM     28  C   UNL     1      34.581  -7.243 -22.764  0.00  0.00    +0.007 C 
ATOM     29  C   UNL     1      33.747  -5.960 -25.095  0.00  0.00    +0.042 C 
ATOM     30  C   UNL     1      35.515  -6.601 -23.578  0.00  0.00    +0.002 C 
ATOM     31  C   UNL     1      35.097  -5.960 -24.744  0.00  0.00    +0.014 C 
BRANCH  29  32
ATOM     32  N   UNL     1      33.327  -5.310 -26.275  0.00  0.00    -0.357 N 
ATOM     33  H   UNL     1      32.427  -5.481 -26.636  0.00  0.00    +0.142 HD
ATOM     34  H   UNL     1      33.933  -4.686 -26.737  0.00  0.00    +0.142 HD
ENDBRANCH  29  32
ENDBRANCH  25  26
ENDBRANCH   4  25
TORSDOF 7
ENDMDL
MODEL 4
REMARK VINA RESULT:     -10.3      6.220      9.147
REMARK  Name = 11712628
REMARK  7 active torsions:
REMARK  status: ('A' for Active; 'I' for Inactive)
REMARK    1  A    between atoms: C_1  and  C_10
REMARK    2  A    between atoms: C_2  and  C_16
REMARK    3  A    between atoms: C_3  and  C_14
REMARK    4  A    between atoms: C_4  and  S_25
REMARK    5  A    between atoms: C_15  and  C_24
REMARK    6  A    between atoms: S_25  and  C_26
REMARK    7  A    between atoms: C_29  and  N_32
REMARK                            x       y       z     vdW  Elec       q    Type
REMARK                         _______ _______ _______ _____ _____    ______ ____
ROOT
ATOM      1  C   UNL     1      35.436 -22.045 -17.532  0.00  0.00    +0.076 C 
ATOM      2  C   UNL     1      34.428 -21.927 -18.475  0.00  0.00    +0.004 C 
ATOM      3  C   UNL     1      35.156 -22.629 -16.297  0.00  0.00    +0.081 C 
ATOM      4  C   UNL     1      33.868 -23.090 -16.020  0.00  0.00    +0.033 C 
ATOM      5  C   UNL     1      33.143 -22.380 -18.213  0.00  0.00    +0.000 C 
ATOM      6  C   UNL     1      32.862 -22.965 -16.978  0.00  0.00    +0.006 C 
ENDROOT
BRANCH   1  10
ATOM      7  F   UNL     1      37.049 -20.283 -17.382  0.00  0.00    -0.166 F 
ATOM      8  F   UNL     1      37.797 -22.316 -17.253  0.00  0.00    -0.166 F 
ATOM      9  F   UNL     1      37.096 -21.537 -19.158  0.00  0.00    -0.166 F 
ATOM     10  C   UNL     1      36.822 -21.553 -17.824  0.00  0.00    +0.419 C 
ENDBRANCH   1  10
BRANCH   3  14
ATOM     11  F   UNL     1      37.106 -21.693 -15.277  0.00  0.00    -0.166 F 
ATOM     12  F   UNL     1      35.793 -22.857 -14.003  0.00  0.00    -0.166 F 
ATOM     13  F   UNL     1      37.026 -23.855 -15.489  0.00  0.00    -0.166 F 
ATOM     14  C   UNL     1      36.251 -22.754 -15.283  0.00  0.00    +0.419 C 
ENDBRANCH   3  14
BRANCH   2  16
ATOM     15  C   UNL     1      34.437 -20.040 -20.088  0.00  0.00    +0.058 C 
ATOM     16  C   UNL     1      34.689 -21.315 -19.790  0.00  0.00    +0.005 C 
BRANCH  15  24
ATOM     17  O   UNL     1      35.267 -15.514 -22.258  0.00  0.00    -0.350 OA
ATOM     18  O   UNL     1      34.616 -20.391 -22.373  0.00  0.00    -0.270 OA
ATOM     19  N   UNL     1      35.159 -18.261 -21.622  0.00  0.00    -0.271 N 
ATOM     20  C   UNL     1      35.619 -17.814 -22.938  0.00  0.00    +0.126 C 
ATOM     21  C   UNL     1      35.330 -17.252 -20.568  0.00  0.00    +0.126 C 
ATOM     22  C   UNL     1      34.993 -16.470 -23.285  0.00  0.00    +0.164 C 
ATOM     23  C   UNL     1      34.712 -15.929 -21.007  0.00  0.00    +0.164 C 
ATOM     24  C   UNL     1      34.745 -19.578 -21.455  0.00  0.00    +0.249 C 
ENDBRANCH  15  24
ENDBRANCH   2  16
BRANCH   4  25
ATOM     25  S   UNL     1      33.451 -23.846 -14.453  0.00  0.00    -0.087 S 
BRANCH  25  26
ATOM     26  C   UNL     1      31.668 -23.851 -14.539  0.00  0.00    +0.031 C 
ATOM     27  C   UNL     1      30.961 -25.016 -14.253  0.00  0.00    +0.021 C 
ATOM     28  C   UNL     1      30.988 -22.688 -14.895  0.00  0.00    +0.007 C 
ATOM     29  C   UNL     1      29.568 -25.019 -14.321  0.00  0.00    +0.042 C 
ATOM     30  C   UNL     1      29.595 -22.690 -14.963  0.00  0.00    +0.002 C 
ATOM     31  C   UNL     1      28.885 -23.856 -14.676  0.00  0.00    +0.014 C 
BRANCH  29  32
ATOM     32  N   UNL     1      28.849 -26.197 -14.031  0.00  0.00    -0.357 N 
ATOM     33  H   UNL     1      29.331 -27.017 -13.776  0.00  0.00    +0.142 HD
ATOM     34  H   UNL     1      27.866 -26.200 -14.084  0.00  0.00    +0.142 HD
ENDBRANCH  29  32
ENDBRANCH  25  26
ENDBRANCH   4  25
TORSDOF 7
ENDMDL
MODEL 5
REMARK VINA RESULT:     -10.1      7.731     11.013
REMARK  Name = 11712628
REMARK  7 active torsions:
REMARK  status: ('A' for Active; 'I' for Inactive)
REMARK    1  A    between atoms: C_1  and  C_10
REMARK    2  A    between atoms: C_2  and  C_16
REMARK    3  A    between atoms: C_3  and  C_14
REMARK    4  A    between atoms: C_4  and  S_25
REMARK    5  A    between atoms: C_15  and  C_24
REMARK    6  A    between atoms: S_25  and  C_26
REMARK    7  A    between atoms: C_29  and  N_32
REMARK                            x       y       z     vdW  Elec       q    Type
REMARK                         _______ _______ _______ _____ _____    ______ ____
ROOT
ATOM      1  C   UNL     1      32.240 -23.248 -15.625  0.00  0.00    +0.076 C 
ATOM      2  C   UNL     1      33.326 -22.899 -16.411  0.00  0.00    +0.004 C 
ATOM      3  C   UNL     1      32.453 -23.908 -14.414  0.00  0.00    +0.081 C 
ATOM      4  C   UNL     1      33.752 -24.209 -14.003  0.00  0.00    +0.033 C 
ATOM      5  C   UNL     1      34.623 -23.192 -16.015  0.00  0.00    +0.000 C 
ATOM      6  C   UNL     1      34.836 -23.850 -14.804  0.00  0.00    +0.006 C 
ENDROOT
BRANCH   1  10
ATOM      7  F   UNL     1      30.110 -24.030 -16.385  0.00  0.00    -0.166 F 
ATOM      8  F   UNL     1      30.115 -22.278 -15.106  0.00  0.00    -0.166 F 
ATOM      9  F   UNL     1      30.813 -22.124 -17.160  0.00  0.00    -0.166 F 
ATOM     10  C   UNL     1      30.842 -22.927 -16.059  0.00  0.00    +0.419 C 
ENDBRANCH   1  10
BRANCH   3  14
ATOM     11  F   UNL     1      30.218 -24.751 -14.292  0.00  0.00    -0.166 F 
ATOM     12  F   UNL     1      31.551 -25.257 -12.658  0.00  0.00    -0.166 F 
ATOM     13  F   UNL     1      30.794 -23.228 -12.852  0.00  0.00    -0.166 F 
ATOM     14  C   UNL     1      31.274 -24.282 -13.569  0.00  0.00    +0.419 C 
ENDBRANCH   3  14
BRANCH   2  16
ATOM     15  C   UNL     1      34.132 -21.722 -18.442  0.00  0.00    +0.058 C 
ATOM     16  C   UNL     1      33.138 -22.202 -17.695  0.00  0.00    +0.005 C 
BRANCH  15  24
ATOM     17  O   UNL     1      36.579 -18.648 -21.674  0.00  0.00    -0.350 OA
ATOM     18  O   UNL     1      32.590 -21.010 -20.021  0.00  0.00    -0.270 OA
ATOM     19  N   UNL     1      34.810 -20.470 -20.446  0.00  0.00    -0.271 N 
ATOM     20  C   UNL     1      34.518 -19.921 -21.771  0.00  0.00    +0.126 C 
ATOM     21  C   UNL     1      36.241 -20.474 -20.115  0.00  0.00    +0.126 C 
ATOM     22  C   UNL     1      35.175 -18.556 -21.930  0.00  0.00    +0.164 C 
ATOM     23  C   UNL     1      36.831 -19.086 -20.336  0.00  0.00    +0.164 C 
ATOM     24  C   UNL     1      33.780 -21.038 -19.701  0.00  0.00    +0.249 C 
ENDBRANCH  15  24
ENDBRANCH   2  16
BRANCH   4  25
ATOM     25  S   UNL     1      34.085 -25.053 -12.462  0.00  0.00    -0.087 S 
BRANCH  25  26
ATOM     26  C   UNL     1      35.807 -24.655 -12.218  0.00  0.00    +0.031 C 
ATOM     27  C   UNL     1      36.794 -25.525 -12.677  0.00  0.00    +0.021 C 
ATOM     28  C   UNL     1      36.161 -23.474 -11.569  0.00  0.00    +0.007 C 
ATOM     29  C   UNL     1      38.139 -25.213 -12.486  0.00  0.00    +0.042 C 
ATOM     30  C   UNL     1      37.507 -23.162 -11.377  0.00  0.00    +0.002 C 
ATOM     31  C   UNL     1      38.496 -24.032 -11.836  0.00  0.00    +0.014 C 
BRANCH  29  32
ATOM     32  N   UNL     1      39.141 -26.092 -12.949  0.00  0.00    -0.357 N 
ATOM     33  H   UNL     1      39.832 -26.420 -12.329  0.00  0.00    +0.142 HD
ATOM     34  H   UNL     1      39.149 -26.378 -13.891  0.00  0.00    +0.142 HD
ENDBRANCH  29  32
ENDBRANCH  25  26
ENDBRANCH   4  25
TORSDOF 7
ENDMDL
MODEL 6
REMARK VINA RESULT:      -9.9      6.359      9.262
REMARK  Name = 11712628
REMARK  7 active torsions:
REMARK  status: ('A' for Active; 'I' for Inactive)
REMARK    1  A    between atoms: C_1  and  C_10
REMARK    2  A    between atoms: C_2  and  C_16
REMARK    3  A    between atoms: C_3  and  C_14
REMARK    4  A    between atoms: C_4  and  S_25
REMARK    5  A    between atoms: C_15  and  C_24
REMARK    6  A    between atoms: S_25  and  C_26
REMARK    7  A    between atoms: C_29  and  N_32
REMARK                            x       y       z     vdW  Elec       q    Type
REMARK                         _______ _______ _______ _____ _____    ______ ____
ROOT
ATOM      1  C   UNL     1      34.730 -22.286 -17.540  0.00  0.00    +0.076 C 
ATOM      2  C   UNL     1      35.758 -21.653 -18.221  0.00  0.00    +0.004 C 
ATOM      3  C   UNL     1      34.927 -22.686 -16.218  0.00  0.00    +0.081 C 
ATOM      4  C   UNL     1      36.151 -22.446 -15.592  0.00  0.00    +0.033 C 
ATOM      5  C   UNL     1      36.979 -21.408 -17.612  0.00  0.00    +0.000 C 
ATOM      6  C   UNL     1      37.176 -21.807 -16.290  0.00  0.00    +0.006 C 
ENDROOT
BRANCH   1  10
ATOM      7  F   UNL     1      32.395 -21.790 -17.706  0.00  0.00    -0.166 F 
ATOM      8  F   UNL     1      33.427 -22.296 -19.547  0.00  0.00    -0.166 F 
ATOM      9  F   UNL     1      33.013 -23.842 -18.075  0.00  0.00    -0.166 F 
ATOM     10  C   UNL     1      33.413 -22.547 -18.207  0.00  0.00    +0.419 C 
ENDBRANCH   1  10
BRANCH   3  14
ATOM     11  F   UNL     1      34.007 -23.433 -14.141  0.00  0.00    -0.166 F 
ATOM     12  F   UNL     1      32.605 -22.756 -15.651  0.00  0.00    -0.166 F 
ATOM     13  F   UNL     1      33.633 -24.655 -15.900  0.00  0.00    -0.166 F 
ATOM     14  C   UNL     1      33.811 -23.369 -15.489  0.00  0.00    +0.419 C 
ENDBRANCH   3  14
BRANCH   2  16
ATOM     15  C   UNL     1      35.393 -19.952 -19.992  0.00  0.00    +0.058 C 
ATOM     16  C   UNL     1      35.584 -21.218 -19.618  0.00  0.00    +0.005 C 
BRANCH  15  24
ATOM     17  O   UNL     1      35.054 -15.750 -22.839  0.00  0.00    -0.350 OA
ATOM     18  O   UNL     1      34.912 -20.622 -22.160  0.00  0.00    -0.270 OA
ATOM     19  N   UNL     1      35.430 -18.375 -21.877  0.00  0.00    -0.271 N 
ATOM     20  C   UNL     1      35.424 -18.098 -23.314  0.00  0.00    +0.126 C 
ATOM     21  C   UNL     1      35.803 -17.214 -21.057  0.00  0.00    +0.126 C 
ATOM     22  C   UNL     1      34.586 -16.861 -23.607  0.00  0.00    +0.164 C 
ATOM     23  C   UNL     1      34.948 -16.011 -21.437  0.00  0.00    +0.164 C 
ATOM     24  C   UNL     1      35.225 -19.677 -21.432  0.00  0.00    +0.249 C 
ENDBRANCH  15  24
ENDBRANCH   2  16
BRANCH   4  25
ATOM     25  S   UNL     1      36.460 -22.936 -13.900  0.00  0.00    -0.087 S 
BRANCH  25  26
ATOM     26  C   UNL     1      37.161 -24.560 -14.137  0.00  0.00    +0.031 C 
ATOM     27  C   UNL     1      38.516 -24.775 -13.889  0.00  0.00    +0.021 C 
ATOM     28  C   UNL     1      36.353 -25.608 -14.571  0.00  0.00    +0.007 C 
ATOM     29  C   UNL     1      39.063 -26.044 -14.075  0.00  0.00    +0.042 C 
ATOM     30  C   UNL     1      36.900 -26.878 -14.757  0.00  0.00    +0.002 C 
ATOM     31  C   UNL     1      38.256 -27.095 -14.509  0.00  0.00    +0.014 C 
BRANCH  29  32
ATOM     32  N   UNL     1      40.433 -26.266 -13.824  0.00  0.00    -0.357 N 
ATOM     33  H   UNL     1      40.796 -27.181 -13.851  0.00  0.00    +0.142 HD
ATOM     34  H   UNL     1      41.026 -25.507 -13.622  0.00  0.00    +0.142 HD
ENDBRANCH  29  32
ENDBRANCH  25  26
ENDBRANCH   4  25
TORSDOF 7
ENDMDL
MODEL 7
REMARK VINA RESULT:      -9.8      5.235     10.684
REMARK  Name = 11712628
REMARK  7 active torsions:
REMARK  status: ('A' for Active; 'I' for Inactive)
REMARK    1  A    between atoms: C_1  and  C_10
REMARK    2  A    between atoms: C_2  and  C_16
REMARK    3  A    between atoms: C_3  and  C_14
REMARK    4  A    between atoms: C_4  and  S_25
REMARK    5  A    between atoms: C_15  and  C_24
REMARK    6  A    between atoms: S_25  and  C_26
REMARK    7  A    between atoms: C_29  and  N_32
REMARK                            x       y       z     vdW  Elec       q    Type
REMARK                         _______ _______ _______ _____ _____    ______ ____
ROOT
ATOM      1  C   UNL     1      32.225  -8.450 -21.367  0.00  0.00    +0.076 C 
ATOM      2  C   UNL     1      32.361  -9.670 -22.011  0.00  0.00    +0.004 C 
ATOM      3  C   UNL     1      31.917  -7.312 -22.112  0.00  0.00    +0.081 C 
ATOM      4  C   UNL     1      31.748  -7.408 -23.494  0.00  0.00    +0.033 C 
ATOM      5  C   UNL     1      32.196  -9.780 -23.384  0.00  0.00    +0.000 C 
ATOM      6  C   UNL     1      31.887  -8.642 -24.129  0.00  0.00    +0.006 C 
ENDROOT
BRANCH   1  10
ATOM      7  F   UNL     1      31.345  -7.762 -19.251  0.00  0.00    -0.166 F 
ATOM      8  F   UNL     1      32.581  -9.546 -19.270  0.00  0.00    -0.166 F 
ATOM      9  F   UNL     1      33.492  -7.590 -19.547  0.00  0.00    -0.166 F 
ATOM     10  C   UNL     1      32.405  -8.341 -19.884  0.00  0.00    +0.419 C 
ENDBRANCH   1  10
BRANCH   3  14
ATOM     11  F   UNL     1      32.739  -5.773 -20.476  0.00  0.00    -0.166 F 
ATOM     12  F   UNL     1      31.825  -4.926 -22.252  0.00  0.00    -0.166 F 
ATOM     13  F   UNL     1      30.585  -5.891 -20.749  0.00  0.00    -0.166 F 
ATOM     14  C   UNL     1      31.771  -5.997 -21.410  0.00  0.00    +0.419 C 
ENDBRANCH   3  14
BRANCH   2  16
ATOM     15  C   UNL     1      32.322 -12.121 -21.623  0.00  0.00    +0.058 C 
ATOM     16  C   UNL     1      32.686 -10.893 -21.255  0.00  0.00    +0.005 C 
BRANCH  15  24
ATOM     17  O   UNL     1      35.401 -16.143 -22.107  0.00  0.00    -0.350 OA
ATOM     18  O   UNL     1      32.063 -13.424 -19.722  0.00  0.00    -0.270 OA
ATOM     19  N   UNL     1      33.795 -14.031 -21.147  0.00  0.00    -0.271 N 
ATOM     20  C   UNL     1      34.308 -15.055 -20.236  0.00  0.00    +0.126 C 
ATOM     21  C   UNL     1      34.606 -13.865 -22.360  0.00  0.00    +0.126 C 
ATOM     22  C   UNL     1      34.538 -16.360 -20.988  0.00  0.00    +0.164 C 
ATOM     23  C   UNL     1      34.823 -15.217 -23.032  0.00  0.00    +0.164 C 
ATOM     24  C   UNL     1      32.716 -13.246 -20.752  0.00  0.00    +0.249 C 
ENDBRANCH  15  24
ENDBRANCH   2  16
BRANCH   4  25
ATOM     25  S   UNL     1      31.353  -5.982 -24.500  0.00  0.00    -0.087 S 
BRANCH  25  26
ATOM     26  C   UNL     1      32.922  -5.679 -25.295  0.00  0.00    +0.031 C 
ATOM     27  C   UNL     1      32.960  -5.288 -26.632  0.00  0.00    +0.021 C 
ATOM     28  C   UNL     1      34.105  -5.836 -24.577  0.00  0.00    +0.007 C 
ATOM     29  C   UNL     1      34.186  -5.052 -27.252  0.00  0.00    +0.042 C 
ATOM     30  C   UNL     1      35.332  -5.600 -25.197  0.00  0.00    +0.002 C 
ATOM     31  C   UNL     1      35.372  -5.208 -26.535  0.00  0.00    +0.014 C 
BRANCH  29  32
ATOM     32  N   UNL     1      34.228  -4.656 -28.605  0.00  0.00    -0.357 N 
ATOM     33  H   UNL     1      33.531  -4.962 -29.229  0.00  0.00    +0.142 HD
ATOM     34  H   UNL     1      34.954  -4.073 -28.926  0.00  0.00    +0.142 HD
ENDBRANCH  29  32
ENDBRANCH  25  26
ENDBRANCH   4  25
TORSDOF 7
ENDMDL
MODEL 8
REMARK VINA RESULT:      -9.8      5.222      7.525
REMARK  Name = 11712628
REMARK  7 active torsions:
REMARK  status: ('A' for Active; 'I' for Inactive)
REMARK    1  A    between atoms: C_1  and  C_10
REMARK    2  A    between atoms: C_2  and  C_16
REMARK    3  A    between atoms: C_3  and  C_14
REMARK    4  A    between atoms: C_4  and  S_25
REMARK    5  A    between atoms: C_15  and  C_24
REMARK    6  A    between atoms: S_25  and  C_26
REMARK    7  A    between atoms: C_29  and  N_32
REMARK                            x       y       z     vdW  Elec       q    Type
REMARK                         _______ _______ _______ _____ _____    ______ ____
ROOT
ATOM      1  C   UNL     1      31.903  -8.935 -20.872  0.00  0.00    +0.076 C 
ATOM      2  C   UNL     1      31.865  -8.741 -22.244  0.00  0.00    +0.004 C 
ATOM      3  C   UNL     1      31.923 -10.234 -20.363  0.00  0.00    +0.081 C 
ATOM      4  C   UNL     1      31.904 -11.324 -21.234  0.00  0.00    +0.033 C 
ATOM      5  C   UNL     1      31.846  -9.815 -23.121  0.00  0.00    +0.000 C 
ATOM      6  C   UNL     1      31.867 -11.114 -22.613  0.00  0.00    +0.006 C 
ENDROOT
BRANCH   1  10
ATOM      7  F   UNL     1      31.426  -6.623 -20.480  0.00  0.00    -0.166 F 
ATOM      8  F   UNL     1      31.194  -7.975 -18.798  0.00  0.00    -0.166 F 
ATOM      9  F   UNL     1      33.183  -7.463 -19.512  0.00  0.00    -0.166 F 
ATOM     10  C   UNL     1      31.923  -7.768 -19.932  0.00  0.00    +0.419 C 
ENDBRANCH   1  10
BRANCH   3  14
ATOM     11  F   UNL     1      32.962  -9.738 -18.267  0.00  0.00    -0.166 F 
ATOM     12  F   UNL     1      30.816 -10.055 -18.251  0.00  0.00    -0.166 F 
ATOM     13  F   UNL     1      32.159 -11.740 -18.539  0.00  0.00    -0.166 F 
ATOM     14  C   UNL     1      31.964 -10.436 -18.880  0.00  0.00    +0.419 C 
ENDBRANCH   3  14
BRANCH   2  16
ATOM     15  C   UNL     1      31.050  -7.003 -23.817  0.00  0.00    +0.058 C 
ATOM     16  C   UNL     1      31.844  -7.383 -22.816  0.00  0.00    +0.005 C 
BRANCH  15  24
ATOM     17  O   UNL     1      34.416  -4.377 -26.584  0.00  0.00    -0.350 OA
ATOM     18  O   UNL     1      30.382  -4.782 -23.795  0.00  0.00    -0.270 OA
ATOM     19  N   UNL     1      32.112  -5.313 -25.252  0.00  0.00    -0.271 N 
ATOM     20  C   UNL     1      32.140  -3.978 -25.851  0.00  0.00    +0.126 C 
ATOM     21  C   UNL     1      33.056  -6.254 -25.870  0.00  0.00    +0.126 C 
ATOM     22  C   UNL     1      33.569  -3.452 -25.897  0.00  0.00    +0.164 C 
ATOM     23  C   UNL     1      34.451  -5.640 -25.914  0.00  0.00    +0.164 C 
ATOM     24  C   UNL     1      31.154  -5.607 -24.287  0.00  0.00    +0.249 C 
ENDBRANCH  15  24
ENDBRANCH   2  16
BRANCH   4  25
ATOM     25  S   UNL     1      31.927 -13.011 -20.638  0.00  0.00    -0.087 S 
BRANCH  25  26
ATOM     26  C   UNL     1      32.942 -13.798 -21.877  0.00  0.00    +0.031 C 
ATOM     27  C   UNL     1      32.528 -13.813 -23.208  0.00  0.00    +0.021 C 
ATOM     28  C   UNL     1      34.144 -14.397 -21.511  0.00  0.00    +0.007 C 
ATOM     29  C   UNL     1      33.321 -14.429 -24.175  0.00  0.00    +0.042 C 
ATOM     30  C   UNL     1      34.938 -15.014 -22.478  0.00  0.00    +0.002 C 
ATOM     31  C   UNL     1      34.526 -15.029 -23.811  0.00  0.00    +0.014 C 
BRANCH  29  32
ATOM     32  N   UNL     1      32.906 -14.445 -25.523  0.00  0.00    -0.357 N 
ATOM     33  H   UNL     1      33.496 -14.084 -26.224  0.00  0.00    +0.142 HD
ATOM     34  H   UNL     1      32.027 -14.818 -25.764  0.00  0.00    +0.142 HD
ENDBRANCH  29  32
ENDBRANCH  25  26
ENDBRANCH   4  25
TORSDOF 7
ENDMDL
MODEL 9
REMARK VINA RESULT:      -9.7      5.121      9.525
REMARK  Name = 11712628
REMARK  7 active torsions:
REMARK  status: ('A' for Active; 'I' for Inactive)
REMARK    1  A    between atoms: C_1  and  C_10
REMARK    2  A    between atoms: C_2  and  C_16
REMARK    3  A    between atoms: C_3  and  C_14
REMARK    4  A    between atoms: C_4  and  S_25
REMARK    5  A    between atoms: C_15  and  C_24
REMARK    6  A    between atoms: S_25  and  C_26
REMARK    7  A    between atoms: C_29  and  N_32
REMARK                            x       y       z     vdW  Elec       q    Type
REMARK                         _______ _______ _______ _____ _____    ______ ____
ROOT
ATOM      1  C   UNL     1      35.366 -20.706 -19.622  0.00  0.00    +0.076 C 
ATOM      2  C   UNL     1      34.070 -21.149 -19.411  0.00  0.00    +0.004 C 
ATOM      3  C   UNL     1      35.629 -19.830 -20.675  0.00  0.00    +0.081 C 
ATOM      4  C   UNL     1      34.591 -19.407 -21.505  0.00  0.00    +0.033 C 
ATOM      5  C   UNL     1      33.028 -20.737 -20.228  0.00  0.00    +0.000 C 
ATOM      6  C   UNL     1      33.290 -19.860 -21.281  0.00  0.00    +0.006 C 
ENDROOT
BRANCH   1  10
ATOM      7  F   UNL     1      37.164 -20.126 -18.153  0.00  0.00    -0.166 F 
ATOM      8  F   UNL     1      36.073 -21.947 -17.702  0.00  0.00    -0.166 F 
ATOM      9  F   UNL     1      37.421 -21.884 -19.407  0.00  0.00    -0.166 F 
ATOM     10  C   UNL     1      36.486 -21.157 -18.733  0.00  0.00    +0.419 C 
ENDBRANCH   1  10
BRANCH   3  14
ATOM     11  F   UNL     1      37.970 -20.320 -20.678  0.00  0.00    -0.166 F 
ATOM     12  F   UNL     1      37.258 -18.911 -22.165  0.00  0.00    -0.166 F 
ATOM     13  F   UNL     1      37.365 -18.320 -20.076  0.00  0.00    -0.166 F 
ATOM     14  C   UNL     1      37.032 -19.355 -20.896  0.00  0.00    +0.419 C 
ENDBRANCH   3  14
BRANCH   2  16
ATOM     15  C   UNL     1      32.585 -22.117 -17.673  0.00  0.00    +0.058 C 
ATOM     16  C   UNL     1      33.757 -22.075 -18.308  0.00  0.00    +0.005 C 
BRANCH  15  24
ATOM     17  O   UNL     1      28.764 -23.529 -14.625  0.00  0.00    -0.350 OA
ATOM     18  O   UNL     1      33.453 -23.603 -16.119  0.00  0.00    -0.270 OA
ATOM     19  N   UNL     1      31.140 -23.383 -16.140  0.00  0.00    -0.271 N 
ATOM     20  C   UNL     1      30.937 -24.457 -15.167  0.00  0.00    +0.126 C 
ATOM     21  C   UNL     1      29.888 -22.810 -16.651  0.00  0.00    +0.126 C 
ATOM     22  C   UNL     1      29.993 -23.997 -14.064  0.00  0.00    +0.164 C 
ATOM     23  C   UNL     1      28.985 -22.411 -15.489  0.00  0.00    +0.164 C 
ATOM     24  C   UNL     1      32.429 -23.095 -16.580  0.00  0.00    +0.249 C 
ENDBRANCH  15  24
ENDBRANCH   2  16
BRANCH   4  25
ATOM     25  S   UNL     1      34.869 -18.285 -22.871  0.00  0.00    -0.087 S 
BRANCH  25  26
ATOM     26  C   UNL     1      34.744 -16.706 -22.048  0.00  0.00    +0.031 C 
ATOM     27  C   UNL     1      34.630 -15.538 -22.799  0.00  0.00    +0.021 C 
ATOM     28  C   UNL     1      34.762 -16.646 -20.656  0.00  0.00    +0.007 C 
ATOM     29  C   UNL     1      34.533 -14.305 -22.155  0.00  0.00    +0.042 C 
ATOM     30  C   UNL     1      34.664 -15.412 -20.012  0.00  0.00    +0.002 C 
ATOM     31  C   UNL     1      34.551 -14.242 -20.762  0.00  0.00    +0.014 C 
BRANCH  29  32
ATOM     32  N   UNL     1      34.418 -13.120 -22.911  0.00  0.00    -0.357 N 
ATOM     33  H   UNL     1      33.823 -13.093 -23.696  0.00  0.00    +0.142 HD
ATOM     34  H   UNL     1      34.932 -12.320 -22.656  0.00  0.00    +0.142 HD
ENDBRANCH  29  32
ENDBRANCH  25  26
ENDBRANCH   4  25
TORSDOF 7
ENDMDL
