MODEL 1
REMARK VINA RESULT:     -11.6      0.000      0.000
REMARK  Name = 447622
REMARK  7 active torsions:
REMARK  status: ('A' for Active; 'I' for Inactive)
REMARK    1  A    between atoms: N_2  and  C_13
REMARK    2  A    between atoms: C_5  and  C_28
REMARK    3  A    between atoms: C_10  and  C_16
REMARK    4  A    between atoms: C_16  and  C_17
REMARK    5  A    between atoms: C_17  and  N_19
REMARK    6  A    between atoms: C_25  and  C_31
REMARK    7  A    between atoms: C_31  and  N_34
REMARK                            x       y       z     vdW  Elec       q    Type
REMARK                         _______ _______ _______ _____ _____    ______ ____
ROOT
ATOM      1 CL   UNL     1      35.186 -24.539 -13.086  0.00  0.00    -0.078 Cl
ATOM      2  N   UNL     1      37.166 -21.587 -17.686  0.00  0.00    -0.247 N 
ATOM      3  N   UNL     1      35.335 -22.432 -16.485  0.00  0.00    -0.337 NA
ATOM      4  N   UNL     1      37.591 -22.783 -15.711  0.00  0.00    -0.169 NA
ATOM      5  C   UNL     1      34.899 -23.120 -15.410  0.00  0.00    +0.156 C 
ATOM      6  C   UNL     1      36.675 -22.300 -16.574  0.00  0.00    +0.149 C 
ATOM      7  C   UNL     1      35.735 -23.663 -14.455  0.00  0.00    +0.108 C 
ATOM      8  C   UNL     1      37.085 -23.461 -14.660  0.00  0.00    +0.126 C 
ATOM      9  H   UNL     1      38.148 -21.519 -17.709  0.00  0.00    +0.165 HD
ENDROOT
BRANCH   2  13
ATOM     10  C   UNL     1      35.275 -19.702 -20.906  0.00  0.00    -0.024 C 
ATOM     11  C   UNL     1      36.576 -19.352 -20.580  0.00  0.00    -0.003 C 
ATOM     12  C   UNL     1      34.589 -20.666 -20.183  0.00  0.00    -0.003 C 
ATOM     13  C   UNL     1      36.528 -20.951 -18.770  0.00  0.00    +0.058 C 
ATOM     14  C   UNL     1      37.206 -19.980 -19.506  0.00  0.00    +0.015 C 
ATOM     15  C   UNL     1      35.219 -21.294 -19.109  0.00  0.00    +0.015 C 
BRANCH  10  16
ATOM     16  C   UNL     1      34.592 -19.022 -22.066  0.00  0.00    +0.004 C 
BRANCH  16  17
ATOM     17  C   UNL     1      35.606 -18.509 -23.090  0.00  0.00    -0.072 C 
BRANCH  17  19
ATOM     18  O   UNL     1      33.648 -14.825 -23.556  0.00  0.00    -0.358 OA
ATOM     19  N   UNL     1      35.334 -17.117 -23.443  0.00  0.00    +0.391 N 
ATOM     20  C   UNL     1      34.219 -17.028 -24.397  0.00  0.00    -0.045 C 
ATOM     21  C   UNL     1      35.032 -16.324 -22.243  0.00  0.00    -0.045 C 
ATOM     22  C   UNL     1      33.946 -15.567 -24.740  0.00  0.00    +0.119 C 
ATOM     23  C   UNL     1      34.739 -14.879 -22.636  0.00  0.00    +0.119 C 
ATOM     24  H   UNL     1      36.170 -16.736 -23.883  0.00  0.00    -0.079 HD
ENDBRANCH  17  19
ENDBRANCH  16  17
ENDBRANCH  10  16
ENDBRANCH   2  13
BRANCH   5  28
ATOM     25  C   UNL     1      30.681 -23.474 -15.222  0.00  0.00    -0.041 C 
ATOM     26  C   UNL     1      31.443 -23.591 -14.060  0.00  0.00    -0.006 C 
ATOM     27  C   UNL     1      31.307 -23.240 -16.447  0.00  0.00    -0.006 C 
ATOM     28  C   UNL     1      33.459 -23.240 -15.346  0.00  0.00    +0.031 C 
ATOM     29  C   UNL     1      32.832 -23.475 -14.122  0.00  0.00    +0.002 C 
ATOM     30  C   UNL     1      32.696 -23.123 -16.509  0.00  0.00    +0.002 C 
BRANCH  25  31
ATOM     31  C   UNL     1      29.196 -23.599 -15.155  0.00  0.00    -0.029 C 
ATOM     32  C   UNL     1      28.781 -24.808 -14.270  0.00  0.00    -0.018 C 
ATOM     33  C   UNL     1      28.468 -23.785 -16.523  0.00  0.00    -0.018 C 
BRANCH  31  34
ATOM     34  N   UNL     1      28.571 -22.392 -14.546  0.00  0.00    +0.385 N 
ATOM     35  H   UNL     1      28.668 -22.434 -13.532  0.00  0.00    -0.089 HD
ATOM     36  H   UNL     1      27.582 -22.360 -14.792  0.00  0.00    -0.089 HD
ATOM     37  H   UNL     1      29.036 -21.554 -14.897  0.00  0.00    -0.089 HD
ENDBRANCH  31  34
ENDBRANCH  25  31
ENDBRANCH   5  28
TORSDOF 7
ENDMDL
MODEL 2
REMARK VINA RESULT:     -11.4      2.109      5.115
REMARK  Name = 447622
REMARK  7 active torsions:
REMARK  status: ('A' for Active; 'I' for Inactive)
REMARK    1  A    between atoms: N_2  and  C_13
REMARK    2  A    between atoms: C_5  and  C_28
REMARK    3  A    between atoms: C_10  and  C_16
REMARK    4  A    between atoms: C_16  and  C_17
REMARK    5  A    between atoms: C_17  and  N_19
REMARK    6  A    between atoms: C_25  and  C_31
REMARK    7  A    between atoms: C_31  and  N_34
REMARK                            x       y       z     vdW  Elec       q    Type
REMARK                         _______ _______ _______ _____ _____    ______ ____
ROOT
ATOM      1 CL   UNL     1      31.857 -25.250 -12.940  0.00  0.00    -0.078 Cl
ATOM      2  N   UNL     1      31.964 -22.118 -17.836  0.00  0.00    -0.247 N 
ATOM      3  N   UNL     1      33.149 -23.172 -16.106  0.00  0.00    -0.337 NA
ATOM      4  N   UNL     1      30.741 -23.234 -16.172  0.00  0.00    -0.169 NA
ATOM      5  C   UNL     1      33.100 -23.899 -14.972  0.00  0.00    +0.156 C 
ATOM      6  C   UNL     1      31.950 -22.878 -16.650  0.00  0.00    +0.149 C 
ATOM      7  C   UNL     1      31.926 -24.325 -14.384  0.00  0.00    +0.108 C 
ATOM      8  C   UNL     1      30.765 -23.959 -15.034  0.00  0.00    +0.126 C 
ATOM      9  H   UNL     1      31.067 -21.927 -18.193  0.00  0.00    +0.165 HD
ENDROOT
BRANCH   2  13
ATOM     10  C   UNL     1      35.068 -20.516 -20.138  0.00  0.00    -0.024 C 
ATOM     11  C   UNL     1      33.787 -20.001 -20.268  0.00  0.00    -0.003 C 
ATOM     12  C   UNL     1      35.338 -21.553 -19.258  0.00  0.00    -0.003 C 
ATOM     13  C   UNL     1      33.010 -21.579 -18.613  0.00  0.00    +0.058 C 
ATOM     14  C   UNL     1      32.753 -20.536 -19.502  0.00  0.00    +0.015 C 
ATOM     15  C   UNL     1      34.303 -22.087 -18.491  0.00  0.00    +0.015 C 
BRANCH  10  16
ATOM     16  C   UNL     1      36.187 -19.939 -20.968  0.00  0.00    +0.004 C 
BRANCH  16  17
ATOM     17  C   UNL     1      36.001 -18.438 -21.193  0.00  0.00    -0.072 C 
BRANCH  17  19
ATOM     18  O   UNL     1      33.942 -17.352 -24.685  0.00  0.00    -0.358 OA
ATOM     19  N   UNL     1      35.700 -18.151 -22.594  0.00  0.00    +0.391 N 
ATOM     20  C   UNL     1      34.644 -19.043 -23.094  0.00  0.00    -0.045 C 
ATOM     21  C   UNL     1      35.296 -16.749 -22.765  0.00  0.00    -0.045 C 
ATOM     22  C   UNL     1      34.340 -18.717 -24.553  0.00  0.00    +0.119 C 
ATOM     23  C   UNL     1      34.975 -16.476 -24.231  0.00  0.00    +0.119 C 
ATOM     24  H   UNL     1      36.548 -18.314 -23.136  0.00  0.00    -0.079 HD
ENDBRANCH  17  19
ENDBRANCH  16  17
ENDBRANCH  10  16
ENDBRANCH   2  13
BRANCH   5  28
ATOM     25  C   UNL     1      36.915 -24.774 -13.350  0.00  0.00    -0.041 C 
ATOM     26  C   UNL     1      36.431 -25.512 -14.429  0.00  0.00    -0.006 C 
ATOM     27  C   UNL     1      36.144 -23.747 -12.804  0.00  0.00    -0.006 C 
ATOM     28  C   UNL     1      34.403 -24.197 -14.418  0.00  0.00    +0.031 C 
ATOM     29  C   UNL     1      35.174 -25.224 -14.963  0.00  0.00    +0.002 C 
ATOM     30  C   UNL     1      34.888 -23.458 -13.339  0.00  0.00    +0.002 C 
BRANCH  25  31
ATOM     31  C   UNL     1      38.258 -25.082 -12.779  0.00  0.00    -0.029 C 
ATOM     32  C   UNL     1      38.586 -24.135 -11.590  0.00  0.00    -0.018 C 
ATOM     33  C   UNL     1      39.459 -24.973 -13.771  0.00  0.00    -0.018 C 
BRANCH  31  34
ATOM     34  N   UNL     1      38.322 -26.471 -12.246  0.00  0.00    +0.385 N 
ATOM     35  H   UNL     1      37.399 -26.750 -11.914  0.00  0.00    -0.089 HD
ATOM     36  H   UNL     1      38.987 -26.509 -11.473  0.00  0.00    -0.089 HD
ATOM     37  H   UNL     1      38.624 -27.106 -12.985  0.00  0.00    -0.089 HD
ENDBRANCH  31  34
ENDBRANCH  25  31
ENDBRANCH   5  28
TORSDOF 7
ENDMDL
MODEL 3
REMARK VINA RESULT:     -10.3      8.018     14.883
REMARK  Name = 447622
REMARK  7 active torsions:
REMARK  status: ('A' for Active; 'I' for Inactive)
REMARK    1  A    between atoms: N_2  and  C_13
REMARK    2  A    between atoms: C_5  and  C_28
REMARK    3  A    between atoms: C_10  and  C_16
REMARK    4  A    between atoms: C_16  and  C_17
REMARK    5  A    between atoms: C_17  and  N_19
REMARK    6  A    between atoms: C_25  and  C_31
REMARK    7  A    between atoms: C_31  and  N_34
REMARK                            x       y       z     vdW  Elec       q    Type
REMARK                         _______ _______ _______ _____ _____    ______ ____
ROOT
ATOM      1 CL   UNL     1      32.064  -5.042 -21.001  0.00  0.00    -0.078 Cl
ATOM      2  N   UNL     1      32.041 -10.842 -20.612  0.00  0.00    -0.247 N 
ATOM      3  N   UNL     1      32.571  -8.920 -21.850  0.00  0.00    -0.337 NA
ATOM      4  N   UNL     1      31.543  -8.748 -19.677  0.00  0.00    -0.169 NA
ATOM      5  C   UNL     1      32.566  -7.573 -21.918  0.00  0.00    +0.156 C 
ATOM      6  C   UNL     1      32.053  -9.437 -20.717  0.00  0.00    +0.149 C 
ATOM      7  C   UNL     1      32.073  -6.756 -20.920  0.00  0.00    +0.108 C 
ATOM      8  C   UNL     1      31.569  -7.406 -19.812  0.00  0.00    +0.126 C 
ATOM      9  H   UNL     1      31.653 -11.172 -19.771  0.00  0.00    +0.165 HD
ENDROOT
BRANCH   2  13
ATOM     10  C   UNL     1      33.342 -13.883 -23.174  0.00  0.00    -0.024 C 
ATOM     11  C   UNL     1      33.054 -12.630 -23.695  0.00  0.00    -0.003 C 
ATOM     12  C   UNL     1      33.206 -14.146 -21.820  0.00  0.00    -0.003 C 
ATOM     13  C   UNL     1      32.479 -11.868 -21.476  0.00  0.00    +0.058 C 
ATOM     14  C   UNL     1      32.620 -11.617 -22.840  0.00  0.00    +0.015 C 
ATOM     15  C   UNL     1      32.773 -13.132 -20.966  0.00  0.00    +0.015 C 
BRANCH  10  16
ATOM     16  C   UNL     1      33.811 -14.979 -24.098  0.00  0.00    +0.004 C 
BRANCH  16  17
ATOM     17  C   UNL     1      35.243 -15.408 -23.778  0.00  0.00    -0.072 C 
BRANCH  17  19
ATOM     18  O   UNL     1      34.346 -19.373 -22.732  0.00  0.00    -0.358 OA
ATOM     19  N   UNL     1      35.335 -16.859 -23.632  0.00  0.00    +0.391 N 
ATOM     20  C   UNL     1      35.381 -17.240 -22.214  0.00  0.00    -0.045 C 
ATOM     21  C   UNL     1      34.202 -17.522 -24.294  0.00  0.00    -0.045 C 
ATOM     22  C   UNL     1      35.463 -18.759 -22.088  0.00  0.00    +0.119 C 
ATOM     23  C   UNL     1      34.311 -19.034 -24.119  0.00  0.00    +0.119 C 
ATOM     24  H   UNL     1      36.198 -17.165 -24.080  0.00  0.00    -0.079 HD
ENDBRANCH  17  19
ENDBRANCH  16  17
ENDBRANCH  10  16
ENDBRANCH   2  13
BRANCH   5  28
ATOM     25  C   UNL     1      34.219  -6.054 -25.511  0.00  0.00    -0.041 C 
ATOM     26  C   UNL     1      32.854  -6.327 -25.433  0.00  0.00    -0.006 C 
ATOM     27  C   UNL     1      35.041  -6.281 -24.407  0.00  0.00    -0.006 C 
ATOM     28  C   UNL     1      33.130  -7.054 -23.145  0.00  0.00    +0.031 C 
ATOM     29  C   UNL     1      32.310  -6.827 -24.250  0.00  0.00    +0.002 C 
ATOM     30  C   UNL     1      34.497  -6.780 -23.224  0.00  0.00    +0.002 C 
BRANCH  25  31
ATOM     31  C   UNL     1      34.800  -5.519 -26.777  0.00  0.00    -0.029 C 
ATOM     32  C   UNL     1      35.242  -4.038 -26.601  0.00  0.00    -0.018 C 
ATOM     33  C   UNL     1      33.862  -5.553 -28.023  0.00  0.00    -0.018 C 
BRANCH  31  34
ATOM     34  N   UNL     1      36.015  -6.279 -27.186  0.00  0.00    +0.385 N 
ATOM     35  H   UNL     1      36.359  -6.821 -26.394  0.00  0.00    -0.089 HD
ATOM     36  H   UNL     1      36.737  -5.626 -27.492  0.00  0.00    -0.089 HD
ATOM     37  H   UNL     1      35.779  -6.909 -27.953  0.00  0.00    -0.089 HD
ENDBRANCH  31  34
ENDBRANCH  25  31
ENDBRANCH   5  28
TORSDOF 7
ENDMDL
MODEL 4
REMARK VINA RESULT:     -10.2      8.263     15.482
REMARK  Name = 447622
REMARK  7 active torsions:
REMARK  status: ('A' for Active; 'I' for Inactive)
REMARK    1  A    between atoms: N_2  and  C_13
REMARK    2  A    between atoms: C_5  and  C_28
REMARK    3  A    between atoms: C_10  and  C_16
REMARK    4  A    between atoms: C_16  and  C_17
REMARK    5  A    between atoms: C_17  and  N_19
REMARK    6  A    between atoms: C_25  and  C_31
REMARK    7  A    between atoms: C_31  and  N_34
REMARK                            x       y       z     vdW  Elec       q    Type
REMARK                         _______ _______ _______ _____ _____    ______ ____
ROOT
ATOM      1 CL   UNL     1      32.228  -4.310 -21.985  0.00  0.00    -0.078 Cl
ATOM      2  N   UNL     1      31.936 -10.053 -21.138  0.00  0.00    -0.247 N 
ATOM      3  N   UNL     1      32.636  -8.259 -22.480  0.00  0.00    -0.337 NA
ATOM      4  N   UNL     1      31.457  -7.872 -20.414  0.00  0.00    -0.169 NA
ATOM      5  C   UNL     1      32.692  -6.923 -22.656  0.00  0.00    +0.156 C 
ATOM      6  C   UNL     1      32.014  -8.663 -21.353  0.00  0.00    +0.149 C 
ATOM      7  C   UNL     1      32.160  -6.010 -21.768  0.00  0.00    +0.108 C 
ATOM      8  C   UNL     1      31.548  -6.547 -20.653  0.00  0.00    +0.126 C 
ATOM      9  H   UNL     1      31.473 -10.299 -20.306  0.00  0.00    +0.165 HD
ENDROOT
BRANCH   2  13
ATOM     10  C   UNL     1      33.296 -13.339 -23.341  0.00  0.00    -0.024 C 
ATOM     11  C   UNL     1      33.454 -12.062 -23.856  0.00  0.00    -0.003 C 
ATOM     12  C   UNL     1      32.695 -13.547 -22.109  0.00  0.00    -0.003 C 
ATOM     13  C   UNL     1      32.393 -11.161 -21.881  0.00  0.00    +0.058 C 
ATOM     14  C   UNL     1      32.999 -10.967 -23.122  0.00  0.00    +0.015 C 
ATOM     15  C   UNL     1      32.242 -12.452 -21.375  0.00  0.00    +0.015 C 
BRANCH  10  16
ATOM     16  C   UNL     1      33.786 -14.524 -24.135  0.00  0.00    +0.004 C 
BRANCH  16  17
ATOM     17  C   UNL     1      34.930 -15.244 -23.420  0.00  0.00    -0.072 C 
BRANCH  17  19
ATOM     18  O   UNL     1      35.119 -19.422 -23.069  0.00  0.00    -0.358 OA
ATOM     19  N   UNL     1      34.571 -16.629 -23.121  0.00  0.00    +0.391 N 
ATOM     20  C   UNL     1      34.554 -17.440 -24.347  0.00  0.00    -0.045 C 
ATOM     21  C   UNL     1      35.505 -17.212 -22.148  0.00  0.00    -0.045 C 
ATOM     22  C   UNL     1      34.190 -18.883 -24.009  0.00  0.00    +0.119 C 
ATOM     23  C   UNL     1      35.119 -18.660 -21.861  0.00  0.00    +0.119 C 
ATOM     24  H   UNL     1      33.636 -16.631 -22.717  0.00  0.00    -0.079 HD
ENDBRANCH  17  19
ENDBRANCH  16  17
ENDBRANCH  10  16
ENDBRANCH   2  13
BRANCH   5  28
ATOM     25  C   UNL     1      34.668  -5.761 -26.219  0.00  0.00    -0.041 C 
ATOM     26  C   UNL     1      35.394  -5.922 -25.040  0.00  0.00    -0.006 C 
ATOM     27  C   UNL     1      33.290  -5.982 -26.226  0.00  0.00    -0.006 C 
ATOM     28  C   UNL     1      33.366  -6.527 -23.873  0.00  0.00    +0.031 C 
ATOM     29  C   UNL     1      34.743  -6.305 -23.866  0.00  0.00    +0.002 C 
ATOM     30  C   UNL     1      32.639  -6.366 -25.053  0.00  0.00    +0.002 C 
BRANCH  25  31
ATOM     31  C   UNL     1      35.363  -5.352 -27.473  0.00  0.00    -0.029 C 
ATOM     32  C   UNL     1      36.172  -6.538 -28.071  0.00  0.00    -0.018 C 
ATOM     33  C   UNL     1      36.365  -4.162 -27.337  0.00  0.00    -0.018 C 
BRANCH  31  34
ATOM     34  N   UNL     1      34.396  -4.925 -28.523  0.00  0.00    +0.385 N 
ATOM     35  H   UNL     1      33.493  -5.366 -28.352  0.00  0.00    -0.089 HD
ATOM     36  H   UNL     1      34.743  -5.206 -29.440  0.00  0.00    -0.089 HD
ATOM     37  H   UNL     1      34.291  -3.910 -28.495  0.00  0.00    -0.089 HD
ENDBRANCH  31  34
ENDBRANCH  25  31
ENDBRANCH   5  28
TORSDOF 7
ENDMDL
MODEL 5
REMARK VINA RESULT:     -10.0      9.003     16.463
REMARK  Name = 447622
REMARK  7 active torsions:
REMARK  status: ('A' for Active; 'I' for Inactive)
REMARK    1  A    between atoms: N_2  and  C_13
REMARK    2  A    between atoms: C_5  and  C_28
REMARK    3  A    between atoms: C_10  and  C_16
REMARK    4  A    between atoms: C_16  and  C_17
REMARK    5  A    between atoms: C_17  and  N_19
REMARK    6  A    between atoms: C_25  and  C_31
REMARK    7  A    between atoms: C_31  and  N_34
REMARK                            x       y       z     vdW  Elec       q    Type
REMARK                         _______ _______ _______ _____ _____    ______ ____
ROOT
ATOM      1 CL   UNL     1      32.256  -3.050 -23.867  0.00  0.00    -0.078 Cl
ATOM      2  N   UNL     1      31.443  -8.287 -21.479  0.00  0.00    -0.247 N 
ATOM      3  N   UNL     1      32.375  -6.994 -23.201  0.00  0.00    -0.337 NA
ATOM      4  N   UNL     1      31.095  -5.966 -21.437  0.00  0.00    -0.169 NA
ATOM      5  C   UNL     1      32.551  -5.769 -23.737  0.00  0.00    +0.156 C 
ATOM      6  C   UNL     1      31.648  -7.022 -22.065  0.00  0.00    +0.149 C 
ATOM      7  C   UNL     1      32.037  -4.611 -23.189  0.00  0.00    +0.108 C 
ATOM      8  C   UNL     1      31.309  -4.772 -22.028  0.00  0.00    +0.126 C 
ATOM      9  H   UNL     1      30.906  -8.258 -20.654  0.00  0.00    +0.165 HD
ENDROOT
BRANCH   2  13
ATOM     10  C   UNL     1      32.671 -12.140 -22.549  0.00  0.00    -0.024 C 
ATOM     11  C   UNL     1      31.944 -11.956 -21.383  0.00  0.00    -0.003 C 
ATOM     12  C   UNL     1      32.999 -11.069 -23.367  0.00  0.00    -0.003 C 
ATOM     13  C   UNL     1      31.858  -9.585 -21.839  0.00  0.00    +0.058 C 
ATOM     14  C   UNL     1      31.536 -10.671 -21.026  0.00  0.00    +0.015 C 
ATOM     15  C   UNL     1      32.589  -9.785 -23.010  0.00  0.00    +0.015 C 
BRANCH  10  16
ATOM     16  C   UNL     1      33.114 -13.529 -22.935  0.00  0.00    +0.004 C 
BRANCH  16  17
ATOM     17  C   UNL     1      34.542 -13.813 -22.467  0.00  0.00    -0.072 C 
BRANCH  17  19
ATOM     18  O   UNL     1      34.608 -17.902 -23.409  0.00  0.00    -0.358 OA
ATOM     19  N   UNL     1      34.994 -15.122 -22.931  0.00  0.00    +0.391 N 
ATOM     20  C   UNL     1      34.986 -16.098 -21.832  0.00  0.00    -0.045 C 
ATOM     21  C   UNL     1      34.153 -15.604 -24.036  0.00  0.00    -0.045 C 
ATOM     22  C   UNL     1      35.450 -17.458 -22.343  0.00  0.00    +0.119 C 
ATOM     23  C   UNL     1      34.635 -16.976 -24.496  0.00  0.00    +0.119 C 
ATOM     24  H   UNL     1      35.950 -15.021 -23.270  0.00  0.00    -0.079 HD
ENDBRANCH  17  19
ENDBRANCH  16  17
ENDBRANCH  10  16
ENDBRANCH   2  13
BRANCH   5  28
ATOM     25  C   UNL     1      34.851  -5.792 -27.295  0.00  0.00    -0.041 C 
ATOM     26  C   UNL     1      33.461  -5.874 -27.363  0.00  0.00    -0.006 C 
ATOM     27  C   UNL     1      35.485  -5.702 -26.055  0.00  0.00    -0.006 C 
ATOM     28  C   UNL     1      33.336  -5.776 -24.952  0.00  0.00    +0.031 C 
ATOM     29  C   UNL     1      32.704  -5.867 -26.192  0.00  0.00    +0.002 C 
ATOM     30  C   UNL     1      34.728  -5.693 -24.884  0.00  0.00    +0.002 C 
BRANCH  25  31
ATOM     31  C   UNL     1      35.661  -5.800 -28.548  0.00  0.00    -0.029 C 
ATOM     32  C   UNL     1      34.783  -6.184 -29.773  0.00  0.00    -0.018 C 
ATOM     33  C   UNL     1      36.883  -6.771 -28.561  0.00  0.00    -0.018 C 
BRANCH  31  34
ATOM     34  N   UNL     1      36.233  -4.456 -28.840  0.00  0.00    +0.385 N 
ATOM     35  H   UNL     1      35.475  -3.788 -28.981  0.00  0.00    -0.089 HD
ATOM     36  H   UNL     1      36.804  -4.505 -29.684  0.00  0.00    -0.089 HD
ATOM     37  H   UNL     1      36.811  -4.154 -28.055  0.00  0.00    -0.089 HD
ENDBRANCH  31  34
ENDBRANCH  25  31
ENDBRANCH   5  28
TORSDOF 7
ENDMDL
MODEL 6
REMARK VINA RESULT:      -8.7      7.551     14.046
REMARK  Name = 447622
REMARK  7 active torsions:
REMARK  status: ('A' for Active; 'I' for Inactive)
REMARK    1  A    between atoms: N_2  and  C_13
REMARK    2  A    between atoms: C_5  and  C_28
REMARK    3  A    between atoms: C_10  and  C_16
REMARK    4  A    between atoms: C_16  and  C_17
REMARK    5  A    between atoms: C_17  and  N_19
REMARK    6  A    between atoms: C_25  and  C_31
REMARK    7  A    between atoms: C_31  and  N_34
REMARK                            x       y       z     vdW  Elec       q    Type
REMARK                         _______ _______ _______ _____ _____    ______ ____
ROOT
ATOM      1 CL   UNL     1      31.652  -6.265 -19.846  0.00  0.00    -0.078 Cl
ATOM      2  N   UNL     1      32.168 -12.037 -20.299  0.00  0.00    -0.247 N 
ATOM      3  N   UNL     1      32.437  -9.920 -21.274  0.00  0.00    -0.337 NA
ATOM      4  N   UNL     1      31.556 -10.151 -19.043  0.00  0.00    -0.169 NA
ATOM      5  C   UNL     1      32.308  -8.584 -21.147  0.00  0.00    +0.156 C 
ATOM      6  C   UNL     1      32.048 -10.637 -20.199  0.00  0.00    +0.149 C 
ATOM      7  C   UNL     1      31.818  -7.965 -20.014  0.00  0.00    +0.108 C 
ATOM      8  C   UNL     1      31.454  -8.807 -18.984  0.00  0.00    +0.126 C 
ATOM      9  H   UNL     1      31.871 -12.517 -19.492  0.00  0.00    +0.165 HD
ENDROOT
BRANCH   2  13
ATOM     10  C   UNL     1      33.539 -14.558 -23.343  0.00  0.00    -0.024 C 
ATOM     11  C   UNL     1      34.194 -14.547 -22.121  0.00  0.00    -0.003 C 
ATOM     12  C   UNL     1      32.438 -13.748 -23.574  0.00  0.00    -0.003 C 
ATOM     13  C   UNL     1      32.631 -12.886 -21.325  0.00  0.00    +0.058 C 
ATOM     14  C   UNL     1      33.737 -13.706 -21.107  0.00  0.00    +0.015 C 
ATOM     15  C   UNL     1      31.981 -12.908 -22.559  0.00  0.00    +0.015 C 
BRANCH  10  16
ATOM     16  C   UNL     1      34.034 -15.467 -24.440  0.00  0.00    +0.004 C 
BRANCH  16  17
ATOM     17  C   UNL     1      35.279 -16.243 -24.008  0.00  0.00    -0.072 C 
BRANCH  17  19
ATOM     18  O   UNL     1      35.271 -20.140 -22.452  0.00  0.00    -0.358 OA
ATOM     19  N   UNL     1      34.915 -17.426 -23.231  0.00  0.00    +0.391 N 
ATOM     20  C   UNL     1      34.537 -18.536 -24.117  0.00  0.00    -0.045 C 
ATOM     21  C   UNL     1      36.022 -17.836 -22.356  0.00  0.00    -0.045 C 
ATOM     22  C   UNL     1      34.174 -19.762 -23.284  0.00  0.00    +0.119 C 
ATOM     23  C   UNL     1      35.624 -19.079 -21.564  0.00  0.00    +0.119 C 
ATOM     24  H   UNL     1      34.112 -17.185 -22.650  0.00  0.00    -0.079 HD
ENDBRANCH  17  19
ENDBRANCH  16  17
ENDBRANCH  10  16
ENDBRANCH   2  13
BRANCH   5  28
ATOM     25  C   UNL     1      33.559  -6.429 -24.573  0.00  0.00    -0.041 C 
ATOM     26  C   UNL     1      32.228  -6.823 -24.445  0.00  0.00    -0.006 C 
ATOM     27  C   UNL     1      34.480  -6.744 -23.573  0.00  0.00    -0.006 C 
ATOM     28  C   UNL     1      32.735  -7.847 -22.316  0.00  0.00    +0.031 C 
ATOM     29  C   UNL     1      31.816  -7.532 -23.317  0.00  0.00    +0.002 C 
ATOM     30  C   UNL     1      34.068  -7.453 -22.445  0.00  0.00    +0.002 C 
BRANCH  25  31
ATOM     31  C   UNL     1      33.999  -5.670 -25.780  0.00  0.00    -0.029 C 
ATOM     32  C   UNL     1      35.477  -5.999 -26.134  0.00  0.00    -0.018 C 
ATOM     33  C   UNL     1      33.908  -4.115 -25.675  0.00  0.00    -0.018 C 
BRANCH  31  34
ATOM     34  N   UNL     1      33.187  -6.024 -26.977  0.00  0.00    +0.385 N 
ATOM     35  H   UNL     1      32.221  -6.190 -26.695  0.00  0.00    -0.089 HD
ATOM     36  H   UNL     1      33.565  -6.868 -27.407  0.00  0.00    -0.089 HD
ATOM     37  H   UNL     1      33.218  -5.257 -27.649  0.00  0.00    -0.089 HD
ENDBRANCH  31  34
ENDBRANCH  25  31
ENDBRANCH   5  28
TORSDOF 7
ENDMDL
