MODEL 1
REMARK VINA RESULT:     -12.9      0.000      0.000
REMARK  Name = 25049750
REMARK  7 active torsions:
REMARK  status: ('A' for Active; 'I' for Inactive)
REMARK    1  A    between atoms: C_1  and  C_14
REMARK    2  A    between atoms: C_6  and  O_20
REMARK    3  A    between atoms: C_10  and  C_17
REMARK    4  A    between atoms: C_17  and  O_18
REMARK    5  A    between atoms: O_20  and  C_21
REMARK    6  A    between atoms: C_21  and  C_23
REMARK    7  A    between atoms: C_27  and  C_32
REMARK                            x       y       z     vdW  Elec       q    Type
REMARK                         _______ _______ _______ _____ _____    ______ ____
ROOT
ATOM      1  C   UNL     1      35.016 -19.965 -21.198  0.00  0.00    -0.004 C 
ATOM      2  C   UNL     1      33.636 -19.838 -21.034  0.00  0.00    +0.000 C 
ATOM      3  C   UNL     1      35.757 -20.731 -20.297  0.00  0.00    +0.000 C 
ATOM      4  C   UNL     1      32.998 -20.477 -19.971  0.00  0.00    +0.037 C 
ATOM      5  C   UNL     1      35.118 -21.369 -19.234  0.00  0.00    +0.037 C 
ATOM      6  C   UNL     1      33.739 -21.243 -19.071  0.00  0.00    +0.139 C 
ENDROOT
BRANCH   1  14
ATOM      7  O   UNL     1      33.755 -17.573 -24.786  0.00  0.00    -0.275 OA
ATOM      8  N   UNL     1      34.859 -19.212 -23.531  0.00  0.00    -0.302 N 
ATOM      9  C   UNL     1      35.136 -17.042 -22.923  0.00  0.00    +0.081 C 
ATOM     10  C   UNL     1      34.356 -15.927 -22.318  0.00  0.00    +0.108 C 
ATOM     11  C   UNL     1      35.468 -15.641 -23.292  0.00  0.00    +0.021 C 
ATOM     12  C   UNL     1      36.078 -17.803 -22.063  0.00  0.00    +0.033 C 
ATOM     13  C   UNL     1      34.485 -17.927 -23.873  0.00  0.00    +0.222 C 
ATOM     14  C   UNL     1      35.707 -19.274 -22.352  0.00  0.00    +0.095 C 
ATOM     15  H   UNL     1      34.580 -20.009 -24.038  0.00  0.00    +0.150 HD
BRANCH  10  17
ATOM     16  O   UNL     1      34.986 -16.251 -20.083  0.00  0.00    -0.250 OA
ATOM     17  C   UNL     1      34.629 -15.486 -20.967  0.00  0.00    +0.314 C 
BRANCH  17  18
ATOM     18  O   UNL     1      34.447 -14.153 -20.806  0.00  0.00    -0.480 OA
ATOM     19  H   UNL     1      35.169 -13.565 -20.910  0.00  0.00    +0.295 HD
ENDBRANCH  17  18
ENDBRANCH  10  17
ENDBRANCH   1  14
BRANCH   6  20
ATOM     20  O   UNL     1      33.112 -21.870 -18.026  0.00  0.00    -0.471 OA
BRANCH  20  21
ATOM     21  C   UNL     1      33.558 -23.180 -17.704  0.00  0.00    +0.229 C 
BRANCH  21  23
ATOM     22  N   UNL     1      33.512 -23.730 -13.461  0.00  0.00    -0.406 NA
ATOM     23  C   UNL     1      33.505 -23.367 -16.220  0.00  0.00    +0.012 C 
ATOM     24  C   UNL     1      32.303 -23.299 -15.501  0.00  0.00    +0.096 C 
ATOM     25  C   UNL     1      34.700 -23.616 -15.560  0.00  0.00    +0.028 C 
ATOM     26  C   UNL     1      32.354 -23.490 -14.104  0.00  0.00    +0.117 C 
ATOM     27  C   UNL     1      34.649 -23.788 -14.191  0.00  0.00    +0.130 C 
ATOM     28  C   UNL     1      31.077 -23.050 -16.140  0.00  0.00    -0.015 C 
ATOM     29  C   UNL     1      31.160 -23.421 -13.391  0.00  0.00    +0.028 C 
ATOM     30  C   UNL     1      29.899 -22.987 -15.403  0.00  0.00    -0.004 C 
ATOM     31  C   UNL     1      29.941 -23.174 -14.026  0.00  0.00    +0.002 C 
BRANCH  27  32
ATOM     32  C   UNL     1      35.847 -24.050 -13.430  0.00  0.00    +0.030 C 
ATOM     33  C   UNL     1      36.024 -23.452 -12.182  0.00  0.00    +0.003 C 
ATOM     34  C   UNL     1      36.827 -24.900 -13.941  0.00  0.00    +0.003 C 
ATOM     35  C   UNL     1      37.182 -23.705 -11.445  0.00  0.00    +0.000 C 
ATOM     36  C   UNL     1      37.985 -25.153 -13.204  0.00  0.00    +0.000 C 
ATOM     37  C   UNL     1      38.162 -24.554 -11.957  0.00  0.00    +0.000 C 
ENDBRANCH  27  32
ENDBRANCH  21  23
ENDBRANCH  20  21
ENDBRANCH   6  20
TORSDOF 7
ENDMDL
MODEL 2
REMARK VINA RESULT:     -12.4      1.103      4.091
REMARK  Name = 25049750
REMARK  7 active torsions:
REMARK  status: ('A' for Active; 'I' for Inactive)
REMARK    1  A    between atoms: C_1  and  C_14
REMARK    2  A    between atoms: C_6  and  O_20
REMARK    3  A    between atoms: C_10  and  C_17
REMARK    4  A    between atoms: C_17  and  O_18
REMARK    5  A    between atoms: O_20  and  C_21
REMARK    6  A    between atoms: C_21  and  C_23
REMARK    7  A    between atoms: C_27  and  C_32
REMARK                            x       y       z     vdW  Elec       q    Type
REMARK                         _______ _______ _______ _____ _____    ______ ____
ROOT
ATOM      1  C   UNL     1      35.502 -19.247 -21.486  0.00  0.00    -0.004 C 
ATOM      2  C   UNL     1      34.139 -19.527 -21.373  0.00  0.00    +0.000 C 
ATOM      3  C   UNL     1      36.410 -19.837 -20.608  0.00  0.00    +0.000 C 
ATOM      4  C   UNL     1      33.687 -20.398 -20.382  0.00  0.00    +0.037 C 
ATOM      5  C   UNL     1      35.957 -20.708 -19.617  0.00  0.00    +0.037 C 
ATOM      6  C   UNL     1      34.596 -20.989 -19.504  0.00  0.00    +0.139 C 
ENDROOT
BRANCH   1  14
ATOM      7  O   UNL     1      33.643 -16.797 -24.763  0.00  0.00    -0.275 OA
ATOM      8  N   UNL     1      35.109 -18.293 -23.717  0.00  0.00    -0.302 N 
ATOM      9  C   UNL     1      34.950 -16.193 -22.868  0.00  0.00    +0.081 C 
ATOM     10  C   UNL     1      33.976 -15.341 -22.130  0.00  0.00    +0.108 C 
ATOM     11  C   UNL     1      34.969 -14.722 -23.079  0.00  0.00    +0.021 C 
ATOM     12  C   UNL     1      36.059 -16.828 -22.112  0.00  0.00    +0.033 C 
ATOM     13  C   UNL     1      34.463 -17.087 -23.905  0.00  0.00    +0.222 C 
ATOM     14  C   UNL     1      35.992 -18.304 -22.562  0.00  0.00    +0.095 C 
ATOM     15  H   UNL     1      34.983 -19.071 -24.308  0.00  0.00    +0.150 HD
BRANCH  10  17
ATOM     16  O   UNL     1      34.804 -15.735 -19.972  0.00  0.00    -0.250 OA
ATOM     17  C   UNL     1      34.200 -15.002 -20.741  0.00  0.00    +0.314 C 
BRANCH  17  18
ATOM     18  O   UNL     1      33.672 -13.799 -20.405  0.00  0.00    -0.480 OA
ATOM     19  H   UNL     1      33.392 -13.207 -21.074  0.00  0.00    +0.295 HD
ENDBRANCH  17  18
ENDBRANCH  10  17
ENDBRANCH   1  14
BRANCH   6  20
ATOM     20  O   UNL     1      34.151 -21.845 -18.530  0.00  0.00    -0.471 OA
BRANCH  20  21
ATOM     21  C   UNL     1      35.132 -22.391 -17.660  0.00  0.00    +0.229 C 
BRANCH  21  23
ATOM     22  N   UNL     1      33.126 -23.840 -14.169  0.00  0.00    -0.406 NA
ATOM     23  C   UNL     1      34.463 -22.899 -16.421  0.00  0.00    +0.012 C 
ATOM     24  C   UNL     1      35.178 -23.185 -15.250  0.00  0.00    +0.096 C 
ATOM     25  C   UNL     1      33.089 -23.083 -16.462  0.00  0.00    +0.028 C 
ATOM     26  C   UNL     1      34.460 -23.660 -14.132  0.00  0.00    +0.117 C 
ATOM     27  C   UNL     1      32.474 -23.551 -15.318  0.00  0.00    +0.130 C 
ATOM     28  C   UNL     1      36.571 -23.009 -15.177  0.00  0.00    -0.015 C 
ATOM     29  C   UNL     1      35.171 -23.944 -12.971  0.00  0.00    +0.028 C 
ATOM     30  C   UNL     1      37.256 -23.301 -14.002  0.00  0.00    -0.004 C 
ATOM     31  C   UNL     1      36.555 -23.769 -12.897  0.00  0.00    +0.002 C 
BRANCH  27  32
ATOM     32  C   UNL     1      31.047 -23.770 -15.278  0.00  0.00    +0.030 C 
ATOM     33  C   UNL     1      30.190 -22.910 -15.964  0.00  0.00    +0.003 C 
ATOM     34  C   UNL     1      30.526 -24.842 -14.552  0.00  0.00    +0.003 C 
ATOM     35  C   UNL     1      28.811 -23.122 -15.926  0.00  0.00    +0.000 C 
ATOM     36  C   UNL     1      29.148 -25.053 -14.514  0.00  0.00    +0.000 C 
ATOM     37  C   UNL     1      28.291 -24.193 -15.200  0.00  0.00    +0.000 C 
ENDBRANCH  27  32
ENDBRANCH  21  23
ENDBRANCH  20  21
ENDBRANCH   6  20
TORSDOF 7
ENDMDL
MODEL 3
REMARK VINA RESULT:     -11.6      6.486     13.196
REMARK  Name = 25049750
REMARK  7 active torsions:
REMARK  status: ('A' for Active; 'I' for Inactive)
REMARK    1  A    between atoms: C_1  and  C_14
REMARK    2  A    between atoms: C_6  and  O_20
REMARK    3  A    between atoms: C_10  and  C_17
REMARK    4  A    between atoms: C_17  and  O_18
REMARK    5  A    between atoms: O_20  and  C_21
REMARK    6  A    between atoms: C_21  and  C_23
REMARK    7  A    between atoms: C_27  and  C_32
REMARK                            x       y       z     vdW  Elec       q    Type
REMARK                         _______ _______ _______ _____ _____    ______ ____
ROOT
ATOM      1  C   UNL     1      34.753 -15.613 -21.574  0.00  0.00    -0.004 C 
ATOM      2  C   UNL     1      34.335 -14.986 -22.748  0.00  0.00    +0.000 C 
ATOM      3  C   UNL     1      34.271 -15.175 -20.341  0.00  0.00    +0.000 C 
ATOM      4  C   UNL     1      33.435 -13.922 -22.688  0.00  0.00    +0.037 C 
ATOM      5  C   UNL     1      33.371 -14.111 -20.281  0.00  0.00    +0.037 C 
ATOM      6  C   UNL     1      32.952 -13.485 -21.455  0.00  0.00    +0.139 C 
ENDROOT
BRANCH   1  14
ATOM      7  O   UNL     1      34.697 -19.984 -20.533  0.00  0.00    -0.275 OA
ATOM      8  N   UNL     1      35.449 -17.769 -20.622  0.00  0.00    -0.302 N 
ATOM      9  C   UNL     1      35.064 -18.840 -22.587  0.00  0.00    +0.081 C 
ATOM     10  C   UNL     1      33.920 -19.355 -23.390  0.00  0.00    +0.108 C 
ATOM     11  C   UNL     1      35.267 -20.025 -23.461  0.00  0.00    +0.021 C 
ATOM     12  C   UNL     1      35.681 -17.545 -22.972  0.00  0.00    +0.033 C 
ATOM     13  C   UNL     1      35.031 -18.979 -21.141  0.00  0.00    +0.222 C 
ATOM     14  C   UNL     1      35.727 -16.768 -21.639  0.00  0.00    +0.095 C 
ATOM     15  H   UNL     1      35.550 -17.601 -19.657  0.00  0.00    +0.150 HD
BRANCH  10  17
ATOM     16  O   UNL     1      34.147 -17.754 -25.088  0.00  0.00    -0.250 OA
ATOM     17  C   UNL     1      33.526 -18.696 -24.617  0.00  0.00    +0.314 C 
BRANCH  17  18
ATOM     18  O   UNL     1      32.412 -19.237 -25.167  0.00  0.00    -0.480 OA
ATOM     19  H   UNL     1      32.119 -18.952 -26.009  0.00  0.00    +0.295 HD
ENDBRANCH  17  18
ENDBRANCH  10  17
ENDBRANCH   1  14
BRANCH   6  20
ATOM     20  O   UNL     1      32.069 -12.439 -21.396  0.00  0.00    -0.471 OA
BRANCH  20  21
ATOM     21  C   UNL     1      31.930 -11.651 -22.570  0.00  0.00    +0.229 C 
BRANCH  21  23
ATOM     22  N   UNL     1      32.778  -7.544 -21.720  0.00  0.00    -0.406 NA
ATOM     23  C   UNL     1      32.213 -10.219 -22.238  0.00  0.00    +0.012 C 
ATOM     24  C   UNL     1      31.945  -9.678 -20.973  0.00  0.00    +0.096 C 
ATOM     25  C   UNL     1      32.762  -9.425 -23.235  0.00  0.00    +0.028 C 
ATOM     26  C   UNL     1      32.247  -8.317 -20.755  0.00  0.00    +0.117 C 
ATOM     27  C   UNL     1      33.023  -8.104 -22.927  0.00  0.00    +0.130 C 
ATOM     28  C   UNL     1      31.390 -10.457 -19.943  0.00  0.00    -0.015 C 
ATOM     29  C   UNL     1      31.979  -7.781 -19.499  0.00  0.00    +0.028 C 
ATOM     30  C   UNL     1      31.133  -9.894 -18.697  0.00  0.00    -0.004 C 
ATOM     31  C   UNL     1      31.428  -8.555 -18.474  0.00  0.00    +0.002 C 
BRANCH  27  32
ATOM     32  C   UNL     1      33.592  -7.211 -23.907  0.00  0.00    +0.030 C 
ATOM     33  C   UNL     1      34.911  -6.776 -23.772  0.00  0.00    +0.003 C 
ATOM     34  C   UNL     1      32.824  -6.781 -24.990  0.00  0.00    +0.003 C 
ATOM     35  C   UNL     1      35.462  -5.913 -24.720  0.00  0.00    +0.000 C 
ATOM     36  C   UNL     1      33.375  -5.918 -25.937  0.00  0.00    +0.000 C 
ATOM     37  C   UNL     1      34.693  -5.483 -25.801  0.00  0.00    +0.000 C 
ENDBRANCH  27  32
ENDBRANCH  21  23
ENDBRANCH  20  21
ENDBRANCH   6  20
TORSDOF 7
ENDMDL
MODEL 4
REMARK VINA RESULT:     -11.5      5.371     10.197
REMARK  Name = 25049750
REMARK  7 active torsions:
REMARK  status: ('A' for Active; 'I' for Inactive)
REMARK    1  A    between atoms: C_1  and  C_14
REMARK    2  A    between atoms: C_6  and  O_20
REMARK    3  A    between atoms: C_10  and  C_17
REMARK    4  A    between atoms: C_17  and  O_18
REMARK    5  A    between atoms: O_20  and  C_21
REMARK    6  A    between atoms: C_21  and  C_23
REMARK    7  A    between atoms: C_27  and  C_32
REMARK                            x       y       z     vdW  Elec       q    Type
REMARK                         _______ _______ _______ _____ _____    ______ ____
ROOT
ATOM      1  C   UNL     1      31.788 -10.162 -20.310  0.00  0.00    -0.004 C 
ATOM      2  C   UNL     1      31.999 -10.826 -21.519  0.00  0.00    +0.000 C 
ATOM      3  C   UNL     1      31.998 -10.828 -19.102  0.00  0.00    +0.000 C 
ATOM      4  C   UNL     1      32.419 -12.156 -21.519  0.00  0.00    +0.037 C 
ATOM      5  C   UNL     1      32.419 -12.157 -19.104  0.00  0.00    +0.037 C 
ATOM      6  C   UNL     1      32.631 -12.822 -20.311  0.00  0.00    +0.139 C 
ENDROOT
BRANCH   1  14
ATOM      7  O   UNL     1      33.569  -6.186 -19.208  0.00  0.00    -0.275 OA
ATOM      8  N   UNL     1      32.016  -7.936 -19.293  0.00  0.00    -0.302 N 
ATOM      9  C   UNL     1      32.707  -7.033 -21.258  0.00  0.00    +0.081 C 
ATOM     10  C   UNL     1      33.928  -6.971 -22.109  0.00  0.00    +0.108 C 
ATOM     11  C   UNL     1      32.943  -5.832 -22.103  0.00  0.00    +0.021 C 
ATOM     12  C   UNL     1      31.623  -7.976 -21.632  0.00  0.00    +0.033 C 
ATOM     13  C   UNL     1      32.848  -6.964 -19.814  0.00  0.00    +0.222 C 
ATOM     14  C   UNL     1      31.333  -8.720 -20.310  0.00  0.00    +0.095 C 
ATOM     15  H   UNL     1      31.897  -8.084 -18.327  0.00  0.00    +0.150 HD
BRANCH  10  17
ATOM     16  O   UNL     1      33.567  -7.224 -24.412  0.00  0.00    -0.250 OA
ATOM     17  C   UNL     1      33.988  -7.691 -23.363  0.00  0.00    +0.314 C 
BRANCH  17  18
ATOM     18  O   UNL     1      34.555  -8.915 -23.236  0.00  0.00    -0.480 OA
ATOM     19  H   UNL     1      34.603  -9.488 -23.976  0.00  0.00    +0.295 HD
ENDBRANCH  17  18
ENDBRANCH  10  17
ENDBRANCH   1  14
BRANCH   6  20
ATOM     20  O   UNL     1      33.044 -14.129 -20.312  0.00  0.00    -0.471 OA
BRANCH  20  21
ATOM     21  C   UNL     1      34.433 -14.362 -20.497  0.00  0.00    +0.229 C 
BRANCH  21  23
ATOM     22  N   UNL     1      34.994 -18.013 -22.655  0.00  0.00    -0.406 NA
ATOM     23  C   UNL     1      34.620 -15.621 -21.284  0.00  0.00    +0.012 C 
ATOM     24  C   UNL     1      34.428 -15.671 -22.671  0.00  0.00    +0.096 C 
ATOM     25  C   UNL     1      34.998 -16.762 -20.590  0.00  0.00    +0.028 C 
ATOM     26  C   UNL     1      34.628 -16.905 -23.326  0.00  0.00    +0.117 C 
ATOM     27  C   UNL     1      35.170 -17.923 -21.317  0.00  0.00    +0.130 C 
ATOM     28  C   UNL     1      34.046 -14.533 -23.402  0.00  0.00    -0.015 C 
ATOM     29  C   UNL     1      34.436 -16.953 -24.703  0.00  0.00    +0.028 C 
ATOM     30  C   UNL     1      33.861 -14.610 -24.779  0.00  0.00    -0.004 C 
ATOM     31  C   UNL     1      34.057 -15.822 -25.431  0.00  0.00    +0.002 C 
BRANCH  27  32
ATOM     32  C   UNL     1      35.561 -19.153 -20.672  0.00  0.00    +0.030 C 
ATOM     33  C   UNL     1      36.897 -19.367 -20.328  0.00  0.00    +0.003 C 
ATOM     34  C   UNL     1      34.605 -20.129 -20.392  0.00  0.00    +0.003 C 
ATOM     35  C   UNL     1      37.275 -20.555 -19.704  0.00  0.00    +0.000 C 
ATOM     36  C   UNL     1      34.984 -21.318 -19.767  0.00  0.00    +0.000 C 
ATOM     37  C   UNL     1      36.319 -21.531 -19.424  0.00  0.00    +0.000 C 
ENDBRANCH  27  32
ENDBRANCH  21  23
ENDBRANCH  20  21
ENDBRANCH   6  20
TORSDOF 7
ENDMDL
MODEL 5
REMARK VINA RESULT:     -11.4      5.629     12.886
REMARK  Name = 25049750
REMARK  7 active torsions:
REMARK  status: ('A' for Active; 'I' for Inactive)
REMARK    1  A    between atoms: C_1  and  C_14
REMARK    2  A    between atoms: C_6  and  O_20
REMARK    3  A    between atoms: C_10  and  C_17
REMARK    4  A    between atoms: C_17  and  O_18
REMARK    5  A    between atoms: O_20  and  C_21
REMARK    6  A    between atoms: C_21  and  C_23
REMARK    7  A    between atoms: C_27  and  C_32
REMARK                            x       y       z     vdW  Elec       q    Type
REMARK                         _______ _______ _______ _____ _____    ______ ____
ROOT
ATOM      1  C   UNL     1      35.124 -16.602 -22.229  0.00  0.00    -0.004 C 
ATOM      2  C   UNL     1      34.928 -16.117 -20.935  0.00  0.00    +0.000 C 
ATOM      3  C   UNL     1      34.598 -15.911 -23.320  0.00  0.00    +0.000 C 
ATOM      4  C   UNL     1      34.206 -14.940 -20.735  0.00  0.00    +0.037 C 
ATOM      5  C   UNL     1      33.876 -14.734 -23.118  0.00  0.00    +0.037 C 
ATOM      6  C   UNL     1      33.681 -14.248 -21.826  0.00  0.00    +0.139 C 
ENDROOT
BRANCH   1  14
ATOM      7  O   UNL     1      37.548 -19.407 -19.690  0.00  0.00    -0.275 OA
ATOM      8  N   UNL     1      36.993 -18.015 -21.489  0.00  0.00    -0.302 N 
ATOM      9  C   UNL     1      35.592 -19.735 -21.005  0.00  0.00    +0.081 C 
ATOM     10  C   UNL     1      34.624 -20.145 -19.949  0.00  0.00    +0.108 C 
ATOM     11  C   UNL     1      35.388 -21.182 -20.729  0.00  0.00    +0.021 C 
ATOM     12  C   UNL     1      35.068 -19.161 -22.270  0.00  0.00    +0.033 C 
ATOM     13  C   UNL     1      36.824 -19.072 -20.615  0.00  0.00    +0.222 C 
ATOM     14  C   UNL     1      35.907 -17.877 -22.447  0.00  0.00    +0.095 C 
ATOM     15  H   UNL     1      37.773 -17.415 -21.466  0.00  0.00    +0.150 HD
BRANCH  10  17
ATOM     16  O   UNL     1      32.731 -19.782 -21.284  0.00  0.00    -0.250 OA
ATOM     17  C   UNL     1      33.201 -20.139 -20.214  0.00  0.00    +0.314 C 
BRANCH  17  18
ATOM     18  O   UNL     1      32.471 -20.570 -19.156  0.00  0.00    -0.480 OA
ATOM     19  H   UNL     1      31.942 -19.966 -18.674  0.00  0.00    +0.295 HD
ENDBRANCH  17  18
ENDBRANCH  10  17
ENDBRANCH   1  14
BRANCH   6  20
ATOM     20  O   UNL     1      32.971 -13.093 -21.628  0.00  0.00    -0.471 OA
BRANCH  20  21
ATOM     21  C   UNL     1      32.725 -12.288 -22.773  0.00  0.00    +0.229 C 
BRANCH  21  23
ATOM     22  N   UNL     1      32.718  -8.143 -21.708  0.00  0.00    -0.406 NA
ATOM     23  C   UNL     1      32.709 -10.847 -22.367  0.00  0.00    +0.012 C 
ATOM     24  C   UNL     1      32.256 -10.431 -21.107  0.00  0.00    +0.096 C 
ATOM     25  C   UNL     1      33.163  -9.914 -23.289  0.00  0.00    +0.028 C 
ATOM     26  C   UNL     1      32.279  -9.051 -20.816  0.00  0.00    +0.117 C 
ATOM     27  C   UNL     1      33.147  -8.586 -22.912  0.00  0.00    +0.130 C 
ATOM     28  C   UNL     1      31.791 -11.351 -20.152  0.00  0.00    -0.015 C 
ATOM     29  C   UNL     1      31.829  -8.639 -19.565  0.00  0.00    +0.028 C 
ATOM     30  C   UNL     1      31.347 -10.911 -18.909  0.00  0.00    -0.004 C 
ATOM     31  C   UNL     1      31.366  -9.553 -18.615  0.00  0.00    +0.002 C 
BRANCH  27  32
ATOM     32  C   UNL     1      33.601  -7.553 -23.812  0.00  0.00    +0.030 C 
ATOM     33  C   UNL     1      34.899  -7.052 -23.700  0.00  0.00    +0.003 C 
ATOM     34  C   UNL     1      32.744  -7.055 -24.793  0.00  0.00    +0.003 C 
ATOM     35  C   UNL     1      35.339  -6.054 -24.570  0.00  0.00    +0.000 C 
ATOM     36  C   UNL     1      33.184  -6.057 -25.663  0.00  0.00    +0.000 C 
ATOM     37  C   UNL     1      34.481  -5.556 -25.551  0.00  0.00    +0.000 C 
ENDBRANCH  27  32
ENDBRANCH  21  23
ENDBRANCH  20  21
ENDBRANCH   6  20
TORSDOF 7
ENDMDL
MODEL 6
REMARK VINA RESULT:     -10.9      3.289     10.843
REMARK  Name = 25049750
REMARK  7 active torsions:
REMARK  status: ('A' for Active; 'I' for Inactive)
REMARK    1  A    between atoms: C_1  and  C_14
REMARK    2  A    between atoms: C_6  and  O_20
REMARK    3  A    between atoms: C_10  and  C_17
REMARK    4  A    between atoms: C_17  and  O_18
REMARK    5  A    between atoms: O_20  and  C_21
REMARK    6  A    between atoms: C_21  and  C_23
REMARK    7  A    between atoms: C_27  and  C_32
REMARK                            x       y       z     vdW  Elec       q    Type
REMARK                         _______ _______ _______ _____ _____    ______ ____
ROOT
ATOM      1  C   UNL     1      35.773 -20.752 -19.649  0.00  0.00    -0.004 C 
ATOM      2  C   UNL     1      36.798 -19.850 -19.937  0.00  0.00    +0.000 C 
ATOM      3  C   UNL     1      34.462 -20.459 -20.025  0.00  0.00    +0.000 C 
ATOM      4  C   UNL     1      36.511 -18.656 -20.599  0.00  0.00    +0.037 C 
ATOM      5  C   UNL     1      34.176 -19.265 -20.687  0.00  0.00    +0.037 C 
ATOM      6  C   UNL     1      35.200 -18.364 -20.975  0.00  0.00    +0.139 C 
ENDROOT
BRANCH   1  14
ATOM      7  O   UNL     1      36.221 -22.084 -15.381  0.00  0.00    -0.275 OA
ATOM      8  N   UNL     1      36.729 -21.814 -17.651  0.00  0.00    -0.302 N 
ATOM      9  C   UNL     1      34.736 -22.760 -17.114  0.00  0.00    +0.081 C 
ATOM     10  C   UNL     1      33.428 -22.381 -16.511  0.00  0.00    +0.108 C 
ATOM     11  C   UNL     1      33.966 -23.778 -16.352  0.00  0.00    +0.021 C 
ATOM     12  C   UNL     1      34.833 -22.884 -18.590  0.00  0.00    +0.033 C 
ATOM     13  C   UNL     1      35.957 -22.192 -16.569  0.00  0.00    +0.222 C 
ATOM     14  C   UNL     1      36.084 -22.046 -18.932  0.00  0.00    +0.095 C 
ATOM     15  H   UNL     1      37.630 -21.425 -17.562  0.00  0.00    +0.150 HD
BRANCH  10  17
ATOM     16  O   UNL     1      32.264 -21.941 -18.498  0.00  0.00    -0.250 OA
ATOM     17  C   UNL     1      32.238 -22.298 -17.329  0.00  0.00    +0.314 C 
BRANCH  17  18
ATOM     18  O   UNL     1      31.117 -22.658 -16.658  0.00  0.00    -0.480 OA
ATOM     19  H   UNL     1      30.301 -22.728 -17.112  0.00  0.00    +0.295 HD
ENDBRANCH  17  18
ENDBRANCH  10  17
ENDBRANCH   1  14
BRANCH   6  20
ATOM     20  O   UNL     1      34.919 -17.191 -21.625  0.00  0.00    -0.471 OA
BRANCH  20  21
ATOM     21  C   UNL     1      35.026 -15.995 -20.866  0.00  0.00    +0.229 C 
BRANCH  21  23
ATOM     22  N   UNL     1      32.657 -12.893 -22.618  0.00  0.00    -0.406 NA
ATOM     23  C   UNL     1      34.202 -14.926 -21.512  0.00  0.00    +0.012 C 
ATOM     24  C   UNL     1      33.950 -14.908 -22.891  0.00  0.00    +0.096 C 
ATOM     25  C   UNL     1      33.683 -13.932 -20.695  0.00  0.00    +0.028 C 
ATOM     26  C   UNL     1      33.162 -13.858 -23.409  0.00  0.00    +0.117 C 
ATOM     27  C   UNL     1      32.923 -12.947 -21.293  0.00  0.00    +0.130 C 
ATOM     28  C   UNL     1      34.462 -15.900 -23.745  0.00  0.00    -0.015 C 
ATOM     29  C   UNL     1      32.913 -13.842 -24.778  0.00  0.00    +0.028 C 
ATOM     30  C   UNL     1      34.197 -15.858 -25.110  0.00  0.00    -0.004 C 
ATOM     31  C   UNL     1      33.421 -14.827 -25.627  0.00  0.00    +0.002 C 
BRANCH  27  32
ATOM     32  C   UNL     1      32.347 -11.877 -20.514  0.00  0.00    +0.030 C 
ATOM     33  C   UNL     1      32.330 -11.958 -19.121  0.00  0.00    +0.003 C 
ATOM     34  C   UNL     1      31.807 -10.761 -21.153  0.00  0.00    +0.003 C 
ATOM     35  C   UNL     1      31.774 -10.924 -18.368  0.00  0.00    +0.000 C 
ATOM     36  C   UNL     1      31.251  -9.726 -20.400  0.00  0.00    +0.000 C 
ATOM     37  C   UNL     1      31.234  -9.809 -19.008  0.00  0.00    +0.000 C 
ENDBRANCH  27  32
ENDBRANCH  21  23
ENDBRANCH  20  21
ENDBRANCH   6  20
TORSDOF 7
ENDMDL
MODEL 7
REMARK VINA RESULT:     -10.4      9.767     14.336
REMARK  Name = 25049750
REMARK  7 active torsions:
REMARK  status: ('A' for Active; 'I' for Inactive)
REMARK    1  A    between atoms: C_1  and  C_14
REMARK    2  A    between atoms: C_6  and  O_20
REMARK    3  A    between atoms: C_10  and  C_17
REMARK    4  A    between atoms: C_17  and  O_18
REMARK    5  A    between atoms: O_20  and  C_21
REMARK    6  A    between atoms: C_21  and  C_23
REMARK    7  A    between atoms: C_27  and  C_32
REMARK                            x       y       z     vdW  Elec       q    Type
REMARK                         _______ _______ _______ _____ _____    ______ ____
ROOT
ATOM      1  C   UNL     1      34.817  -5.896 -25.319  0.00  0.00    -0.004 C 
ATOM      2  C   UNL     1      35.345  -6.293 -24.089  0.00  0.00    +0.000 C 
ATOM      3  C   UNL     1      33.507  -6.236 -25.657  0.00  0.00    +0.000 C 
ATOM      4  C   UNL     1      34.564  -7.031 -23.200  0.00  0.00    +0.037 C 
ATOM      5  C   UNL     1      32.726  -6.973 -24.767  0.00  0.00    +0.037 C 
ATOM      6  C   UNL     1      33.253  -7.370 -23.538  0.00  0.00    +0.139 C 
ENDROOT
BRANCH   1  14
ATOM      7  O   UNL     1      35.304  -5.628 -29.777  0.00  0.00    -0.275 OA
ATOM      8  N   UNL     1      35.902  -5.817 -27.522  0.00  0.00    -0.302 N 
ATOM      9  C   UNL     1      34.664  -4.019 -28.145  0.00  0.00    +0.081 C 
ATOM     10  C   UNL     1      33.285  -3.700 -28.609  0.00  0.00    +0.108 C 
ATOM     11  C   UNL     1      34.454  -2.862 -29.054  0.00  0.00    +0.021 C 
ATOM     12  C   UNL     1      35.016  -3.767 -26.725  0.00  0.00    +0.033 C 
ATOM     13  C   UNL     1      35.307  -5.232 -28.622  0.00  0.00    +0.222 C 
ATOM     14  C   UNL     1      35.665  -5.096 -26.282  0.00  0.00    +0.095 C 
ATOM     15  H   UNL     1      36.436  -6.643 -27.572  0.00  0.00    +0.150 HD
BRANCH  10  17
ATOM     16  O   UNL     1      32.316  -1.786 -27.664  0.00  0.00    -0.250 OA
ATOM     17  C   UNL     1      32.359  -3.005 -27.740  0.00  0.00    +0.314 C 
BRANCH  17  18
ATOM     18  O   UNL     1      31.564  -3.850 -27.040  0.00  0.00    -0.480 OA
ATOM     19  H   UNL     1      30.635  -3.823 -27.156  0.00  0.00    +0.295 HD
ENDBRANCH  17  18
ENDBRANCH  10  17
ENDBRANCH   1  14
BRANCH   6  20
ATOM     20  O   UNL     1      32.485  -8.094 -22.664  0.00  0.00    -0.471 OA
BRANCH  20  21
ATOM     21  C   UNL     1      31.768  -9.196 -23.203  0.00  0.00    +0.229 C 
BRANCH  21  23
ATOM     22  N   UNL     1      32.805 -12.781 -21.112  0.00  0.00    -0.406 NA
ATOM     23  C   UNL     1      32.120 -10.434 -22.439  0.00  0.00    +0.012 C 
ATOM     24  C   UNL     1      31.954 -10.528 -21.051  0.00  0.00    +0.096 C 
ATOM     25  C   UNL     1      32.625 -11.509 -23.157  0.00  0.00    +0.028 C 
ATOM     26  C   UNL     1      32.314 -11.737 -20.419  0.00  0.00    +0.117 C 
ATOM     27  C   UNL     1      32.950 -12.650 -22.450  0.00  0.00    +0.130 C 
ATOM     28  C   UNL     1      31.444  -9.457 -20.297  0.00  0.00    -0.015 C 
ATOM     29  C   UNL     1      32.149 -11.829 -19.040  0.00  0.00    +0.028 C 
ATOM     30  C   UNL     1      31.289  -9.577 -18.919  0.00  0.00    -0.004 C 
ATOM     31  C   UNL     1      31.642 -10.764 -18.290  0.00  0.00    +0.002 C 
BRANCH  27  32
ATOM     32  C   UNL     1      33.482 -13.813 -23.120  0.00  0.00    +0.030 C 
ATOM     33  C   UNL     1      33.060 -14.128 -24.412  0.00  0.00    +0.003 C 
ATOM     34  C   UNL     1      34.418 -14.622 -22.476  0.00  0.00    +0.003 C 
ATOM     35  C   UNL     1      33.574 -15.251 -25.060  0.00  0.00    +0.000 C 
ATOM     36  C   UNL     1      34.932 -15.745 -23.124  0.00  0.00    +0.000 C 
ATOM     37  C   UNL     1      34.510 -16.060 -24.416  0.00  0.00    +0.000 C 
ENDBRANCH  27  32
ENDBRANCH  21  23
ENDBRANCH  20  21
ENDBRANCH   6  20
TORSDOF 7
ENDMDL
MODEL 8
REMARK VINA RESULT:     -10.4      8.765     13.743
REMARK  Name = 25049750
REMARK  7 active torsions:
REMARK  status: ('A' for Active; 'I' for Inactive)
REMARK    1  A    between atoms: C_1  and  C_14
REMARK    2  A    between atoms: C_6  and  O_20
REMARK    3  A    between atoms: C_10  and  C_17
REMARK    4  A    between atoms: C_17  and  O_18
REMARK    5  A    between atoms: O_20  and  C_21
REMARK    6  A    between atoms: C_21  and  C_23
REMARK    7  A    between atoms: C_27  and  C_32
REMARK                            x       y       z     vdW  Elec       q    Type
REMARK                         _______ _______ _______ _____ _____    ______ ____
ROOT
ATOM      1  C   UNL     1      31.592  -6.177 -23.401  0.00  0.00    -0.004 C 
ATOM      2  C   UNL     1      31.179  -7.190 -24.268  0.00  0.00    +0.000 C 
ATOM      3  C   UNL     1      32.742  -6.345 -22.631  0.00  0.00    +0.000 C 
ATOM      4  C   UNL     1      31.916  -8.370 -24.362  0.00  0.00    +0.037 C 
ATOM      5  C   UNL     1      33.478  -7.526 -22.726  0.00  0.00    +0.037 C 
ATOM      6  C   UNL     1      33.066  -8.538 -23.592  0.00  0.00    +0.139 C 
ENDROOT
BRANCH   1  14
ATOM      7  O   UNL     1      32.502  -1.786 -23.109  0.00  0.00    -0.275 OA
ATOM      8  N   UNL     1      31.528  -3.854 -22.603  0.00  0.00    -0.302 N 
ATOM      9  C   UNL     1      31.295  -3.060 -24.717  0.00  0.00    +0.081 C 
ATOM     10  C   UNL     1      32.122  -2.813 -25.931  0.00  0.00    +0.108 C 
ATOM     11  C   UNL     1      30.923  -1.951 -25.635  0.00  0.00    +0.021 C 
ATOM     12  C   UNL     1      30.442  -4.274 -24.669  0.00  0.00    +0.033 C 
ATOM     13  C   UNL     1      31.861  -2.782 -23.408  0.00  0.00    +0.222 C 
ATOM     14  C   UNL     1      30.793  -4.897 -23.301  0.00  0.00    +0.095 C 
ATOM     15  H   UNL     1      31.764  -3.906 -21.648  0.00  0.00    +0.150 HD
BRANCH  10  17
ATOM     16  O   UNL     1      31.286  -3.318 -28.063  0.00  0.00    -0.250 OA
ATOM     17  C   UNL     1      31.972  -3.646 -27.105  0.00  0.00    +0.314 C 
BRANCH  17  18
ATOM     18  O   UNL     1      32.669  -4.804 -27.016  0.00  0.00    -0.480 OA
ATOM     19  H   UNL     1      32.216  -5.623 -26.986  0.00  0.00    +0.295 HD
ENDBRANCH  17  18
ENDBRANCH  10  17
ENDBRANCH   1  14
BRANCH   6  20
ATOM     20  O   UNL     1      33.790  -9.698 -23.684  0.00  0.00    -0.471 OA
BRANCH  20  21
ATOM     21  C   UNL     1      33.082 -10.866 -24.076  0.00  0.00    +0.229 C 
BRANCH  21  23
ATOM     22  N   UNL     1      33.247 -13.786 -20.953  0.00  0.00    -0.406 NA
ATOM     23  C   UNL     1      33.122 -11.864 -22.961  0.00  0.00    +0.012 C 
ATOM     24  C   UNL     1      32.580 -11.593 -21.697  0.00  0.00    +0.096 C 
ATOM     25  C   UNL     1      33.722 -13.088 -23.216  0.00  0.00    +0.028 C 
ATOM     26  C   UNL     1      32.665 -12.597 -20.709  0.00  0.00    +0.117 C 
ATOM     27  C   UNL     1      33.759 -14.007 -22.186  0.00  0.00    +0.130 C 
ATOM     28  C   UNL     1      31.965 -10.363 -21.408  0.00  0.00    -0.015 C 
ATOM     29  C   UNL     1      32.126 -12.327 -19.455  0.00  0.00    +0.028 C 
ATOM     30  C   UNL     1      31.435 -10.120 -20.145  0.00  0.00    -0.004 C 
ATOM     31  C   UNL     1      31.515 -11.104 -19.167  0.00  0.00    +0.002 C 
BRANCH  27  32
ATOM     32  C   UNL     1      34.365 -15.304 -22.367  0.00  0.00    +0.030 C 
ATOM     33  C   UNL     1      34.410 -15.882 -23.637  0.00  0.00    +0.003 C 
ATOM     34  C   UNL     1      34.906 -15.981 -21.275  0.00  0.00    +0.003 C 
ATOM     35  C   UNL     1      34.997 -17.135 -23.813  0.00  0.00    +0.000 C 
ATOM     36  C   UNL     1      35.493 -17.234 -21.451  0.00  0.00    +0.000 C 
ATOM     37  C   UNL     1      35.537 -17.812 -22.720  0.00  0.00    +0.000 C 
ENDBRANCH  27  32
ENDBRANCH  21  23
ENDBRANCH  20  21
ENDBRANCH   6  20
TORSDOF 7
ENDMDL
MODEL 9
REMARK VINA RESULT:     -10.2      4.562      9.003
REMARK  Name = 25049750
REMARK  7 active torsions:
REMARK  status: ('A' for Active; 'I' for Inactive)
REMARK    1  A    between atoms: C_1  and  C_14
REMARK    2  A    between atoms: C_6  and  O_20
REMARK    3  A    between atoms: C_10  and  C_17
REMARK    4  A    between atoms: C_17  and  O_18
REMARK    5  A    between atoms: O_20  and  C_21
REMARK    6  A    between atoms: C_21  and  C_23
REMARK    7  A    between atoms: C_27  and  C_32
REMARK                            x       y       z     vdW  Elec       q    Type
REMARK                         _______ _______ _______ _____ _____    ______ ____
ROOT
ATOM      1  C   UNL     1      32.240 -11.953 -21.323  0.00  0.00    -0.004 C 
ATOM      2  C   UNL     1      32.900 -11.940 -22.553  0.00  0.00    +0.000 C 
ATOM      3  C   UNL     1      32.514 -12.957 -20.396  0.00  0.00    +0.000 C 
ATOM      4  C   UNL     1      33.833 -12.932 -22.854  0.00  0.00    +0.037 C 
ATOM      5  C   UNL     1      33.448 -13.949 -20.697  0.00  0.00    +0.037 C 
ATOM      6  C   UNL     1      34.108 -13.936 -21.925  0.00  0.00    +0.139 C 
ENDROOT
BRANCH   1  14
ATOM      7  O   UNL     1      32.121  -8.270 -18.752  0.00  0.00    -0.275 OA
ATOM      8  N   UNL     1      31.446 -10.313 -19.675  0.00  0.00    -0.302 N 
ATOM      9  C   UNL     1      31.848  -8.587 -21.094  0.00  0.00    +0.081 C 
ATOM     10  C   UNL     1      32.994  -7.788 -21.609  0.00  0.00    +0.108 C 
ATOM     11  C   UNL     1      31.628  -7.168 -21.479  0.00  0.00    +0.021 C 
ATOM     12  C   UNL     1      31.285  -9.662 -21.949  0.00  0.00    +0.033 C 
ATOM     13  C   UNL     1      31.837  -8.988 -19.698  0.00  0.00    +0.222 C 
ATOM     14  C   UNL     1      31.229 -10.876 -20.997  0.00  0.00    +0.095 C 
ATOM     15  H   UNL     1      31.326 -10.826 -18.843  0.00  0.00    +0.150 HD
BRANCH  10  17
ATOM     16  O   UNL     1      32.959  -7.309 -23.904  0.00  0.00    -0.250 OA
ATOM     17  C   UNL     1      33.443  -7.942 -22.977  0.00  0.00    +0.314 C 
BRANCH  17  18
ATOM     18  O   UNL     1      34.442  -8.849 -23.100  0.00  0.00    -0.480 OA
ATOM     19  H   UNL     1      35.282  -8.581 -23.413  0.00  0.00    +0.295 HD
ENDBRANCH  17  18
ENDBRANCH  10  17
ENDBRANCH   1  14
BRANCH   6  20
ATOM     20  O   UNL     1      35.025 -14.911 -22.221  0.00  0.00    -0.471 OA
BRANCH  20  21
ATOM     21  C   UNL     1      35.448 -15.740 -21.148  0.00  0.00    +0.229 C 
BRANCH  21  23
ATOM     22  N   UNL     1      34.603 -19.848 -21.994  0.00  0.00    -0.406 NA
ATOM     23  C   UNL     1      35.143 -17.168 -21.479  0.00  0.00    +0.012 C 
ATOM     24  C   UNL     1      34.714 -17.564 -22.753  0.00  0.00    +0.096 C 
ATOM     25  C   UNL     1      35.300 -18.109 -20.471  0.00  0.00    +0.028 C 
ATOM     26  C   UNL     1      34.452 -18.933 -22.970  0.00  0.00    +0.117 C 
ATOM     27  C   UNL     1      35.019 -19.425 -20.779  0.00  0.00    +0.130 C 
ATOM     28  C   UNL     1      34.546 -16.635 -23.794  0.00  0.00    -0.015 C 
ATOM     29  C   UNL     1      34.025 -19.325 -24.235  0.00  0.00    +0.028 C 
ATOM     30  C   UNL     1      34.118 -17.055 -25.050  0.00  0.00    -0.004 C 
ATOM     31  C   UNL     1      33.858 -18.402 -25.271  0.00  0.00    +0.002 C 
BRANCH  27  32
ATOM     32  C   UNL     1      35.156 -20.465 -19.788  0.00  0.00    +0.030 C 
ATOM     33  C   UNL     1      36.390 -20.688 -19.176  0.00  0.00    +0.003 C 
ATOM     34  C   UNL     1      34.055 -21.249 -19.441  0.00  0.00    +0.003 C 
ATOM     35  C   UNL     1      36.523 -21.693 -18.218  0.00  0.00    +0.000 C 
ATOM     36  C   UNL     1      34.188 -22.254 -18.483  0.00  0.00    +0.000 C 
ATOM     37  C   UNL     1      35.422 -22.476 -17.872  0.00  0.00    +0.000 C 
ENDBRANCH  27  32
ENDBRANCH  21  23
ENDBRANCH  20  21
ENDBRANCH   6  20
TORSDOF 7
ENDMDL
