MODEL 1
REMARK VINA RESULT:     -11.6      0.000      0.000
REMARK  Name = 447359
REMARK  5 active torsions:
REMARK  status: ('A' for Active; 'I' for Inactive)
REMARK    1  A    between atoms: N_2  and  S_8
REMARK    2  A    between atoms: N_3  and  C_21
REMARK    3  A    between atoms: S_8  and  C_13
REMARK    4  A    between atoms: C_21  and  C_22
REMARK    5  A    between atoms: C_25  and  C_30
REMARK                            x       y       z     vdW  Elec       q    Type
REMARK                         _______ _______ _______ _____ _____    ______ ____
ROOT
ATOM      1  O   UNL     1      37.502 -20.417 -19.838  0.00  0.00    -0.273 OA
ATOM      2  N   UNL     1      34.226 -21.558 -18.804  0.00  0.00    -0.144 NA
ATOM      3  N   UNL     1      35.411 -19.605 -20.423  0.00  0.00    -0.273 N 
ATOM      4  C   UNL     1      33.446 -21.028 -19.944  0.00  0.00    +0.118 C 
ATOM      5  C   UNL     1      33.965 -19.634 -20.225  0.00  0.00    +0.113 C 
ATOM      6  C   UNL     1      35.651 -21.720 -19.153  0.00  0.00    +0.181 C 
ATOM      7  C   UNL     1      36.271 -20.513 -19.811  0.00  0.00    +0.244 C 
ENDROOT
BRANCH   2   8
ATOM      8  S   UNL     1      33.518 -22.867 -17.958  0.00  0.00    +0.069 S 
ATOM      9  O   UNL     1      33.806 -24.090 -18.678  0.00  0.00    -0.152 OA
ATOM     10  O   UNL     1      32.172 -22.506 -17.567  0.00  0.00    -0.152 OA
BRANCH   8  13
ATOM     11 CL   UNL     1      35.933 -24.207 -10.271  0.00  0.00    -0.082 Cl
ATOM     12  S   UNL     1      33.426 -23.618 -15.140  0.00  0.00    -0.067 S 
ATOM     13  C   UNL     1      34.387 -23.036 -16.403  0.00  0.00    +0.152 C 
ATOM     14  C   UNL     1      35.669 -22.785 -16.050  0.00  0.00    +0.027 C 
ATOM     15  C   UNL     1      35.910 -23.078 -14.666  0.00  0.00    +0.008 C 
ATOM     16  C   UNL     1      34.751 -23.549 -14.040  0.00  0.00    +0.032 C 
ATOM     17  C   UNL     1      37.089 -22.964 -13.892  0.00  0.00    +0.001 C 
ATOM     18  C   UNL     1      34.743 -23.903 -12.676  0.00  0.00    +0.018 C 
ATOM     19  C   UNL     1      37.085 -23.315 -12.539  0.00  0.00    +0.011 C 
ATOM     20  C   UNL     1      35.923 -23.778 -11.940  0.00  0.00    +0.058 C 
ENDBRANCH   8  13
ENDBRANCH   2   8
BRANCH   3  21
ATOM     21  C   UNL     1      35.944 -18.433 -21.104  0.00  0.00    +0.120 C 
BRANCH  21  22
ATOM     22  C   UNL     1      35.231 -18.243 -22.408  0.00  0.00    -0.002 C 
ATOM     23  C   UNL     1      34.943 -16.958 -22.856  0.00  0.00    +0.000 C 
ATOM     24  C   UNL     1      34.860 -19.353 -23.161  0.00  0.00    -0.003 C 
ATOM     25  C   UNL     1      34.279 -16.780 -24.069  0.00  0.00    +0.030 C 
ATOM     26  C   UNL     1      34.195 -19.175 -24.374  0.00  0.00    -0.000 C 
ATOM     27  C   UNL     1      33.904 -17.889 -24.829  0.00  0.00    +0.003 C 
BRANCH  25  30
ATOM     28  N   UNL     1      34.178 -14.321 -23.737  0.00  0.00    -0.343 N 
ATOM     29  N   UNL     1      33.492 -15.266 -25.762  0.00  0.00    -0.285 NA
ATOM     30  C   UNL     1      33.975 -15.439 -24.544  0.00  0.00    +0.117 C 
ATOM     31  H   UNL     1      33.965 -13.423 -24.078  0.00  0.00    +0.144 HD
ATOM     32  H   UNL     1      34.534 -14.430 -22.826  0.00  0.00    +0.144 HD
ATOM     33  H   UNL     1      33.286 -14.359 -26.085  0.00  0.00    +0.188 HD
ENDBRANCH  25  30
ENDBRANCH  21  22
ENDBRANCH   3  21
TORSDOF 5
ENDMDL
MODEL 2
REMARK VINA RESULT:     -11.1      4.540     10.135
REMARK  Name = 447359
REMARK  5 active torsions:
REMARK  status: ('A' for Active; 'I' for Inactive)
REMARK    1  A    between atoms: N_2  and  S_8
REMARK    2  A    between atoms: N_3  and  C_21
REMARK    3  A    between atoms: S_8  and  C_13
REMARK    4  A    between atoms: C_21  and  C_22
REMARK    5  A    between atoms: C_25  and  C_30
REMARK                            x       y       z     vdW  Elec       q    Type
REMARK                         _______ _______ _______ _____ _____    ______ ____
ROOT
ATOM      1  O   UNL     1      33.654 -24.313 -13.389  0.00  0.00    -0.273 OA
ATOM      2  N   UNL     1      34.188 -22.782 -16.625  0.00  0.00    -0.144 NA
ATOM      3  N   UNL     1      35.466 -23.086 -14.153  0.00  0.00    -0.273 N 
ATOM      4  C   UNL     1      35.666 -22.719 -16.590  0.00  0.00    +0.118 C 
ATOM      5  C   UNL     1      36.056 -22.260 -15.202  0.00  0.00    +0.113 C 
ATOM      6  C   UNL     1      33.669 -23.808 -15.700  0.00  0.00    +0.181 C 
ATOM      7  C   UNL     1      34.246 -23.738 -14.308  0.00  0.00    +0.244 C 
ENDROOT
BRANCH   2   8
ATOM      8  S   UNL     1      33.476 -22.762 -18.182  0.00  0.00    +0.069 S 
ATOM      9  O   UNL     1      32.113 -22.288 -18.059  0.00  0.00    -0.152 OA
ATOM     10  O   UNL     1      33.801 -23.994 -18.869  0.00  0.00    -0.152 OA
BRANCH   8  13
ATOM     11 CL   UNL     1      35.669 -16.576 -23.044  0.00  0.00    -0.082 Cl
ATOM     12  S   UNL     1      33.272 -20.517 -20.034  0.00  0.00    -0.067 S 
ATOM     13  C   UNL     1      34.313 -21.503 -19.139  0.00  0.00    +0.152 C 
ATOM     14  C   UNL     1      35.623 -21.192 -19.280  0.00  0.00    +0.027 C 
ATOM     15  C   UNL     1      35.817 -20.083 -20.169  0.00  0.00    +0.008 C 
ATOM     16  C   UNL     1      34.597 -19.609 -20.661  0.00  0.00    +0.032 C 
ATOM     17  C   UNL     1      37.004 -19.439 -20.592  0.00  0.00    +0.001 C 
ATOM     18  C   UNL     1      34.535 -18.521 -21.555  0.00  0.00    +0.018 C 
ATOM     19  C   UNL     1      36.947 -18.359 -21.478  0.00  0.00    +0.011 C 
ATOM     20  C   UNL     1      35.724 -17.908 -21.953  0.00  0.00    +0.058 C 
ENDBRANCH   8  13
ENDBRANCH   2   8
BRANCH   3  21
ATOM     21  C   UNL     1      36.096 -23.008 -12.842  0.00  0.00    +0.120 C 
BRANCH  21  22
ATOM     22  C   UNL     1      36.982 -24.199 -12.639  0.00  0.00    -0.002 C 
ATOM     23  C   UNL     1      38.068 -24.402 -13.485  0.00  0.00    +0.000 C 
ATOM     24  C   UNL     1      36.712 -25.094 -11.609  0.00  0.00    -0.003 C 
ATOM     25  C   UNL     1      38.893 -25.512 -13.298  0.00  0.00    +0.030 C 
ATOM     26  C   UNL     1      37.537 -26.203 -11.422  0.00  0.00    -0.000 C 
ATOM     27  C   UNL     1      38.627 -26.413 -12.266  0.00  0.00    +0.003 C 
BRANCH  25  30
ATOM     28  N   UNL     1      40.150 -25.053 -15.389  0.00  0.00    -0.343 N 
ATOM     29  N   UNL     1      40.973 -26.590 -13.833  0.00  0.00    -0.285 NA
ATOM     30  C   UNL     1      40.030 -25.731 -14.178  0.00  0.00    +0.117 C 
ATOM     31  H   UNL     1      40.928 -25.216 -15.970  0.00  0.00    +0.144 HD
ATOM     32  H   UNL     1      39.457 -24.411 -15.665  0.00  0.00    +0.144 HD
ATOM     33  H   UNL     1      41.743 -26.740 -14.427  0.00  0.00    +0.188 HD
ENDBRANCH  25  30
ENDBRANCH  21  22
ENDBRANCH   3  21
TORSDOF 5
ENDMDL
MODEL 3
REMARK VINA RESULT:     -10.6      1.469      2.093
REMARK  Name = 447359
REMARK  5 active torsions:
REMARK  status: ('A' for Active; 'I' for Inactive)
REMARK    1  A    between atoms: N_2  and  S_8
REMARK    2  A    between atoms: N_3  and  C_21
REMARK    3  A    between atoms: S_8  and  C_13
REMARK    4  A    between atoms: C_21  and  C_22
REMARK    5  A    between atoms: C_25  and  C_30
REMARK                            x       y       z     vdW  Elec       q    Type
REMARK                         _______ _______ _______ _____ _____    ______ ____
ROOT
ATOM      1  O   UNL     1      37.639 -19.280 -19.954  0.00  0.00    -0.273 OA
ATOM      2  N   UNL     1      34.347 -20.754 -19.641  0.00  0.00    -0.144 NA
ATOM      3  N   UNL     1      35.716 -18.856 -21.178  0.00  0.00    -0.273 N 
ATOM      4  C   UNL     1      33.861 -20.481 -21.011  0.00  0.00    +0.118 C 
ATOM      5  C   UNL     1      34.284 -19.070 -21.359  0.00  0.00    +0.113 C 
ATOM      6  C   UNL     1      35.822 -20.747 -19.581  0.00  0.00    +0.181 C 
ATOM      7  C   UNL     1      36.466 -19.550 -20.232  0.00  0.00    +0.244 C 
ENDROOT
BRANCH   2   8
ATOM      8  S   UNL     1      33.577 -22.041 -18.817  0.00  0.00    +0.069 S 
ATOM      9  O   UNL     1      33.660 -23.230 -19.642  0.00  0.00    -0.152 OA
ATOM     10  O   UNL     1      32.322 -21.573 -18.271  0.00  0.00    -0.152 OA
BRANCH   8  13
ATOM     11 CL   UNL     1      36.557 -24.394 -11.585  0.00  0.00    -0.082 Cl
ATOM     12  S   UNL     1      33.691 -23.153 -16.122  0.00  0.00    -0.067 S 
ATOM     13  C   UNL     1      34.562 -22.420 -17.372  0.00  0.00    +0.152 C 
ATOM     14  C   UNL     1      35.872 -22.228 -17.092  0.00  0.00    +0.027 C 
ATOM     15  C   UNL     1      36.214 -22.702 -15.781  0.00  0.00    +0.008 C 
ATOM     16  C   UNL     1      35.099 -23.240 -15.131  0.00  0.00    +0.032 C 
ATOM     17  C   UNL     1      37.452 -22.700 -15.095  0.00  0.00    +0.001 C 
ATOM     18  C   UNL     1      35.190 -23.768 -13.828  0.00  0.00    +0.018 C 
ATOM     19  C   UNL     1      37.547 -23.224 -13.803  0.00  0.00    +0.011 C 
ATOM     20  C   UNL     1      36.426 -23.752 -13.178  0.00  0.00    +0.058 C 
ENDBRANCH   8  13
ENDBRANCH   2   8
BRANCH   3  21
ATOM     21  C   UNL     1      36.288 -17.708 -21.869  0.00  0.00    +0.120 C 
BRANCH  21  22
ATOM     22  C   UNL     1      35.369 -16.533 -21.736  0.00  0.00    -0.002 C 
ATOM     23  C   UNL     1      34.882 -15.904 -22.877  0.00  0.00    +0.000 C 
ATOM     24  C   UNL     1      35.008 -16.077 -20.471  0.00  0.00    -0.003 C 
ATOM     25  C   UNL     1      34.027 -14.809 -22.754  0.00  0.00    +0.030 C 
ATOM     26  C   UNL     1      34.154 -14.982 -20.348  0.00  0.00    -0.000 C 
ATOM     27  C   UNL     1      33.662 -14.347 -21.488  0.00  0.00    +0.003 C 
BRANCH  25  30
ATOM     28  N   UNL     1      33.032 -14.877 -25.028  0.00  0.00    -0.343 N 
ATOM     29  N   UNL     1      33.504 -12.827 -24.009  0.00  0.00    -0.285 NA
ATOM     30  C   UNL     1      33.514 -14.147 -23.943  0.00  0.00    +0.117 C 
ATOM     31  H   UNL     1      32.690 -14.408 -25.823  0.00  0.00    +0.144 HD
ATOM     32  H   UNL     1      33.034 -15.860 -24.999  0.00  0.00    +0.144 HD
ATOM     33  H   UNL     1      33.158 -12.377 -24.813  0.00  0.00    +0.188 HD
ENDBRANCH  25  30
ENDBRANCH  21  22
ENDBRANCH   3  21
TORSDOF 5
ENDMDL
MODEL 4
REMARK VINA RESULT:     -10.4      4.657     10.168
REMARK  Name = 447359
REMARK  5 active torsions:
REMARK  status: ('A' for Active; 'I' for Inactive)
REMARK    1  A    between atoms: N_2  and  S_8
REMARK    2  A    between atoms: N_3  and  C_21
REMARK    3  A    between atoms: S_8  and  C_13
REMARK    4  A    between atoms: C_21  and  C_22
REMARK    5  A    between atoms: C_25  and  C_30
REMARK                            x       y       z     vdW  Elec       q    Type
REMARK                         _______ _______ _______ _____ _____    ______ ____
ROOT
ATOM      1  O   UNL     1      32.379 -20.878 -19.299  0.00  0.00    -0.273 OA
ATOM      2  N   UNL     1      35.637 -19.781 -20.432  0.00  0.00    -0.144 NA
ATOM      3  N   UNL     1      34.481 -21.650 -18.698  0.00  0.00    -0.273 N 
ATOM      4  C   UNL     1      36.396 -21.014 -20.128  0.00  0.00    +0.118 C 
ATOM      5  C   UNL     1      35.931 -21.496 -18.770  0.00  0.00    +0.113 C 
ATOM      6  C   UNL     1      34.195 -20.055 -20.573  0.00  0.00    +0.181 C 
ATOM      7  C   UNL     1      33.605 -20.875 -19.453  0.00  0.00    +0.244 C 
ENDROOT
BRANCH   2   8
ATOM      8  S   UNL     1      36.318 -18.762 -21.627  0.00  0.00    +0.069 S 
ATOM      9  O   UNL     1      35.979 -19.292 -22.932  0.00  0.00    -0.152 OA
ATOM     10  O   UNL     1      37.681 -18.443 -21.259  0.00  0.00    -0.152 OA
BRANCH   8  13
ATOM     11 CL   UNL     1      32.621 -11.603 -22.972  0.00  0.00    -0.082 Cl
ATOM     12  S   UNL     1      35.224 -16.457 -23.043  0.00  0.00    -0.067 S 
ATOM     13  C   UNL     1      35.469 -17.188 -21.539  0.00  0.00    +0.152 C 
ATOM     14  C   UNL     1      34.988 -16.476 -20.494  0.00  0.00    +0.027 C 
ATOM     15  C   UNL     1      34.373 -15.251 -20.920  0.00  0.00    +0.008 C 
ATOM     16  C   UNL     1      34.434 -15.111 -22.310  0.00  0.00    +0.032 C 
ATOM     17  C   UNL     1      33.752 -14.224 -20.171  0.00  0.00    +0.001 C 
ATOM     18  C   UNL     1      33.894 -13.984 -22.961  0.00  0.00    +0.018 C 
ATOM     19  C   UNL     1      33.215 -13.105 -20.813  0.00  0.00    +0.011 C 
ATOM     20  C   UNL     1      33.287 -12.988 -22.194  0.00  0.00    +0.058 C 
ENDBRANCH   8  13
ENDBRANCH   2   8
BRANCH   3  21
ATOM     21  C   UNL     1      33.976 -22.490 -17.621  0.00  0.00    +0.120 C 
BRANCH  21  22
ATOM     22  C   UNL     1      35.076 -22.768 -16.643  0.00  0.00    -0.002 C 
ATOM     23  C   UNL     1      35.073 -23.958 -15.921  0.00  0.00    +0.000 C 
ATOM     24  C   UNL     1      36.092 -21.835 -16.462  0.00  0.00    -0.003 C 
ATOM     25  C   UNL     1      36.097 -24.217 -15.009  0.00  0.00    +0.030 C 
ATOM     26  C   UNL     1      37.115 -22.094 -15.550  0.00  0.00    -0.000 C 
ATOM     27  C   UNL     1      37.118 -23.284 -14.823  0.00  0.00    +0.003 C 
BRANCH  25  30
ATOM     28  N   UNL     1      36.081 -25.457 -12.858  0.00  0.00    -0.343 N 
ATOM     29  N   UNL     1      36.127 -26.616 -14.887  0.00  0.00    -0.285 NA
ATOM     30  C   UNL     1      36.101 -25.458 -14.251  0.00  0.00    +0.117 C 
ATOM     31  H   UNL     1      36.083 -26.309 -12.365  0.00  0.00    +0.144 HD
ATOM     32  H   UNL     1      36.064 -24.604 -12.367  0.00  0.00    +0.144 HD
ATOM     33  H   UNL     1      36.129 -27.458 -14.375  0.00  0.00    +0.188 HD
ENDBRANCH  25  30
ENDBRANCH  21  22
ENDBRANCH   3  21
TORSDOF 5
ENDMDL
MODEL 5
REMARK VINA RESULT:     -10.3      4.645      9.693
REMARK  Name = 447359
REMARK  5 active torsions:
REMARK  status: ('A' for Active; 'I' for Inactive)
REMARK    1  A    between atoms: N_2  and  S_8
REMARK    2  A    between atoms: N_3  and  C_21
REMARK    3  A    between atoms: S_8  and  C_13
REMARK    4  A    between atoms: C_21  and  C_22
REMARK    5  A    between atoms: C_25  and  C_30
REMARK                            x       y       z     vdW  Elec       q    Type
REMARK                         _______ _______ _______ _____ _____    ______ ____
ROOT
ATOM      1  O   UNL     1      31.987 -20.399 -19.464  0.00  0.00    -0.273 OA
ATOM      2  N   UNL     1      35.440 -19.834 -20.392  0.00  0.00    -0.144 NA
ATOM      3  N   UNL     1      33.855 -21.706 -19.043  0.00  0.00    -0.273 N 
ATOM      4  C   UNL     1      35.908 -21.237 -20.340  0.00  0.00    +0.118 C 
ATOM      5  C   UNL     1      35.306 -21.858 -19.097  0.00  0.00    +0.113 C 
ATOM      6  C   UNL     1      33.978 -19.758 -20.570  0.00  0.00    +0.181 C 
ATOM      7  C   UNL     1      33.190 -20.631 -19.626  0.00  0.00    +0.244 C 
ENDROOT
BRANCH   2   8
ATOM      8  S   UNL     1      36.362 -18.776 -21.372  0.00  0.00    +0.069 S 
ATOM      9  O   UNL     1      36.303 -19.248 -22.741  0.00  0.00    -0.152 OA
ATOM     10  O   UNL     1      37.618 -18.491 -20.713  0.00  0.00    -0.152 OA
BRANCH   8  13
ATOM     11 CL   UNL     1      32.759 -11.684 -23.225  0.00  0.00    -0.082 Cl
ATOM     12  S   UNL     1      35.332 -16.546 -22.946  0.00  0.00    -0.067 S 
ATOM     13  C   UNL     1      35.520 -17.197 -21.398  0.00  0.00    +0.152 C 
ATOM     14  C   UNL     1      35.007 -16.427 -20.410  0.00  0.00    +0.027 C 
ATOM     15  C   UNL     1      34.416 -15.224 -20.922  0.00  0.00    +0.008 C 
ATOM     16  C   UNL     1      34.525 -15.159 -22.314  0.00  0.00    +0.032 C 
ATOM     17  C   UNL     1      33.775 -14.156 -20.251  0.00  0.00    +0.001 C 
ATOM     18  C   UNL     1      34.016 -14.066 -23.043  0.00  0.00    +0.018 C 
ATOM     19  C   UNL     1      33.268 -13.070 -20.970  0.00  0.00    +0.011 C 
ATOM     20  C   UNL     1      33.389 -13.028 -22.352  0.00  0.00    +0.058 C 
ENDBRANCH   8  13
ENDBRANCH   2   8
BRANCH   3  21
ATOM     21  C   UNL     1      33.146 -22.608 -18.145  0.00  0.00    +0.120 C 
BRANCH  21  22
ATOM     22  C   UNL     1      33.936 -22.784 -16.885  0.00  0.00    -0.002 C 
ATOM     23  C   UNL     1      35.292 -22.471 -16.871  0.00  0.00    +0.000 C 
ATOM     24  C   UNL     1      33.310 -23.261 -15.737  0.00  0.00    -0.003 C 
ATOM     25  C   UNL     1      36.029 -22.636 -15.697  0.00  0.00    +0.030 C 
ATOM     26  C   UNL     1      34.047 -23.427 -14.565  0.00  0.00    -0.000 C 
ATOM     27  C   UNL     1      35.406 -23.114 -14.544  0.00  0.00    +0.003 C 
BRANCH  25  30
ATOM     28  N   UNL     1      37.903 -21.038 -16.013  0.00  0.00    -0.343 N 
ATOM     29  N   UNL     1      38.328 -23.234 -15.333  0.00  0.00    -0.285 NA
ATOM     30  C   UNL     1      37.446 -22.310 -15.675  0.00  0.00    +0.117 C 
ATOM     31  H   UNL     1      38.867 -20.839 -15.991  0.00  0.00    +0.144 HD
ATOM     32  H   UNL     1      37.262 -20.338 -16.273  0.00  0.00    +0.144 HD
ATOM     33  H   UNL     1      39.288 -23.015 -15.317  0.00  0.00    +0.188 HD
ENDBRANCH  25  30
ENDBRANCH  21  22
ENDBRANCH   3  21
TORSDOF 5
ENDMDL
MODEL 6
REMARK VINA RESULT:     -10.2      7.943     12.344
REMARK  Name = 447359
REMARK  5 active torsions:
REMARK  status: ('A' for Active; 'I' for Inactive)
REMARK    1  A    between atoms: N_2  and  S_8
REMARK    2  A    between atoms: N_3  and  C_21
REMARK    3  A    between atoms: S_8  and  C_13
REMARK    4  A    between atoms: C_21  and  C_22
REMARK    5  A    between atoms: C_25  and  C_30
REMARK                            x       y       z     vdW  Elec       q    Type
REMARK                         _______ _______ _______ _____ _____    ______ ____
ROOT
ATOM      1  O   UNL     1      35.096 -15.151 -20.510  0.00  0.00    -0.273 OA
ATOM      2  N   UNL     1      32.717 -12.595 -21.462  0.00  0.00    -0.144 NA
ATOM      3  N   UNL     1      34.408 -14.500 -22.625  0.00  0.00    -0.273 N 
ATOM      4  C   UNL     1      32.362 -13.121 -22.798  0.00  0.00    +0.118 C 
ATOM      5  C   UNL     1      33.651 -13.567 -23.455  0.00  0.00    +0.113 C 
ATOM      6  C   UNL     1      33.268 -13.654 -20.594  0.00  0.00    +0.181 C 
ATOM      7  C   UNL     1      34.354 -14.481 -21.234  0.00  0.00    +0.244 C 
ENDROOT
BRANCH   2   8
ATOM      8  S   UNL     1      31.559 -11.567 -20.732  0.00  0.00    +0.069 S 
ATOM      9  O   UNL     1      31.794 -11.549 -19.303  0.00  0.00    -0.152 OA
ATOM     10  O   UNL     1      30.254 -11.849 -21.291  0.00  0.00    -0.152 OA
BRANCH   8  13
ATOM     11 CL   UNL     1      33.210  -4.676 -24.796  0.00  0.00    -0.082 Cl
ATOM     12  S   UNL     1      32.128  -9.749 -22.942  0.00  0.00    -0.067 S 
ATOM     13  C   UNL     1      31.908  -9.897 -21.273  0.00  0.00    +0.152 C 
ATOM     14  C   UNL     1      32.028  -8.731 -20.596  0.00  0.00    +0.027 C 
ATOM     15  C   UNL     1      32.317  -7.631 -21.471  0.00  0.00    +0.008 C 
ATOM     16  C   UNL     1      32.401  -8.052 -22.802  0.00  0.00    +0.032 C 
ATOM     17  C   UNL     1      32.518  -6.259 -21.189  0.00  0.00    +0.001 C 
ATOM     18  C   UNL     1      32.678  -7.146 -23.845  0.00  0.00    +0.018 C 
ATOM     19  C   UNL     1      32.792  -5.357 -22.221  0.00  0.00    +0.011 C 
ATOM     20  C   UNL     1      32.871  -5.799 -23.534  0.00  0.00    +0.058 C 
ENDBRANCH   8  13
ENDBRANCH   2   8
BRANCH   3  21
ATOM     21  C   UNL     1      35.412 -15.302 -23.310  0.00  0.00    +0.120 C 
BRANCH  21  22
ATOM     22  C   UNL     1      35.046 -16.752 -23.215  0.00  0.00    -0.002 C 
ATOM     23  C   UNL     1      35.407 -17.482 -22.087  0.00  0.00    +0.000 C 
ATOM     24  C   UNL     1      34.348 -17.359 -24.255  0.00  0.00    -0.003 C 
ATOM     25  C   UNL     1      35.068 -18.832 -21.998  0.00  0.00    +0.030 C 
ATOM     26  C   UNL     1      34.009 -18.708 -24.166  0.00  0.00    -0.000 C 
ATOM     27  C   UNL     1      34.369 -19.446 -23.038  0.00  0.00    +0.003 C 
BRANCH  25  30
ATOM     28  N   UNL     1      36.683 -19.433 -20.211  0.00  0.00    -0.343 N 
ATOM     29  N   UNL     1      34.598 -20.484 -20.317  0.00  0.00    -0.285 NA
ATOM     30  C   UNL     1      35.442 -19.602 -20.822  0.00  0.00    +0.117 C 
ATOM     31  H   UNL     1      36.916 -19.965 -19.415  0.00  0.00    +0.144 HD
ATOM     32  H   UNL     1      37.326 -18.783 -20.574  0.00  0.00    +0.144 HD
ATOM     33  H   UNL     1      34.850 -21.006 -19.521  0.00  0.00    +0.188 HD
ENDBRANCH  25  30
ENDBRANCH  21  22
ENDBRANCH   3  21
TORSDOF 5
ENDMDL
MODEL 7
REMARK VINA RESULT:     -10.1      9.382     13.024
REMARK  Name = 447359
REMARK  5 active torsions:
REMARK  status: ('A' for Active; 'I' for Inactive)
REMARK    1  A    between atoms: N_2  and  S_8
REMARK    2  A    between atoms: N_3  and  C_21
REMARK    3  A    between atoms: S_8  and  C_13
REMARK    4  A    between atoms: C_21  and  C_22
REMARK    5  A    between atoms: C_25  and  C_30
REMARK                            x       y       z     vdW  Elec       q    Type
REMARK                         _______ _______ _______ _____ _____    ______ ____
ROOT
ATOM      1  O   UNL     1      31.926  -8.110 -25.217  0.00  0.00    -0.273 OA
ATOM      2  N   UNL     1      32.290  -9.620 -21.947  0.00  0.00    -0.144 NA
ATOM      3  N   UNL     1      33.092  -7.343 -23.366  0.00  0.00    -0.273 N 
ATOM      4  C   UNL     1      32.608  -8.395 -21.181  0.00  0.00    +0.118 C 
ATOM      5  C   UNL     1      33.584  -7.592 -22.015  0.00  0.00    +0.113 C 
ATOM      6  C   UNL     1      31.584  -9.303 -23.203  0.00  0.00    +0.181 C 
ATOM      7  C   UNL     1      32.232  -8.218 -24.026  0.00  0.00    +0.244 C 
ENDROOT
BRANCH   2   8
ATOM      8  S   UNL     1      31.643 -10.920 -21.041  0.00  0.00    +0.069 S 
ATOM      9  O   UNL     1      30.308 -11.200 -21.527  0.00  0.00    -0.152 OA
ATOM     10  O   UNL     1      31.919 -10.704 -19.637  0.00  0.00    -0.152 OA
BRANCH   8  13
ATOM     11 CL   UNL     1      35.952 -17.858 -21.155  0.00  0.00    -0.082 Cl
ATOM     12  S   UNL     1      33.025 -13.313 -20.103  0.00  0.00    -0.067 S 
ATOM     13  C   UNL     1      32.593 -12.382 -21.447  0.00  0.00    +0.152 C 
ATOM     14  C   UNL     1      33.029 -12.881 -22.627  0.00  0.00    +0.027 C 
ATOM     15  C   UNL     1      33.765 -14.101 -22.452  0.00  0.00    +0.008 C 
ATOM     16  C   UNL     1      33.841 -14.457 -21.102  0.00  0.00    +0.032 C 
ATOM     17  C   UNL     1      34.388 -14.944 -23.403  0.00  0.00    +0.001 C 
ATOM     18  C   UNL     1      34.517 -15.620 -20.684  0.00  0.00    +0.018 C 
ATOM     19  C   UNL     1      35.059 -16.099 -22.992  0.00  0.00    +0.011 C 
ATOM     20  C   UNL     1      35.122 -16.431 -21.647  0.00  0.00    +0.058 C 
ENDBRANCH   8  13
ENDBRANCH   2   8
BRANCH   3  21
ATOM     21  C   UNL     1      33.729  -6.253 -24.093  0.00  0.00    +0.120 C 
BRANCH  21  22
ATOM     22  C   UNL     1      32.768  -5.113 -24.230  0.00  0.00    -0.002 C 
ATOM     23  C   UNL     1      32.135  -4.604 -23.100  0.00  0.00    +0.000 C 
ATOM     24  C   UNL     1      32.513  -4.570 -25.486  0.00  0.00    -0.003 C 
ATOM     25  C   UNL     1      31.239  -3.542 -23.228  0.00  0.00    +0.030 C 
ATOM     26  C   UNL     1      31.617  -3.510 -25.613  0.00  0.00    -0.000 C 
ATOM     27  C   UNL     1      30.979  -2.995 -24.485  0.00  0.00    +0.003 C 
BRANCH  25  30
ATOM     28  N   UNL     1      29.626  -3.750 -21.351  0.00  0.00    -0.343 N 
ATOM     29  N   UNL     1      30.864  -1.787 -21.629  0.00  0.00    -0.285 NA
ATOM     30  C   UNL     1      30.574  -3.006 -22.051  0.00  0.00    +0.117 C 
ATOM     31  H   UNL     1      29.188  -3.367 -20.557  0.00  0.00    +0.144 HD
ATOM     32  H   UNL     1      29.394  -4.658 -21.651  0.00  0.00    +0.144 HD
ATOM     33  H   UNL     1      30.415  -1.422 -20.833  0.00  0.00    +0.188 HD
ENDBRANCH  25  30
ENDBRANCH  21  22
ENDBRANCH   3  21
TORSDOF 5
ENDMDL
MODEL 8
REMARK VINA RESULT:     -10.0     10.398     14.928
REMARK  Name = 447359
REMARK  5 active torsions:
REMARK  status: ('A' for Active; 'I' for Inactive)
REMARK    1  A    between atoms: N_2  and  S_8
REMARK    2  A    between atoms: N_3  and  C_21
REMARK    3  A    between atoms: S_8  and  C_13
REMARK    4  A    between atoms: C_21  and  C_22
REMARK    5  A    between atoms: C_25  and  C_30
REMARK                            x       y       z     vdW  Elec       q    Type
REMARK                         _______ _______ _______ _____ _____    ______ ____
ROOT
ATOM      1  O   UNL     1      31.763 -11.176 -18.563  0.00  0.00    -0.273 OA
ATOM      2  N   UNL     1      32.412  -8.528 -20.944  0.00  0.00    -0.144 NA
ATOM      3  N   UNL     1      31.520 -11.181 -20.868  0.00  0.00    -0.273 N 
ATOM      4  C   UNL     1      31.529  -9.000 -22.034  0.00  0.00    +0.118 C 
ATOM      5  C   UNL     1      31.722 -10.497 -22.142  0.00  0.00    +0.113 C 
ATOM      6  C   UNL     1      32.004  -9.084 -19.640  0.00  0.00    +0.181 C 
ATOM      7  C   UNL     1      31.778 -10.575 -19.642  0.00  0.00    +0.244 C 
ENDROOT
BRANCH   2   8
ATOM      8  S   UNL     1      32.783  -6.857 -20.954  0.00  0.00    +0.069 S 
ATOM      9  O   UNL     1      33.973  -6.645 -20.157  0.00  0.00    -0.152 OA
ATOM     10  O   UNL     1      31.569  -6.100 -20.737  0.00  0.00    -0.152 OA
BRANCH   8  13
ATOM     11 CL   UNL     1      33.355  -4.258 -28.677  0.00  0.00    -0.082 Cl
ATOM     12  S   UNL     1      32.047  -5.668 -23.515  0.00  0.00    -0.067 S 
ATOM     13  C   UNL     1      33.267  -6.424 -22.622  0.00  0.00    +0.152 C 
ATOM     14  C   UNL     1      34.426  -6.589 -23.301  0.00  0.00    +0.027 C 
ATOM     15  C   UNL     1      34.341  -6.073 -24.637  0.00  0.00    +0.008 C 
ATOM     16  C   UNL     1      33.077  -5.534 -24.892  0.00  0.00    +0.032 C 
ATOM     17  C   UNL     1      35.305  -6.038 -25.673  0.00  0.00    +0.001 C 
ATOM     18  C   UNL     1      32.756  -4.967 -26.141  0.00  0.00    +0.018 C 
ATOM     19  C   UNL     1      34.990  -5.477 -26.914  0.00  0.00    +0.011 C 
ATOM     20  C   UNL     1      33.728  -4.948 -27.143  0.00  0.00    +0.058 C 
ENDBRANCH   8  13
ENDBRANCH   2   8
BRANCH   3  21
ATOM     21  C   UNL     1      31.262 -12.613 -20.940  0.00  0.00    +0.120 C 
BRANCH  21  22
ATOM     22  C   UNL     1      32.474 -13.315 -21.469  0.00  0.00    -0.002 C 
ATOM     23  C   UNL     1      32.476 -13.801 -22.773  0.00  0.00    +0.000 C 
ATOM     24  C   UNL     1      33.590 -13.479 -20.654  0.00  0.00    -0.003 C 
ATOM     25  C   UNL     1      33.604 -14.456 -23.267  0.00  0.00    +0.030 C 
ATOM     26  C   UNL     1      34.718 -14.135 -21.147  0.00  0.00    -0.000 C 
ATOM     27  C   UNL     1      34.725 -14.624 -22.454  0.00  0.00    +0.003 C 
BRANCH  25  30
ATOM     28  N   UNL     1      32.775 -14.434 -25.608  0.00  0.00    -0.343 N 
ATOM     29  N   UNL     1      34.424 -15.957 -24.955  0.00  0.00    -0.285 NA
ATOM     30  C   UNL     1      33.613 -14.967 -24.629  0.00  0.00    +0.117 C 
ATOM     31  H   UNL     1      32.798 -14.794 -26.523  0.00  0.00    +0.144 HD
ATOM     32  H   UNL     1      32.162 -13.698 -25.383  0.00  0.00    +0.144 HD
ATOM     33  H   UNL     1      34.431 -16.304 -25.877  0.00  0.00    +0.188 HD
ENDBRANCH  25  30
ENDBRANCH  21  22
ENDBRANCH   3  21
TORSDOF 5
ENDMDL
MODEL 9
REMARK VINA RESULT:     -10.0     10.201     15.217
REMARK  Name = 447359
REMARK  5 active torsions:
REMARK  status: ('A' for Active; 'I' for Inactive)
REMARK    1  A    between atoms: N_2  and  S_8
REMARK    2  A    between atoms: N_3  and  C_21
REMARK    3  A    between atoms: S_8  and  C_13
REMARK    4  A    between atoms: C_21  and  C_22
REMARK    5  A    between atoms: C_25  and  C_30
REMARK                            x       y       z     vdW  Elec       q    Type
REMARK                         _______ _______ _______ _____ _____    ______ ____
ROOT
ATOM      1  O   UNL     1      33.778 -11.351 -24.160  0.00  0.00    -0.273 OA
ATOM      2  N   UNL     1      32.403  -8.676 -22.146  0.00  0.00    -0.144 NA
ATOM      3  N   UNL     1      32.188 -11.448 -22.476  0.00  0.00    -0.273 N 
ATOM      4  C   UNL     1      31.962  -9.485 -20.989  0.00  0.00    +0.118 C 
ATOM      5  C   UNL     1      31.318 -10.737 -21.544  0.00  0.00    +0.113 C 
ATOM      6  C   UNL     1      33.456  -9.365 -22.917  0.00  0.00    +0.181 C 
ATOM      7  C   UNL     1      33.140 -10.799 -23.258  0.00  0.00    +0.244 C 
ENDROOT
BRANCH   2   8
ATOM      8  S   UNL     1      32.679  -7.015 -21.835  0.00  0.00    +0.069 S 
ATOM      9  O   UNL     1      33.743  -6.901 -20.858  0.00  0.00    -0.152 OA
ATOM     10  O   UNL     1      31.407  -6.346 -21.664  0.00  0.00    -0.152 OA
BRANCH   8  13
ATOM     11 CL   UNL     1      34.080  -3.208 -28.924  0.00  0.00    -0.082 Cl
ATOM     12  S   UNL     1      32.200  -5.500 -24.281  0.00  0.00    -0.067 S 
ATOM     13  C   UNL     1      33.349  -6.292 -23.328  0.00  0.00    +0.152 C 
ATOM     14  C   UNL     1      34.603  -6.262 -23.836  0.00  0.00    +0.027 C 
ATOM     15  C   UNL     1      34.658  -5.552 -25.082  0.00  0.00    +0.008 C 
ATOM     16  C   UNL     1      33.396  -5.075 -25.449  0.00  0.00    +0.032 C 
ATOM     17  C   UNL     1      35.750  -5.283 -25.942  0.00  0.00    +0.001 C 
ATOM     18  C   UNL     1      33.201  -4.346 -26.639  0.00  0.00    +0.018 C 
ATOM     19  C   UNL     1      35.561  -4.560 -27.122  0.00  0.00    +0.011 C 
ATOM     20  C   UNL     1      34.298  -4.098 -27.465  0.00  0.00    +0.058 C 
ENDBRANCH   8  13
ENDBRANCH   2   8
BRANCH   3  21
ATOM     21  C   UNL     1      31.857 -12.843 -22.730  0.00  0.00    +0.120 C 
BRANCH  21  22
ATOM     22  C   UNL     1      32.912 -13.725 -22.138  0.00  0.00    -0.002 C 
ATOM     23  C   UNL     1      33.572 -14.648 -22.943  0.00  0.00    +0.000 C 
ATOM     24  C   UNL     1      33.225 -13.618 -20.786  0.00  0.00    -0.003 C 
ATOM     25  C   UNL     1      34.555 -15.471 -22.391  0.00  0.00    +0.030 C 
ATOM     26  C   UNL     1      34.207 -14.441 -20.235  0.00  0.00    -0.000 C 
ATOM     27  C   UNL     1      34.872 -15.367 -21.037  0.00  0.00    +0.003 C 
BRANCH  25  30
ATOM     28  N   UNL     1      35.989 -17.479 -22.671  0.00  0.00    -0.343 N 
ATOM     29  N   UNL     1      35.186 -16.334 -24.544  0.00  0.00    -0.285 NA
ATOM     30  C   UNL     1      35.249 -16.438 -23.228  0.00  0.00    +0.117 C 
ATOM     31  H   UNL     1      36.451 -18.122 -23.256  0.00  0.00    +0.144 HD
ATOM     32  H   UNL     1      36.050 -17.571 -21.693  0.00  0.00    +0.144 HD
ATOM     33  H   UNL     1      35.655 -16.987 -25.112  0.00  0.00    +0.188 HD
ENDBRANCH  25  30
ENDBRANCH  21  22
ENDBRANCH   3  21
TORSDOF 5
ENDMDL
