MODEL 1
REMARK VINA RESULT:     -12.7      0.000      0.000
REMARK  Name = 446399
REMARK  4 active torsions:
REMARK  status: ('A' for Active; 'I' for Inactive)
REMARK    1  A    between atoms: N_3  and  S_21
REMARK    2  A    between atoms: C_4  and  C_10
REMARK    3  A    between atoms: N_9  and  C_16
REMARK    4  A    between atoms: S_21  and  C_25
REMARK                            x       y       z     vdW  Elec       q    Type
REMARK                         _______ _______ _______ _____ _____    ______ ____
ROOT
ATOM      1  O   UNL     1      33.826 -15.994 -25.286  0.00  0.00    -0.275 OA
ATOM      2  N   UNL     1      34.084 -14.390 -23.626  0.00  0.00    -0.277 N 
ATOM      3  N   UNL     1      32.852 -12.190 -22.307  0.00  0.00    -0.152 NA
ATOM      4  C   UNL     1      34.245 -15.662 -24.174  0.00  0.00    +0.225 C 
ATOM      5  C   UNL     1      34.569 -13.962 -22.309  0.00  0.00    +0.113 C 
ATOM      6  C   UNL     1      33.444 -13.331 -24.409  0.00  0.00    +0.113 C 
ATOM      7  C   UNL     1      33.448 -13.303 -21.509  0.00  0.00    +0.117 C 
ATOM      8  C   UNL     1      32.319 -12.674 -23.617  0.00  0.00    +0.117 C 
ENDROOT
BRANCH   4  10
ATOM      9  N   UNL     1      34.971 -18.863 -21.449  0.00  0.00    -0.307 N 
ATOM     10  C   UNL     1      34.978 -16.672 -23.328  0.00  0.00    +0.080 C 
ATOM     11  C   UNL     1      34.569 -18.081 -23.750  0.00  0.00    +0.031 C 
ATOM     12  C   UNL     1      34.657 -16.453 -21.852  0.00  0.00    +0.031 C 
ATOM     13  C   UNL     1      35.225 -19.142 -22.867  0.00  0.00    +0.091 C 
ATOM     14  C   UNL     1      35.319 -17.515 -20.977  0.00  0.00    +0.091 C 
BRANCH   9  16
ATOM     15  N   UNL     1      35.165 -22.012 -18.645  0.00  0.00    -0.242 NA
ATOM     16  C   UNL     1      35.035 -19.908 -20.519  0.00  0.00    +0.051 C 
ATOM     17  C   UNL     1      33.870 -20.536 -20.055  0.00  0.00    +0.035 C 
ATOM     18  C   UNL     1      36.268 -20.358 -20.021  0.00  0.00    +0.035 C 
ATOM     19  C   UNL     1      33.987 -21.566 -19.134  0.00  0.00    +0.100 C 
ATOM     20  C   UNL     1      36.278 -21.396 -19.103  0.00  0.00    +0.100 C 
ENDBRANCH   9  16
ENDBRANCH   4  10
BRANCH   3  21
ATOM     21  S   UNL     1      31.817 -11.137 -21.439  0.00  0.00    +0.063 S 
ATOM     22  O   UNL     1      32.358 -10.930 -20.114  0.00  0.00    -0.153 OA
ATOM     23  O   UNL     1      30.448 -11.567 -21.628  0.00  0.00    -0.153 OA
BRANCH  21  25
ATOM     24 CL   UNL     1      34.141  -4.164 -25.641  0.00  0.00    -0.082 Cl
ATOM     25  C   UNL     1      32.051  -9.649 -22.359  0.00  0.00    +0.122 C 
ATOM     26  C   UNL     1      33.335  -9.165 -22.548  0.00  0.00    +0.020 C 
ATOM     27  C   UNL     1      30.950  -8.993 -22.875  0.00  0.00    +0.020 C 
ATOM     28  C   UNL     1      33.539  -7.981 -23.278  0.00  0.00    +0.001 C 
ATOM     29  C   UNL     1      32.421  -7.298 -23.813  0.00  0.00    +0.001 C 
ATOM     30  C   UNL     1      31.134  -7.817 -23.603  0.00  0.00    +0.001 C 
ATOM     31  C   UNL     1      34.827  -7.463 -23.488  0.00  0.00    +0.001 C 
ATOM     32  C   UNL     1      32.625  -6.115 -24.544  0.00  0.00    +0.011 C 
ATOM     33  C   UNL     1      35.010  -6.286 -24.215  0.00  0.00    +0.011 C 
ATOM     34  C   UNL     1      33.911  -5.614 -24.742  0.00  0.00    +0.058 C 
ENDBRANCH  21  25
ENDBRANCH   3  21
TORSDOF 4
ENDMDL
MODEL 2
REMARK VINA RESULT:     -12.4      4.664     11.500
REMARK  Name = 446399
REMARK  4 active torsions:
REMARK  status: ('A' for Active; 'I' for Inactive)
REMARK    1  A    between atoms: N_3  and  S_21
REMARK    2  A    between atoms: C_4  and  C_10
REMARK    3  A    between atoms: N_9  and  C_16
REMARK    4  A    between atoms: S_21  and  C_25
REMARK                            x       y       z     vdW  Elec       q    Type
REMARK                         _______ _______ _______ _____ _____    ______ ____
ROOT
ATOM      1  O   UNL     1      33.411 -13.802 -25.250  0.00  0.00    -0.275 OA
ATOM      2  N   UNL     1      33.797 -15.141 -23.392  0.00  0.00    -0.277 N 
ATOM      3  N   UNL     1      35.147 -17.455 -22.433  0.00  0.00    -0.152 NA
ATOM      4  C   UNL     1      33.590 -13.922 -24.035  0.00  0.00    +0.225 C 
ATOM      5  C   UNL     1      34.013 -15.318 -21.951  0.00  0.00    +0.113 C 
ATOM      6  C   UNL     1      33.742 -16.389 -24.153  0.00  0.00    +0.113 C 
ATOM      7  C   UNL     1      35.257 -16.163 -21.691  0.00  0.00    +0.117 C 
ATOM      8  C   UNL     1      34.985 -17.235 -23.902  0.00  0.00    +0.117 C 
ENDROOT
BRANCH   4  10
ATOM      9  N   UNL     1      32.562 -10.080 -22.492  0.00  0.00    -0.307 N 
ATOM     10  C   UNL     1      33.593 -12.691 -23.164  0.00  0.00    +0.080 C 
ATOM     11  C   UNL     1      32.219 -12.519 -22.522  0.00  0.00    +0.031 C 
ATOM     12  C   UNL     1      33.938 -11.459 -23.998  0.00  0.00    +0.031 C 
ATOM     13  C   UNL     1      32.144 -11.238 -21.692  0.00  0.00    +0.091 C 
ATOM     14  C   UNL     1      33.866 -10.184 -23.161  0.00  0.00    +0.091 C 
BRANCH   9  16
ATOM     15  N   UNL     1      31.241  -6.221 -21.404  0.00  0.00    -0.242 NA
ATOM     16  C   UNL     1      32.123  -8.800 -22.131  0.00  0.00    +0.051 C 
ATOM     17  C   UNL     1      31.205  -8.098 -22.927  0.00  0.00    +0.035 C 
ATOM     18  C   UNL     1      32.590  -8.179 -20.961  0.00  0.00    +0.035 C 
ATOM     19  C   UNL     1      30.803  -6.834 -22.526  0.00  0.00    +0.100 C 
ATOM     20  C   UNL     1      32.125  -6.911 -20.648  0.00  0.00    +0.100 C 
ENDBRANCH   9  16
ENDBRANCH   4  10
BRANCH   3  21
ATOM     21  S   UNL     1      36.289 -18.653 -21.994  0.00  0.00    +0.063 S 
ATOM     22  O   UNL     1      37.330 -18.044 -21.195  0.00  0.00    -0.153 OA
ATOM     23  O   UNL     1      36.612 -19.444 -23.162  0.00  0.00    -0.153 OA
BRANCH  21  25
ATOM     24 CL   UNL     1      32.586 -23.732 -16.321  0.00  0.00    -0.082 Cl
ATOM     25  C   UNL     1      35.297 -19.646 -20.923  0.00  0.00    +0.122 C 
ATOM     26  C   UNL     1      35.910 -20.394 -19.932  0.00  0.00    +0.020 C 
ATOM     27  C   UNL     1      33.925 -19.658 -21.092  0.00  0.00    +0.020 C 
ATOM     28  C   UNL     1      35.134 -21.189 -19.071  0.00  0.00    +0.001 C 
ATOM     29  C   UNL     1      33.728 -21.212 -19.231  0.00  0.00    +0.001 C 
ATOM     30  C   UNL     1      33.139 -20.441 -20.245  0.00  0.00    +0.001 C 
ATOM     31  C   UNL     1      35.723 -21.959 -18.056  0.00  0.00    +0.001 C 
ATOM     32  C   UNL     1      32.952 -22.006 -18.370  0.00  0.00    +0.011 C 
ATOM     33  C   UNL     1      34.937 -22.743 -17.210  0.00  0.00    +0.011 C 
ATOM     34  C   UNL     1      33.554 -22.767 -17.367  0.00  0.00    +0.058 C 
ENDBRANCH  21  25
ENDBRANCH   3  21
TORSDOF 4
ENDMDL
MODEL 3
REMARK VINA RESULT:     -12.1      4.508     11.600
REMARK  Name = 446399
REMARK  4 active torsions:
REMARK  status: ('A' for Active; 'I' for Inactive)
REMARK    1  A    between atoms: N_3  and  S_21
REMARK    2  A    between atoms: C_4  and  C_10
REMARK    3  A    between atoms: N_9  and  C_16
REMARK    4  A    between atoms: S_21  and  C_25
REMARK                            x       y       z     vdW  Elec       q    Type
REMARK                         _______ _______ _______ _____ _____    ______ ____
ROOT
ATOM      1  O   UNL     1      32.422 -13.805 -19.512  0.00  0.00    -0.275 OA
ATOM      2  N   UNL     1      33.991 -14.605 -21.026  0.00  0.00    -0.277 N 
ATOM      3  N   UNL     1      35.386 -16.916 -21.926  0.00  0.00    -0.152 NA
ATOM      4  C   UNL     1      32.931 -13.788 -20.636  0.00  0.00    +0.225 C 
ATOM      5  C   UNL     1      34.620 -14.610 -22.353  0.00  0.00    +0.113 C 
ATOM      6  C   UNL     1      34.615 -15.508 -20.058  0.00  0.00    +0.113 C 
ATOM      7  C   UNL     1      34.694 -16.029 -22.909  0.00  0.00    +0.117 C 
ATOM      8  C   UNL     1      34.686 -16.928 -20.606  0.00  0.00    +0.117 C 
ENDROOT
BRANCH   4  10
ATOM      9  N   UNL     1      32.011 -10.158 -22.678  0.00  0.00    -0.307 N 
ATOM     10  C   UNL     1      32.395 -12.837 -21.676  0.00  0.00    +0.080 C 
ATOM     11  C   UNL     1      33.548 -12.040 -22.280  0.00  0.00    +0.031 C 
ATOM     12  C   UNL     1      31.378 -11.889 -21.045  0.00  0.00    +0.031 C 
ATOM     13  C   UNL     1      33.047 -11.002 -23.284  0.00  0.00    +0.091 C 
ATOM     14  C   UNL     1      30.879 -10.858 -22.054  0.00  0.00    +0.091 C 
BRANCH   9  16
ATOM     15  N   UNL     1      31.282  -6.313 -24.262  0.00  0.00    -0.242 NA
ATOM     16  C   UNL     1      31.769  -8.882 -23.204  0.00  0.00    +0.051 C 
ATOM     17  C   UNL     1      32.160  -8.551 -24.510  0.00  0.00    +0.035 C 
ATOM     18  C   UNL     1      31.128  -7.895 -22.439  0.00  0.00    +0.035 C 
ATOM     19  C   UNL     1      31.898  -7.275 -24.983  0.00  0.00    +0.100 C 
ATOM     20  C   UNL     1      30.912  -6.648 -23.005  0.00  0.00    +0.100 C 
ENDBRANCH   9  16
ENDBRANCH   4  10
BRANCH   3  21
ATOM     21  S   UNL     1      35.850 -18.452 -22.524  0.00  0.00    +0.063 S 
ATOM     22  O   UNL     1      37.285 -18.592 -22.403  0.00  0.00    -0.153 OA
ATOM     23  O   UNL     1      35.181 -18.686 -23.785  0.00  0.00    -0.153 OA
BRANCH  21  25
ATOM     24 CL   UNL     1      33.394 -23.604 -16.270  0.00  0.00    -0.082 Cl
ATOM     25  C   UNL     1      35.101 -19.492 -21.310  0.00  0.00    +0.122 C 
ATOM     26  C   UNL     1      35.898 -20.107 -20.359  0.00  0.00    +0.020 C 
ATOM     27  C   UNL     1      33.731 -19.675 -21.330  0.00  0.00    +0.020 C 
ATOM     28  C   UNL     1      35.318 -20.938 -19.386  0.00  0.00    +0.001 C 
ATOM     29  C   UNL     1      33.916 -21.135 -19.392  0.00  0.00    +0.001 C 
ATOM     30  C   UNL     1      33.137 -20.496 -20.370  0.00  0.00    +0.001 C 
ATOM     31  C   UNL     1      36.097 -21.576 -18.408  0.00  0.00    +0.001 C 
ATOM     32  C   UNL     1      33.335 -21.965 -18.419  0.00  0.00    +0.011 C 
ATOM     33  C   UNL     1      35.503 -22.398 -17.449  0.00  0.00    +0.011 C 
ATOM     34  C   UNL     1      34.124 -22.592 -17.455  0.00  0.00    +0.058 C 
ENDBRANCH  21  25
ENDBRANCH   3  21
TORSDOF 4
ENDMDL
MODEL 4
REMARK VINA RESULT:     -11.5      4.052      7.074
REMARK  Name = 446399
REMARK  4 active torsions:
REMARK  status: ('A' for Active; 'I' for Inactive)
REMARK    1  A    between atoms: N_3  and  S_21
REMARK    2  A    between atoms: C_4  and  C_10
REMARK    3  A    between atoms: N_9  and  C_16
REMARK    4  A    between atoms: S_21  and  C_25
REMARK                            x       y       z     vdW  Elec       q    Type
REMARK                         _______ _______ _______ _____ _____    ______ ____
ROOT
ATOM      1  O   UNL     1      32.696  -8.566 -20.246  0.00  0.00    -0.275 OA
ATOM      2  N   UNL     1      31.451  -7.376 -21.806  0.00  0.00    -0.277 N 
ATOM      3  N   UNL     1      31.090  -4.842 -23.048  0.00  0.00    -0.152 NA
ATOM      4  C   UNL     1      32.095  -8.515 -21.323  0.00  0.00    +0.225 C 
ATOM      5  C   UNL     1      30.729  -7.282 -23.080  0.00  0.00    +0.113 C 
ATOM      6  C   UNL     1      31.402  -6.162 -20.991  0.00  0.00    +0.113 C 
ATOM      7  C   UNL     1      31.206  -6.075 -23.883  0.00  0.00    +0.117 C 
ATOM      8  C   UNL     1      31.884  -4.954 -21.786  0.00  0.00    +0.117 C 
ENDROOT
BRANCH   4  10
ATOM      9  N   UNL     1      33.068 -12.320 -22.986  0.00  0.00    -0.307 N 
ATOM     10  C   UNL     1      32.036  -9.744 -22.194  0.00  0.00    +0.080 C 
ATOM     11  C   UNL     1      31.848 -10.980 -21.318  0.00  0.00    +0.031 C 
ATOM     12  C   UNL     1      33.321  -9.871 -23.009  0.00  0.00    +0.031 C 
ATOM     13  C   UNL     1      31.864 -12.263 -22.149  0.00  0.00    +0.091 C 
ATOM     14  C   UNL     1      33.327 -11.152 -23.839  0.00  0.00    +0.091 C 
BRANCH   9  16
ATOM     15  N   UNL     1      34.477 -16.064 -24.337  0.00  0.00    -0.242 NA
ATOM     16  C   UNL     1      33.536 -13.562 -23.434  0.00  0.00    +0.051 C 
ATOM     17  C   UNL     1      33.119 -14.091 -24.665  0.00  0.00    +0.035 C 
ATOM     18  C   UNL     1      34.436 -14.316 -22.665  0.00  0.00    +0.035 C 
ATOM     19  C   UNL     1      33.611 -15.324 -25.064  0.00  0.00    +0.100 C 
ATOM     20  C   UNL     1      34.869 -15.539 -23.153  0.00  0.00    +0.100 C 
ENDBRANCH   9  16
ENDBRANCH   4  10
BRANCH   3  21
ATOM     21  S   UNL     1      31.264  -3.363 -23.894  0.00  0.00    +0.063 S 
ATOM     22  O   UNL     1      32.159  -2.500 -23.156  0.00  0.00    -0.153 OA
ATOM     23  O   UNL     1      29.956  -2.904 -24.308  0.00  0.00    -0.153 OA
BRANCH  21  25
ATOM     24 CL   UNL     1      36.247  -6.457 -30.000  0.00  0.00    -0.082 Cl
ATOM     25  C   UNL     1      32.121  -3.930 -25.329  0.00  0.00    +0.122 C 
ATOM     26  C   UNL     1      33.356  -4.541 -25.185  0.00  0.00    +0.020 C 
ATOM     27  C   UNL     1      31.544  -3.756 -26.574  0.00  0.00    +0.020 C 
ATOM     28  C   UNL     1      34.050  -4.998 -26.317  0.00  0.00    +0.001 C 
ATOM     29  C   UNL     1      33.473  -4.827 -27.598  0.00  0.00    +0.001 C 
ATOM     30  C   UNL     1      32.220  -4.205 -27.709  0.00  0.00    +0.001 C 
ATOM     31  C   UNL     1      35.304  -5.621 -26.205  0.00  0.00    +0.001 C 
ATOM     32  C   UNL     1      34.168  -5.285 -28.730  0.00  0.00    +0.011 C 
ATOM     33  C   UNL     1      35.980  -6.069 -27.341  0.00  0.00    +0.011 C 
ATOM     34  C   UNL     1      35.412  -5.901 -28.601  0.00  0.00    +0.058 C 
ENDBRANCH  21  25
ENDBRANCH   3  21
TORSDOF 4
ENDMDL
MODEL 5
REMARK VINA RESULT:     -10.9      5.052      8.493
REMARK  Name = 446399
REMARK  4 active torsions:
REMARK  status: ('A' for Active; 'I' for Inactive)
REMARK    1  A    between atoms: N_3  and  S_21
REMARK    2  A    between atoms: C_4  and  C_10
REMARK    3  A    between atoms: N_9  and  C_16
REMARK    4  A    between atoms: S_21  and  C_25
REMARK                            x       y       z     vdW  Elec       q    Type
REMARK                         _______ _______ _______ _____ _____    ______ ____
ROOT
ATOM      1  O   UNL     1      32.000 -21.403 -17.914  0.00  0.00    -0.275 OA
ATOM      2  N   UNL     1      33.828 -21.473 -19.346  0.00  0.00    -0.277 N 
ATOM      3  N   UNL     1      35.548 -19.922 -20.998  0.00  0.00    -0.152 NA
ATOM      4  C   UNL     1      33.100 -21.868 -18.224  0.00  0.00    +0.225 C 
ATOM      5  C   UNL     1      35.137 -22.005 -19.743  0.00  0.00    +0.113 C 
ATOM      6  C   UNL     1      33.263 -20.497 -20.278  0.00  0.00    +0.113 C 
ATOM      7  C   UNL     1      36.125 -20.871 -19.999  0.00  0.00    +0.117 C 
ATOM      8  C   UNL     1      34.244 -19.358 -20.533  0.00  0.00    +0.117 C 
ENDROOT
BRANCH   4  10
ATOM      9  N   UNL     1      34.741 -23.820 -14.804  0.00  0.00    -0.307 N 
ATOM     10  C   UNL     1      33.724 -22.930 -17.355  0.00  0.00    +0.080 C 
ATOM     11  C   UNL     1      32.788 -23.251 -16.193  0.00  0.00    +0.031 C 
ATOM     12  C   UNL     1      35.071 -22.449 -16.823  0.00  0.00    +0.031 C 
ATOM     13  C   UNL     1      33.411 -24.267 -15.235  0.00  0.00    +0.091 C 
ATOM     14  C   UNL     1      35.689 -23.470 -15.871  0.00  0.00    +0.091 C 
BRANCH   9  16
ATOM     15  N   UNL     1      36.344 -25.272 -11.179  0.00  0.00    -0.242 NA
ATOM     16  C   UNL     1      35.272 -24.302 -13.602  0.00  0.00    +0.051 C 
ATOM     17  C   UNL     1      34.720 -23.931 -12.366  0.00  0.00    +0.035 C 
ATOM     18  C   UNL     1      36.375 -25.171 -13.595  0.00  0.00    +0.035 C 
ATOM     19  C   UNL     1      35.283 -24.435 -11.204  0.00  0.00    +0.100 C 
ATOM     20  C   UNL     1      36.863 -25.620 -12.379  0.00  0.00    +0.100 C 
ENDBRANCH   9  16
ENDBRANCH   4  10
BRANCH   3  21
ATOM     21  S   UNL     1      36.649 -18.781 -21.648  0.00  0.00    +0.063 S 
ATOM     22  O   UNL     1      36.877 -19.088 -23.043  0.00  0.00    -0.153 OA
ATOM     23  O   UNL     1      37.754 -18.621 -20.728  0.00  0.00    -0.153 OA
BRANCH  21  25
ATOM     24 CL   UNL     1      31.874 -11.841 -22.500  0.00  0.00    -0.082 Cl
ATOM     25  C   UNL     1      35.660 -17.322 -21.570  0.00  0.00    +0.122 C 
ATOM     26  C   UNL     1      35.204 -16.748 -22.745  0.00  0.00    +0.020 C 
ATOM     27  C   UNL     1      35.356 -16.776 -20.337  0.00  0.00    +0.020 C 
ATOM     28  C   UNL     1      34.415 -15.586 -22.700  0.00  0.00    +0.001 C 
ATOM     29  C   UNL     1      34.096 -15.015 -21.446  0.00  0.00    +0.001 C 
ATOM     30  C   UNL     1      34.574 -15.622 -20.274  0.00  0.00    +0.001 C 
ATOM     31  C   UNL     1      33.937 -14.980 -23.873  0.00  0.00    +0.001 C 
ATOM     32  C   UNL     1      33.307 -13.854 -21.400  0.00  0.00    +0.011 C 
ATOM     33  C   UNL     1      33.155 -13.826 -23.810  0.00  0.00    +0.011 C 
ATOM     34  C   UNL     1      32.841 -13.264 -22.575  0.00  0.00    +0.058 C 
ENDBRANCH  21  25
ENDBRANCH   3  21
TORSDOF 4
ENDMDL
MODEL 6
REMARK VINA RESULT:     -10.8      4.157     11.524
REMARK  Name = 446399
REMARK  4 active torsions:
REMARK  status: ('A' for Active; 'I' for Inactive)
REMARK    1  A    between atoms: N_3  and  S_21
REMARK    2  A    between atoms: C_4  and  C_10
REMARK    3  A    between atoms: N_9  and  C_16
REMARK    4  A    between atoms: S_21  and  C_25
REMARK                            x       y       z     vdW  Elec       q    Type
REMARK                         _______ _______ _______ _____ _____    ______ ____
ROOT
ATOM      1  O   UNL     1      32.362 -12.142 -20.400  0.00  0.00    -0.275 OA
ATOM      2  N   UNL     1      33.528 -13.015 -22.209  0.00  0.00    -0.277 N 
ATOM      3  N   UNL     1      34.375 -15.408 -23.494  0.00  0.00    -0.152 NA
ATOM      4  C   UNL     1      32.687 -12.092 -21.589  0.00  0.00    +0.225 C 
ATOM      5  C   UNL     1      33.934 -12.984 -23.619  0.00  0.00    +0.113 C 
ATOM      6  C   UNL     1      34.140 -14.089 -21.426  0.00  0.00    +0.113 C 
ATOM      7  C   UNL     1      33.691 -14.338 -24.281  0.00  0.00    +0.117 C 
ATOM      8  C   UNL     1      33.895 -15.445 -22.079  0.00  0.00    +0.117 C 
ENDROOT
BRANCH   4  10
ATOM      9  N   UNL     1      31.534  -8.187 -22.862  0.00  0.00    -0.307 N 
ATOM     10  C   UNL     1      32.157 -10.976 -22.453  0.00  0.00    +0.080 C 
ATOM     11  C   UNL     1      33.255  -9.939 -22.676  0.00  0.00    +0.031 C 
ATOM     12  C   UNL     1      30.950 -10.323 -21.784  0.00  0.00    +0.031 C 
ATOM     13  C   UNL     1      32.743  -8.744 -23.480  0.00  0.00    +0.091 C 
ATOM     14  C   UNL     1      30.442  -9.133 -22.595  0.00  0.00    +0.091 C 
BRANCH   9  16
ATOM     15  N   UNL     1      30.484  -4.168 -23.617  0.00  0.00    -0.242 NA
ATOM     16  C   UNL     1      31.186  -6.854 -23.113  0.00  0.00    +0.051 C 
ATOM     17  C   UNL     1      31.128  -6.355 -24.423  0.00  0.00    +0.035 C 
ATOM     18  C   UNL     1      30.885  -5.975 -22.060  0.00  0.00    +0.035 C 
ATOM     19  C   UNL     1      30.778  -5.028 -24.618  0.00  0.00    +0.100 C 
ATOM     20  C   UNL     1      30.545  -4.666 -22.361  0.00  0.00    +0.100 C 
ENDBRANCH   9  16
ENDBRANCH   4  10
BRANCH   3  21
ATOM     21  S   UNL     1      34.486 -16.931 -24.269  0.00  0.00    +0.063 S 
ATOM     22  O   UNL     1      35.535 -16.879 -25.264  0.00  0.00    -0.153 OA
ATOM     23  O   UNL     1      33.154 -17.381 -24.611  0.00  0.00    -0.153 OA
BRANCH  21  25
ATOM     24 CL   UNL     1      36.111 -22.093 -17.757  0.00  0.00    -0.082 Cl
ATOM     25  C   UNL     1      35.065 -17.918 -22.925  0.00  0.00    +0.122 C 
ATOM     26  C   UNL     1      34.181 -18.764 -22.276  0.00  0.00    +0.020 C 
ATOM     27  C   UNL     1      36.391 -17.831 -22.544  0.00  0.00    +0.020 C 
ATOM     28  C   UNL     1      34.625 -19.556 -21.204  0.00  0.00    +0.001 C 
ATOM     29  C   UNL     1      35.980 -19.479 -20.802  0.00  0.00    +0.001 C 
ATOM     30  C   UNL     1      36.849 -18.611 -21.482  0.00  0.00    +0.001 C 
ATOM     31  C   UNL     1      33.755 -20.424 -20.525  0.00  0.00    +0.001 C 
ATOM     32  C   UNL     1      36.425 -20.272 -19.731  0.00  0.00    +0.011 C 
ATOM     33  C   UNL     1      34.214 -21.204 -19.462  0.00  0.00    +0.011 C 
ATOM     34  C   UNL     1      35.547 -21.127 -19.066  0.00  0.00    +0.058 C 
ENDBRANCH  21  25
ENDBRANCH   3  21
TORSDOF 4
ENDMDL
MODEL 7
REMARK VINA RESULT:     -10.7      2.932      4.689
REMARK  Name = 446399
REMARK  4 active torsions:
REMARK  status: ('A' for Active; 'I' for Inactive)
REMARK    1  A    between atoms: N_3  and  S_21
REMARK    2  A    between atoms: C_4  and  C_10
REMARK    3  A    between atoms: N_9  and  C_16
REMARK    4  A    between atoms: S_21  and  C_25
REMARK                            x       y       z     vdW  Elec       q    Type
REMARK                         _______ _______ _______ _____ _____    ______ ____
ROOT
ATOM      1  O   UNL     1      31.461 -12.233 -22.014  0.00  0.00    -0.275 OA
ATOM      2  N   UNL     1      32.822 -10.775 -23.204  0.00  0.00    -0.277 N 
ATOM      3  N   UNL     1      33.597  -8.056 -23.524  0.00  0.00    -0.152 NA
ATOM      4  C   UNL     1      32.531 -11.985 -22.577  0.00  0.00    +0.225 C 
ATOM      5  C   UNL     1      34.082 -10.448 -23.882  0.00  0.00    +0.113 C 
ATOM      6  C   UNL     1      31.803  -9.727 -23.283  0.00  0.00    +0.113 C 
ATOM      7  C   UNL     1      34.637  -9.118 -23.378  0.00  0.00    +0.117 C 
ATOM      8  C   UNL     1      32.350  -8.398 -22.775  0.00  0.00    +0.117 C 
ENDROOT
BRANCH   4  10
ATOM      9  N   UNL     1      34.451 -15.790 -22.405  0.00  0.00    -0.307 N 
ATOM     10  C   UNL     1      33.612 -13.036 -22.604  0.00  0.00    +0.080 C 
ATOM     11  C   UNL     1      33.318 -14.040 -23.716  0.00  0.00    +0.031 C 
ATOM     12  C   UNL     1      33.681 -13.752 -21.258  0.00  0.00    +0.031 C 
ATOM     13  C   UNL     1      34.343 -15.173 -23.732  0.00  0.00    +0.091 C 
ATOM     14  C   UNL     1      34.710 -14.880 -21.281  0.00  0.00    +0.091 C 
BRANCH   9  16
ATOM     15  N   UNL     1      35.881 -19.748 -22.068  0.00  0.00    -0.242 NA
ATOM     16  C   UNL     1      34.925 -17.103 -22.293  0.00  0.00    +0.051 C 
ATOM     17  C   UNL     1      35.679 -17.508 -21.181  0.00  0.00    +0.035 C 
ATOM     18  C   UNL     1      34.662 -18.055 -23.291  0.00  0.00    +0.035 C 
ATOM     19  C   UNL     1      36.125 -18.819 -21.118  0.00  0.00    +0.100 C 
ATOM     20  C   UNL     1      35.154 -19.341 -23.133  0.00  0.00    +0.100 C 
ENDBRANCH   9  16
ENDBRANCH   4  10
BRANCH   3  21
ATOM     21  S   UNL     1      34.156  -6.449 -23.322  0.00  0.00    +0.063 S 
ATOM     22  O   UNL     1      35.600  -6.440 -23.387  0.00  0.00    -0.153 OA
ATOM     23  O   UNL     1      33.455  -5.847 -22.208  0.00  0.00    -0.153 OA
BRANCH  21  25
ATOM     24 CL   UNL     1      30.581  -2.205 -29.716  0.00  0.00    -0.082 Cl
ATOM     25  C   UNL     1      33.543  -5.721 -24.808  0.00  0.00    +0.122 C 
ATOM     26  C   UNL     1      32.648  -4.666 -24.727  0.00  0.00    +0.020 C 
ATOM     27  C   UNL     1      33.966  -6.215 -26.027  0.00  0.00    +0.020 C 
ATOM     28  C   UNL     1      32.151  -4.076 -25.901  0.00  0.00    +0.001 C 
ATOM     29  C   UNL     1      32.575  -4.570 -27.157  0.00  0.00    +0.001 C 
ATOM     30  C   UNL     1      33.483  -5.640 -27.203  0.00  0.00    +0.001 C 
ATOM     31  C   UNL     1      31.244  -3.005 -25.855  0.00  0.00    +0.001 C 
ATOM     32  C   UNL     1      32.079  -3.979 -28.331  0.00  0.00    +0.011 C 
ATOM     33  C   UNL     1      30.760  -2.431 -27.031  0.00  0.00    +0.011 C 
ATOM     34  C   UNL     1      31.177  -2.917 -28.267  0.00  0.00    +0.058 C 
ENDBRANCH  21  25
ENDBRANCH   3  21
TORSDOF 4
ENDMDL
MODEL 8
REMARK VINA RESULT:     -10.6      4.674     12.138
REMARK  Name = 446399
REMARK  4 active torsions:
REMARK  status: ('A' for Active; 'I' for Inactive)
REMARK    1  A    between atoms: N_3  and  S_21
REMARK    2  A    between atoms: C_4  and  C_10
REMARK    3  A    between atoms: N_9  and  C_16
REMARK    4  A    between atoms: S_21  and  C_25
REMARK                            x       y       z     vdW  Elec       q    Type
REMARK                         _______ _______ _______ _____ _____    ______ ____
ROOT
ATOM      1  O   UNL     1      32.497  -4.635 -21.538  0.00  0.00    -0.275 OA
ATOM      2  N   UNL     1      32.569  -6.930 -21.883  0.00  0.00    -0.277 N 
ATOM      3  N   UNL     1      32.062  -9.474 -20.714  0.00  0.00    -0.152 NA
ATOM      4  C   UNL     1      32.362  -5.610 -22.281  0.00  0.00    +0.225 C 
ATOM      5  C   UNL     1      32.417  -8.112 -22.740  0.00  0.00    +0.113 C 
ATOM      6  C   UNL     1      33.041  -7.221 -20.528  0.00  0.00    +0.113 C 
ATOM      7  C   UNL     1      31.524  -9.153 -22.071  0.00  0.00    +0.117 C 
ATOM      8  C   UNL     1      32.148  -8.256 -19.853  0.00  0.00    +0.117 C 
ENDROOT
BRANCH   4  10
ATOM      9  N   UNL     1      32.076  -3.895 -26.176  0.00  0.00    -0.307 N 
ATOM     10  C   UNL     1      31.945  -5.395 -23.713  0.00  0.00    +0.080 C 
ATOM     11  C   UNL     1      33.176  -5.450 -24.615  0.00  0.00    +0.031 C 
ATOM     12  C   UNL     1      31.249  -4.045 -23.861  0.00  0.00    +0.031 C 
ATOM     13  C   UNL     1      32.818  -5.156 -26.071  0.00  0.00    +0.091 C 
ATOM     14  C   UNL     1      30.891  -3.760 -25.317  0.00  0.00    +0.091 C 
BRANCH   9  16
ATOM     15  N   UNL     1      32.074  -1.786 -29.833  0.00  0.00    -0.242 NA
ATOM     16  C   UNL     1      32.076  -3.195 -27.389  0.00  0.00    +0.051 C 
ATOM     17  C   UNL     1      30.953  -2.461 -27.800  0.00  0.00    +0.035 C 
ATOM     18  C   UNL     1      33.199  -3.208 -28.231  0.00  0.00    +0.035 C 
ATOM     19  C   UNL     1      31.003  -1.786 -29.010  0.00  0.00    +0.100 C 
ATOM     20  C   UNL     1      33.148  -2.499 -29.421  0.00  0.00    +0.100 C 
ENDBRANCH   9  16
ENDBRANCH   4  10
BRANCH   3  21
ATOM     21  S   UNL     1      31.381 -10.855 -19.963  0.00  0.00    +0.063 S 
ATOM     22  O   UNL     1      29.982 -10.944 -20.318  0.00  0.00    -0.153 OA
ATOM     23  O   UNL     1      31.805 -10.893 -18.580  0.00  0.00    -0.153 OA
BRANCH  21  25
ATOM     24 CL   UNL     1      35.801 -17.403 -23.009  0.00  0.00    -0.082 Cl
ATOM     25  C   UNL     1      32.240 -12.131 -20.830  0.00  0.00    +0.122 C 
ATOM     26  C   UNL     1      32.911 -13.106 -20.110  0.00  0.00    +0.020 C 
ATOM     27  C   UNL     1      32.229 -12.135 -22.212  0.00  0.00    +0.020 C 
ATOM     28  C   UNL     1      33.599 -14.128 -20.785  0.00  0.00    +0.001 C 
ATOM     29  C   UNL     1      33.597 -14.146 -22.200  0.00  0.00    +0.001 C 
ATOM     30  C   UNL     1      32.907 -13.143 -22.898  0.00  0.00    +0.001 C 
ATOM     31  C   UNL     1      34.289 -15.132 -20.086  0.00  0.00    +0.001 C 
ATOM     32  C   UNL     1      34.284 -15.169 -22.875  0.00  0.00    +0.011 C 
ATOM     33  C   UNL     1      34.967 -16.140 -20.773  0.00  0.00    +0.011 C 
ATOM     34  C   UNL     1      34.965 -16.158 -22.165  0.00  0.00    +0.058 C 
ENDBRANCH  21  25
ENDBRANCH   3  21
TORSDOF 4
ENDMDL
MODEL 9
REMARK VINA RESULT:     -10.4      2.651      4.666
REMARK  Name = 446399
REMARK  4 active torsions:
REMARK  status: ('A' for Active; 'I' for Inactive)
REMARK    1  A    between atoms: N_3  and  S_21
REMARK    2  A    between atoms: C_4  and  C_10
REMARK    3  A    between atoms: N_9  and  C_16
REMARK    4  A    between atoms: S_21  and  C_25
REMARK                            x       y       z     vdW  Elec       q    Type
REMARK                         _______ _______ _______ _____ _____    ______ ____
ROOT
ATOM      1  O   UNL     1      30.861 -12.285 -21.144  0.00  0.00    -0.275 OA
ATOM      2  N   UNL     1      31.835 -10.670 -22.500  0.00  0.00    -0.277 N 
ATOM      3  N   UNL     1      32.124  -7.875 -22.946  0.00  0.00    -0.152 NA
ATOM      4  C   UNL     1      31.811 -11.890 -21.826  0.00  0.00    +0.225 C 
ATOM      5  C   UNL     1      32.947 -10.170 -23.318  0.00  0.00    +0.113 C 
ATOM      6  C   UNL     1      30.659  -9.799 -22.482  0.00  0.00    +0.113 C 
ATOM      7  C   UNL     1      33.331  -8.754 -22.900  0.00  0.00    +0.117 C 
ATOM      8  C   UNL     1      31.036  -8.385 -22.058  0.00  0.00    +0.117 C 
ENDROOT
BRANCH   4  10
ATOM      9  N   UNL     1      34.280 -15.359 -22.076  0.00  0.00    -0.307 N 
ATOM     10  C   UNL     1      33.037 -12.757 -21.956  0.00  0.00    +0.080 C 
ATOM     11  C   UNL     1      32.903 -13.647 -23.189  0.00  0.00    +0.031 C 
ATOM     12  C   UNL     1      33.207 -13.617 -20.706  0.00  0.00    +0.031 C 
ATOM     13  C   UNL     1      34.087 -14.605 -23.320  0.00  0.00    +0.091 C 
ATOM     14  C   UNL     1      34.394 -14.568 -20.843  0.00  0.00    +0.091 C 
BRANCH   9  16
ATOM     15  N   UNL     1      36.285 -19.072 -22.192  0.00  0.00    -0.242 NA
ATOM     16  C   UNL     1      34.946 -16.591 -22.115  0.00  0.00    +0.051 C 
ATOM     17  C   UNL     1      34.947 -17.376 -23.278  0.00  0.00    +0.035 C 
ATOM     18  C   UNL     1      35.631 -17.078 -20.991  0.00  0.00    +0.035 C 
ATOM     19  C   UNL     1      35.620 -18.588 -23.264  0.00  0.00    +0.100 C 
ATOM     20  C   UNL     1      36.274 -18.302 -21.081  0.00  0.00    +0.100 C 
ENDBRANCH   9  16
ENDBRANCH   4  10
BRANCH   3  21
ATOM     21  S   UNL     1      32.436  -6.194 -22.832  0.00  0.00    +0.063 S 
ATOM     22  O   UNL     1      33.164  -5.931 -21.611  0.00  0.00    -0.153 OA
ATOM     23  O   UNL     1      31.223  -5.471 -23.148  0.00  0.00    -0.153 OA
BRANCH  21  25
ATOM     24 CL   UNL     1      36.801  -5.082 -30.000  0.00  0.00    -0.082 Cl
ATOM     25  C   UNL     1      33.555  -5.997 -24.182  0.00  0.00    +0.122 C 
ATOM     26  C   UNL     1      33.051  -5.753 -25.449  0.00  0.00    +0.020 C 
ATOM     27  C   UNL     1      34.915  -6.088 -23.952  0.00  0.00    +0.020 C 
ATOM     28  C   UNL     1      33.929  -5.593 -26.535  0.00  0.00    +0.001 C 
ATOM     29  C   UNL     1      35.324  -5.683 -26.316  0.00  0.00    +0.001 C 
ATOM     30  C   UNL     1      35.801  -5.932 -25.019  0.00  0.00    +0.001 C 
ATOM     31  C   UNL     1      33.451  -5.344 -27.832  0.00  0.00    +0.001 C 
ATOM     32  C   UNL     1      36.202  -5.523 -27.401  0.00  0.00    +0.011 C 
ATOM     33  C   UNL     1      34.338  -5.188 -28.899  0.00  0.00    +0.011 C 
ATOM     34  C   UNL     1      35.710  -5.278 -28.683  0.00  0.00    +0.058 C 
ENDBRANCH  21  25
ENDBRANCH   3  21
TORSDOF 4
ENDMDL
