MODEL 1
REMARK VINA RESULT:     -11.4      0.000      0.000
REMARK  Name = 657140
REMARK  9 active torsions:
REMARK  status: ('A' for Active; 'I' for Inactive)
REMARK    1  A    between atoms: C_1  and  N_8
REMARK    2  A    between atoms: C_2  and  O_20
REMARK    3  A    between atoms: C_9  and  C_11
REMARK    4  A    between atoms: C_14  and  N_19
REMARK    5  A    between atoms: O_20  and  C_21
REMARK    6  A    between atoms: C_22  and  C_28
REMARK    7  A    between atoms: C_24  and  C_32
REMARK    8  A    between atoms: C_28  and  O_29
REMARK    9  A    between atoms: C_32  and  O_33
REMARK                            x       y       z     vdW  Elec       q    Type
REMARK                         _______ _______ _______ _____ _____    ______ ____
ROOT
ATOM      1  C   UNL     1      31.581 -23.304 -15.791  0.00  0.00    +0.086 C 
ATOM      2  C   UNL     1      32.273 -23.488 -14.606  0.00  0.00    +0.159 C 
ATOM      3  C   UNL     1      30.329 -23.863 -15.990  0.00  0.00    +0.018 C 
ATOM      4  C   UNL     1      31.699 -24.253 -13.592  0.00  0.00    +0.039 C 
ATOM      5  C   UNL     1      29.754 -24.629 -14.976  0.00  0.00    +0.001 C 
ATOM      6  C   UNL     1      30.440 -24.824 -13.776  0.00  0.00    +0.003 C 
ENDROOT
BRANCH   1   8
ATOM      7  O   UNL     1      33.663 -24.018 -17.827  0.00  0.00    -0.270 OA
ATOM      8  N   UNL     1      32.150 -22.527 -16.831  0.00  0.00    -0.278 N 
ATOM      9  C   UNL     1      33.126 -22.901 -17.765  0.00  0.00    +0.250 C 
ATOM     10  H   UNL     1      31.816 -21.604 -16.906  0.00  0.00    +0.155 HD
BRANCH   9  11
ATOM     11  C   UNL     1      33.535 -21.868 -18.703  0.00  0.00    +0.055 C 
ATOM     12  C   UNL     1      34.887 -21.564 -18.859  0.00  0.00    +0.029 C 
ATOM     13  C   UNL     1      32.576 -21.182 -19.448  0.00  0.00    +0.005 C 
ATOM     14  C   UNL     1      35.280 -20.574 -19.760  0.00  0.00    +0.143 C 
ATOM     15  C   UNL     1      32.968 -20.191 -20.348  0.00  0.00    +0.002 C 
ATOM     16  C   UNL     1      34.320 -19.888 -20.504  0.00  0.00    +0.024 C 
BRANCH  14  19
ATOM     17  O   UNL     1      37.500 -21.192 -19.857  0.00  0.00    -0.126 OA
ATOM     18  O   UNL     1      36.993 -19.073 -20.122  0.00  0.00    -0.126 OA
ATOM     19  N   UNL     1      36.657 -20.265 -19.921  0.00  0.00    +0.058 N 
ENDBRANCH  14  19
ENDBRANCH   9  11
ENDBRANCH   1   8
BRANCH   2  20
ATOM     20  O   UNL     1      33.504 -22.938 -14.405  0.00  0.00    -0.452 OA
BRANCH  20  21
ATOM     21  C   UNL     1      34.482 -23.744 -13.846  0.00  0.00    +0.146 C 
ATOM     22  C   UNL     1      35.746 -24.441 -11.934  0.00  0.00    +0.085 C 
ATOM     23  C   UNL     1      34.761 -23.629 -12.496  0.00  0.00    +0.044 C 
ATOM     24  C   UNL     1      36.436 -25.354 -12.730  0.00  0.00    +0.082 C 
ATOM     25  C   UNL     1      35.156 -24.644 -14.653  0.00  0.00    +0.038 C 
ATOM     26  C   UNL     1      36.140 -25.456 -14.090  0.00  0.00    +0.010 C 
BRANCH  22  28
ATOM     27  O   UNL     1      36.805 -23.490 -10.011  0.00  0.00    -0.245 OA
ATOM     28  C   UNL     1      36.031 -24.311 -10.511  0.00  0.00    +0.338 C 
BRANCH  28  29
ATOM     29  O   UNL     1      35.339 -25.208  -9.759  0.00  0.00    -0.477 OA
ATOM     30  H   UNL     1      34.707 -24.909  -9.137  0.00  0.00    +0.295 HD
ENDBRANCH  28  29
ENDBRANCH  22  28
BRANCH  24  32
ATOM     31  O   UNL     1      37.337 -26.943 -11.185  0.00  0.00    -0.245 OA
ATOM     32  C   UNL     1      37.470 -26.216 -12.174  0.00  0.00    +0.338 C 
BRANCH  32  33
ATOM     33  O   UNL     1      38.637 -26.140 -12.868  0.00  0.00    -0.477 OA
ATOM     34  H   UNL     1      39.355 -26.697 -12.641  0.00  0.00    +0.295 HD
ENDBRANCH  32  33
ENDBRANCH  24  32
ENDBRANCH  20  21
ENDBRANCH   2  20
TORSDOF 9
ENDMDL
MODEL 2
REMARK VINA RESULT:     -11.0      2.492      7.236
REMARK  Name = 657140
REMARK  9 active torsions:
REMARK  status: ('A' for Active; 'I' for Inactive)
REMARK    1  A    between atoms: C_1  and  N_8
REMARK    2  A    between atoms: C_2  and  O_20
REMARK    3  A    between atoms: C_9  and  C_11
REMARK    4  A    between atoms: C_14  and  N_19
REMARK    5  A    between atoms: O_20  and  C_21
REMARK    6  A    between atoms: C_22  and  C_28
REMARK    7  A    between atoms: C_24  and  C_32
REMARK    8  A    between atoms: C_28  and  O_29
REMARK    9  A    between atoms: C_32  and  O_33
REMARK                            x       y       z     vdW  Elec       q    Type
REMARK                         _______ _______ _______ _____ _____    ______ ____
ROOT
ATOM      1  C   UNL     1      36.017 -25.273 -14.347  0.00  0.00    +0.086 C 
ATOM      2  C   UNL     1      36.884 -24.193 -14.370  0.00  0.00    +0.159 C 
ATOM      3  C   UNL     1      36.484 -26.572 -14.237  0.00  0.00    +0.018 C 
ATOM      4  C   UNL     1      38.257 -24.419 -14.282  0.00  0.00    +0.039 C 
ATOM      5  C   UNL     1      37.858 -26.798 -14.149  0.00  0.00    +0.001 C 
ATOM      6  C   UNL     1      38.745 -25.720 -14.171  0.00  0.00    +0.003 C 
ENDROOT
BRANCH   1   8
ATOM      7  O   UNL     1      34.092 -24.184 -12.322  0.00  0.00    -0.270 OA
ATOM      8  N   UNL     1      34.619 -25.060 -14.434  0.00  0.00    -0.278 N 
ATOM      9  C   UNL     1      33.752 -24.547 -13.459  0.00  0.00    +0.250 C 
ATOM     10  H   UNL     1      34.201 -25.306 -15.291  0.00  0.00    +0.155 HD
BRANCH   9  11
ATOM     11  C   UNL     1      32.349 -24.472 -13.834  0.00  0.00    +0.055 C 
ATOM     12  C   UNL     1      31.948 -23.629 -14.870  0.00  0.00    +0.029 C 
ATOM     13  C   UNL     1      31.404 -25.245 -13.159  0.00  0.00    +0.005 C 
ATOM     14  C   UNL     1      30.602 -23.559 -15.232  0.00  0.00    +0.143 C 
ATOM     15  C   UNL     1      30.058 -25.174 -13.519  0.00  0.00    +0.002 C 
ATOM     16  C   UNL     1      29.658 -24.331 -14.555  0.00  0.00    +0.024 C 
BRANCH  14  19
ATOM     17  O   UNL     1      31.069 -22.160 -17.005  0.00  0.00    -0.126 OA
ATOM     18  O   UNL     1      28.968 -22.510 -16.475  0.00  0.00    -0.126 OA
ATOM     19  N   UNL     1      30.193 -22.702 -16.288  0.00  0.00    +0.058 N 
ENDBRANCH  14  19
ENDBRANCH   9  11
ENDBRANCH   1   8
BRANCH   2  20
ATOM     20  O   UNL     1      36.428 -22.913 -14.477  0.00  0.00    -0.452 OA
BRANCH  20  21
ATOM     21  C   UNL     1      36.323 -22.373 -15.748  0.00  0.00    +0.146 C 
ATOM     22  C   UNL     1      35.157 -22.201 -17.834  0.00  0.00    +0.085 C 
ATOM     23  C   UNL     1      35.262 -22.745 -16.554  0.00  0.00    +0.044 C 
ATOM     24  C   UNL     1      36.114 -21.293 -18.287  0.00  0.00    +0.082 C 
ATOM     25  C   UNL     1      37.282 -21.474 -16.179  0.00  0.00    +0.038 C 
ATOM     26  C   UNL     1      37.176 -20.929 -17.459  0.00  0.00    +0.010 C 
BRANCH  22  28
ATOM     27  O   UNL     1      33.916 -23.696 -19.228  0.00  0.00    -0.245 OA
ATOM     28  C   UNL     1      34.036 -22.601 -18.673  0.00  0.00    +0.338 C 
BRANCH  28  29
ATOM     29  O   UNL     1      33.101 -21.620 -18.792  0.00  0.00    -0.477 OA
ATOM     30  H   UNL     1      33.150 -20.858 -18.249  0.00  0.00    +0.295 HD
ENDBRANCH  28  29
ENDBRANCH  22  28
BRANCH  24  32
ATOM     31  O   UNL     1      35.336 -21.133 -20.543  0.00  0.00    -0.245 OA
ATOM     32  C   UNL     1      36.032 -20.707 -19.617  0.00  0.00    +0.338 C 
BRANCH  32  33
ATOM     33  O   UNL     1      36.823 -19.609 -19.749  0.00  0.00    -0.477 OA
ATOM     34  H   UNL     1      36.907 -19.188 -20.582  0.00  0.00    +0.295 HD
ENDBRANCH  32  33
ENDBRANCH  24  32
ENDBRANCH  20  21
ENDBRANCH   2  20
TORSDOF 9
ENDMDL
MODEL 3
REMARK VINA RESULT:     -10.6      2.300      5.410
REMARK  Name = 657140
REMARK  9 active torsions:
REMARK  status: ('A' for Active; 'I' for Inactive)
REMARK    1  A    between atoms: C_1  and  N_8
REMARK    2  A    between atoms: C_2  and  O_20
REMARK    3  A    between atoms: C_9  and  C_11
REMARK    4  A    between atoms: C_14  and  N_19
REMARK    5  A    between atoms: O_20  and  C_21
REMARK    6  A    between atoms: C_22  and  C_28
REMARK    7  A    between atoms: C_24  and  C_32
REMARK    8  A    between atoms: C_28  and  O_29
REMARK    9  A    between atoms: C_32  and  O_33
REMARK                            x       y       z     vdW  Elec       q    Type
REMARK                         _______ _______ _______ _____ _____    ______ ____
ROOT
ATOM      1  C   UNL     1      35.990 -24.303 -14.524  0.00  0.00    +0.086 C 
ATOM      2  C   UNL     1      35.351 -24.071 -13.317  0.00  0.00    +0.159 C 
ATOM      3  C   UNL     1      37.055 -25.184 -14.620  0.00  0.00    +0.018 C 
ATOM      4  C   UNL     1      35.791 -24.737 -12.174  0.00  0.00    +0.039 C 
ATOM      5  C   UNL     1      37.495 -25.850 -13.476  0.00  0.00    +0.001 C 
ATOM      6  C   UNL     1      36.862 -25.627 -12.253  0.00  0.00    +0.003 C 
ENDROOT
BRANCH   1   8
ATOM      7  O   UNL     1      37.268 -22.079 -16.076  0.00  0.00    -0.270 OA
ATOM      8  N   UNL     1      35.554 -23.635 -15.695  0.00  0.00    -0.278 N 
ATOM      9  C   UNL     1      36.184 -22.595 -16.392  0.00  0.00    +0.250 C 
ATOM     10  H   UNL     1      34.695 -23.942 -16.068  0.00  0.00    +0.155 HD
BRANCH   9  11
ATOM     11  C   UNL     1      35.474 -22.089 -17.556  0.00  0.00    +0.055 C 
ATOM     12  C   UNL     1      36.103 -21.197 -18.424  0.00  0.00    +0.029 C 
ATOM     13  C   UNL     1      34.164 -22.498 -17.805  0.00  0.00    +0.005 C 
ATOM     14  C   UNL     1      35.422 -20.714 -19.542  0.00  0.00    +0.143 C 
ATOM     15  C   UNL     1      33.482 -22.014 -18.921  0.00  0.00    +0.002 C 
ATOM     16  C   UNL     1      34.111 -21.122 -19.790  0.00  0.00    +0.024 C 
BRANCH  14  19
ATOM     17  O   UNL     1      35.568 -19.616 -21.565  0.00  0.00    -0.126 OA
ATOM     18  O   UNL     1      37.105 -19.220 -20.048  0.00  0.00    -0.126 OA
ATOM     19  N   UNL     1      36.062 -19.807 -20.427  0.00  0.00    +0.058 N 
ENDBRANCH  14  19
ENDBRANCH   9  11
ENDBRANCH   1   8
BRANCH   2  20
ATOM     20  O   UNL     1      34.302 -23.206 -13.218  0.00  0.00    -0.452 OA
BRANCH  20  21
ATOM     21  C   UNL     1      33.052 -23.669 -13.593  0.00  0.00    +0.146 C 
ATOM     22  C   UNL     1      30.992 -23.343 -14.772  0.00  0.00    +0.085 C 
ATOM     23  C   UNL     1      32.251 -22.876 -14.395  0.00  0.00    +0.044 C 
ATOM     24  C   UNL     1      30.555 -24.595 -14.342  0.00  0.00    +0.082 C 
ATOM     25  C   UNL     1      32.636 -24.914 -13.156  0.00  0.00    +0.038 C 
ATOM     26  C   UNL     1      31.377 -25.381 -13.534  0.00  0.00    +0.010 C 
BRANCH  22  28
ATOM     27  O   UNL     1      30.380 -22.234 -16.801  0.00  0.00    -0.245 OA
ATOM     28  C   UNL     1      30.158 -22.499 -15.617  0.00  0.00    +0.338 C 
BRANCH  28  29
ATOM     29  O   UNL     1      29.074 -22.013 -14.955  0.00  0.00    -0.477 OA
ATOM     30  H   UNL     1      29.182 -21.588 -14.127  0.00  0.00    +0.295 HD
ENDBRANCH  28  29
ENDBRANCH  22  28
BRANCH  24  32
ATOM     31  O   UNL     1      28.717 -24.976 -15.826  0.00  0.00    -0.245 OA
ATOM     32  C   UNL     1      29.246 -25.111 -14.719  0.00  0.00    +0.338 C 
BRANCH  32  33
ATOM     33  O   UNL     1      28.640 -25.779 -13.700  0.00  0.00    -0.477 OA
ATOM     34  H   UNL     1      28.121 -26.538 -13.881  0.00  0.00    +0.295 HD
ENDBRANCH  32  33
ENDBRANCH  24  32
ENDBRANCH  20  21
ENDBRANCH   2  20
TORSDOF 9
ENDMDL
MODEL 4
REMARK VINA RESULT:     -10.5      1.708      2.770
REMARK  Name = 657140
REMARK  9 active torsions:
REMARK  status: ('A' for Active; 'I' for Inactive)
REMARK    1  A    between atoms: C_1  and  N_8
REMARK    2  A    between atoms: C_2  and  O_20
REMARK    3  A    between atoms: C_9  and  C_11
REMARK    4  A    between atoms: C_14  and  N_19
REMARK    5  A    between atoms: O_20  and  C_21
REMARK    6  A    between atoms: C_22  and  C_28
REMARK    7  A    between atoms: C_24  and  C_32
REMARK    8  A    between atoms: C_28  and  O_29
REMARK    9  A    between atoms: C_32  and  O_33
REMARK                            x       y       z     vdW  Elec       q    Type
REMARK                         _______ _______ _______ _____ _____    ______ ____
ROOT
ATOM      1  C   UNL     1      32.853 -22.858 -16.649  0.00  0.00    +0.086 C 
ATOM      2  C   UNL     1      33.350 -23.929 -15.926  0.00  0.00    +0.159 C 
ATOM      3  C   UNL     1      31.517 -22.497 -16.577  0.00  0.00    +0.018 C 
ATOM      4  C   UNL     1      32.488 -24.661 -15.109  0.00  0.00    +0.039 C 
ATOM      5  C   UNL     1      30.655 -23.229 -15.761  0.00  0.00    +0.001 C 
ATOM      6  C   UNL     1      31.141 -24.311 -15.026  0.00  0.00    +0.003 C 
ENDROOT
BRANCH   1   8
ATOM      7  O   UNL     1      32.689 -22.272 -19.584  0.00  0.00    -0.270 OA
ATOM      8  N   UNL     1      33.715 -22.104 -17.481  0.00  0.00    -0.278 N 
ATOM      9  C   UNL     1      33.603 -21.853 -18.856  0.00  0.00    +0.250 C 
ATOM     10  H   UNL     1      34.497 -21.704 -17.036  0.00  0.00    +0.155 HD
BRANCH   9  11
ATOM     11  C   UNL     1      34.669 -21.060 -19.446  0.00  0.00    +0.055 C 
ATOM     12  C   UNL     1      34.380 -20.148 -20.461  0.00  0.00    +0.029 C 
ATOM     13  C   UNL     1      35.980 -21.208 -18.995  0.00  0.00    +0.005 C 
ATOM     14  C   UNL     1      35.402 -19.384 -21.025  0.00  0.00    +0.143 C 
ATOM     15  C   UNL     1      37.003 -20.447 -19.559  0.00  0.00    +0.002 C 
ATOM     16  C   UNL     1      36.714 -19.535 -20.574  0.00  0.00    +0.024 C 
BRANCH  14  19
ATOM     17  O   UNL     1      35.308 -17.233 -21.850  0.00  0.00    -0.126 OA
ATOM     18  O   UNL     1      34.658 -18.879 -23.149  0.00  0.00    -0.126 OA
ATOM     19  N   UNL     1      35.109 -18.455 -22.057  0.00  0.00    +0.058 N 
ENDBRANCH  14  19
ENDBRANCH   9  11
ENDBRANCH   1   8
BRANCH   2  20
ATOM     20  O   UNL     1      34.664 -24.287 -15.991  0.00  0.00    -0.452 OA
BRANCH  20  21
ATOM     21  C   UNL     1      35.417 -24.177 -14.835  0.00  0.00    +0.146 C 
ATOM     22  C   UNL     1      36.866 -25.171 -13.206  0.00  0.00    +0.085 C 
ATOM     23  C   UNL     1      36.107 -25.283 -14.370  0.00  0.00    +0.044 C 
ATOM     24  C   UNL     1      36.924 -23.955 -12.524  0.00  0.00    +0.082 C 
ATOM     25  C   UNL     1      35.462 -22.963 -14.173  0.00  0.00    +0.038 C 
ATOM     26  C   UNL     1      36.221 -22.852 -13.008  0.00  0.00    +0.010 C 
BRANCH  22  28
ATOM     27  O   UNL     1      38.620 -26.798 -13.228  0.00  0.00    -0.245 OA
ATOM     28  C   UNL     1      37.588 -26.342 -12.727  0.00  0.00    +0.338 C 
BRANCH  28  29
ATOM     29  O   UNL     1      37.000 -26.904 -11.638  0.00  0.00    -0.477 OA
ATOM     30  H   UNL     1      36.382 -26.413 -11.133  0.00  0.00    +0.295 HD
ENDBRANCH  28  29
ENDBRANCH  22  28
BRANCH  24  32
ATOM     31  O   UNL     1      38.847 -23.338 -11.243  0.00  0.00    -0.245 OA
ATOM     32  C   UNL     1      37.707 -23.806 -11.306  0.00  0.00    +0.338 C 
BRANCH  32  33
ATOM     33  O   UNL     1      37.040 -24.247 -10.205  0.00  0.00    -0.477 OA
ATOM     34  H   UNL     1      36.312 -24.829 -10.299  0.00  0.00    +0.295 HD
ENDBRANCH  32  33
ENDBRANCH  24  32
ENDBRANCH  20  21
ENDBRANCH   2  20
TORSDOF 9
ENDMDL
MODEL 5
REMARK VINA RESULT:     -10.4      0.879      1.967
REMARK  Name = 657140
REMARK  9 active torsions:
REMARK  status: ('A' for Active; 'I' for Inactive)
REMARK    1  A    between atoms: C_1  and  N_8
REMARK    2  A    between atoms: C_2  and  O_20
REMARK    3  A    between atoms: C_9  and  C_11
REMARK    4  A    between atoms: C_14  and  N_19
REMARK    5  A    between atoms: O_20  and  C_21
REMARK    6  A    between atoms: C_22  and  C_28
REMARK    7  A    between atoms: C_24  and  C_32
REMARK    8  A    between atoms: C_28  and  O_29
REMARK    9  A    between atoms: C_32  and  O_33
REMARK                            x       y       z     vdW  Elec       q    Type
REMARK                         _______ _______ _______ _____ _____    ______ ____
ROOT
ATOM      1  C   UNL     1      31.517 -23.395 -15.824  0.00  0.00    +0.086 C 
ATOM      2  C   UNL     1      32.171 -23.518 -14.609  0.00  0.00    +0.159 C 
ATOM      3  C   UNL     1      30.307 -24.027 -16.060  0.00  0.00    +0.018 C 
ATOM      4  C   UNL     1      31.600 -24.297 -13.603  0.00  0.00    +0.039 C 
ATOM      5  C   UNL     1      29.736 -24.806 -15.054  0.00  0.00    +0.001 C 
ATOM      6  C   UNL     1      30.382 -24.941 -13.825  0.00  0.00    +0.003 C 
ENDROOT
BRANCH   1   8
ATOM      7  O   UNL     1      33.826 -23.960 -17.650  0.00  0.00    -0.270 OA
ATOM      8  N   UNL     1      32.083 -22.606 -16.855  0.00  0.00    -0.278 N 
ATOM      9  C   UNL     1      33.169 -22.909 -17.690  0.00  0.00    +0.250 C 
ATOM     10  H   UNL     1      31.659 -21.730 -17.005  0.00  0.00    +0.155 HD
BRANCH   9  11
ATOM     11  C   UNL     1      33.540 -21.878 -18.646  0.00  0.00    +0.055 C 
ATOM     12  C   UNL     1      34.884 -21.555 -18.836  0.00  0.00    +0.029 C 
ATOM     13  C   UNL     1      32.554 -21.214 -19.375  0.00  0.00    +0.005 C 
ATOM     14  C   UNL     1      35.241 -20.568 -19.755  0.00  0.00    +0.143 C 
ATOM     15  C   UNL     1      32.910 -20.226 -20.293  0.00  0.00    +0.002 C 
ATOM     16  C   UNL     1      34.253 -19.904 -20.483  0.00  0.00    +0.024 C 
BRANCH  14  19
ATOM     17  O   UNL     1      36.921 -19.045 -20.176  0.00  0.00    -0.126 OA
ATOM     18  O   UNL     1      37.467 -21.152 -19.893  0.00  0.00    -0.126 OA
ATOM     19  N   UNL     1      36.608 -20.240 -19.950  0.00  0.00    +0.058 N 
ENDBRANCH  14  19
ENDBRANCH   9  11
ENDBRANCH   1   8
BRANCH   2  20
ATOM     20  O   UNL     1      33.360 -22.897 -14.371  0.00  0.00    -0.452 OA
BRANCH  20  21
ATOM     21  C   UNL     1      34.352 -23.630 -13.740  0.00  0.00    +0.146 C 
ATOM     22  C   UNL     1      36.367 -24.920 -13.862  0.00  0.00    +0.085 C 
ATOM     23  C   UNL     1      35.369 -24.182 -14.498  0.00  0.00    +0.044 C 
ATOM     24  C   UNL     1      36.333 -25.093 -12.479  0.00  0.00    +0.082 C 
ATOM     25  C   UNL     1      34.300 -23.790 -12.367  0.00  0.00    +0.038 C 
ATOM     26  C   UNL     1      35.299 -24.528 -11.731  0.00  0.00    +0.010 C 
BRANCH  22  28
ATOM     27  O   UNL     1      38.578 -25.047 -14.766  0.00  0.00    -0.245 OA
ATOM     28  C   UNL     1      37.433 -25.497 -14.671  0.00  0.00    +0.338 C 
BRANCH  28  29
ATOM     29  O   UNL     1      37.034 -26.616 -15.332  0.00  0.00    -0.477 OA
ATOM     30  H   UNL     1      37.138 -27.457 -14.934  0.00  0.00    +0.295 HD
ENDBRANCH  28  29
ENDBRANCH  22  28
BRANCH  24  32
ATOM     31  O   UNL     1      37.188 -26.950 -11.236  0.00  0.00    -0.245 OA
ATOM     32  C   UNL     1      37.360 -25.857 -11.785  0.00  0.00    +0.338 C 
BRANCH  32  33
ATOM     33  O   UNL     1      38.568 -25.234 -11.799  0.00  0.00    -0.477 OA
ATOM     34  H   UNL     1      39.323 -25.681 -12.128  0.00  0.00    +0.295 HD
ENDBRANCH  32  33
ENDBRANCH  24  32
ENDBRANCH  20  21
ENDBRANCH   2  20
TORSDOF 9
ENDMDL
MODEL 6
REMARK VINA RESULT:     -10.4      1.531      2.673
REMARK  Name = 657140
REMARK  9 active torsions:
REMARK  status: ('A' for Active; 'I' for Inactive)
REMARK    1  A    between atoms: C_1  and  N_8
REMARK    2  A    between atoms: C_2  and  O_20
REMARK    3  A    between atoms: C_9  and  C_11
REMARK    4  A    between atoms: C_14  and  N_19
REMARK    5  A    between atoms: O_20  and  C_21
REMARK    6  A    between atoms: C_22  and  C_28
REMARK    7  A    between atoms: C_24  and  C_32
REMARK    8  A    between atoms: C_28  and  O_29
REMARK    9  A    between atoms: C_32  and  O_33
REMARK                            x       y       z     vdW  Elec       q    Type
REMARK                         _______ _______ _______ _____ _____    ______ ____
ROOT
ATOM      1  C   UNL     1      31.863 -23.464 -15.415  0.00  0.00    +0.086 C 
ATOM      2  C   UNL     1      32.212 -23.497 -14.075  0.00  0.00    +0.159 C 
ATOM      3  C   UNL     1      30.707 -24.073 -15.875  0.00  0.00    +0.018 C 
ATOM      4  C   UNL     1      31.383 -24.159 -13.170  0.00  0.00    +0.039 C 
ATOM      5  C   UNL     1      29.878 -24.735 -14.971  0.00  0.00    +0.001 C 
ATOM      6  C   UNL     1      30.216 -24.778 -13.617  0.00  0.00    +0.003 C 
ENDROOT
BRANCH   1   8
ATOM      7  O   UNL     1      33.731 -24.563 -17.486  0.00  0.00    -0.270 OA
ATOM      8  N   UNL     1      32.694 -22.794 -16.346  0.00  0.00    -0.278 N 
ATOM      9  C   UNL     1      33.557 -23.348 -17.302  0.00  0.00    +0.250 C 
ATOM     10  H   UNL     1      32.662 -21.810 -16.318  0.00  0.00    +0.155 HD
BRANCH   9  11
ATOM     11  C   UNL     1      34.309 -22.397 -18.105  0.00  0.00    +0.055 C 
ATOM     12  C   UNL     1      33.674 -21.692 -19.128  0.00  0.00    +0.029 C 
ATOM     13  C   UNL     1      35.665 -22.188 -17.851  0.00  0.00    +0.005 C 
ATOM     14  C   UNL     1      34.396 -20.778 -19.896  0.00  0.00    +0.143 C 
ATOM     15  C   UNL     1      36.386 -21.275 -18.620  0.00  0.00    +0.002 C 
ATOM     16  C   UNL     1      35.751 -20.570 -19.642  0.00  0.00    +0.024 C 
BRANCH  14  19
ATOM     17  O   UNL     1      32.497 -20.067 -20.994  0.00  0.00    -0.126 OA
ATOM     18  O   UNL     1      34.450 -19.435 -21.770  0.00  0.00    -0.126 OA
ATOM     19  N   UNL     1      33.750 -20.059 -20.937  0.00  0.00    +0.058 N 
ENDBRANCH  14  19
ENDBRANCH   9  11
ENDBRANCH   1   8
BRANCH   2  20
ATOM     20  O   UNL     1      33.348 -22.898 -13.617  0.00  0.00    -0.452 OA
BRANCH  20  21
ATOM     21  C   UNL     1      34.398 -23.718 -13.240  0.00  0.00    +0.146 C 
ATOM     22  C   UNL     1      36.107 -25.293 -13.824  0.00  0.00    +0.085 C 
ATOM     23  C   UNL     1      35.048 -24.468 -14.204  0.00  0.00    +0.044 C 
ATOM     24  C   UNL     1      36.498 -25.354 -12.486  0.00  0.00    +0.082 C 
ATOM     25  C   UNL     1      34.772 -23.765 -11.909  0.00  0.00    +0.038 C 
ATOM     26  C   UNL     1      35.830 -24.590 -11.529  0.00  0.00    +0.010 C 
BRANCH  22  28
ATOM     27  O   UNL     1      36.323 -27.084 -15.394  0.00  0.00    -0.245 OA
ATOM     28  C   UNL     1      36.784 -26.078 -14.847  0.00  0.00    +0.338 C 
BRANCH  28  29
ATOM     29  O   UNL     1      38.012 -25.582 -15.154  0.00  0.00    -0.477 OA
ATOM     30  H   UNL     1      38.096 -24.705 -15.472  0.00  0.00    +0.295 HD
ENDBRANCH  28  29
ENDBRANCH  22  28
BRANCH  24  32
ATOM     31  O   UNL     1      38.757 -26.144 -12.482  0.00  0.00    -0.245 OA
ATOM     32  C   UNL     1      37.599 -26.206 -12.058  0.00  0.00    +0.338 C 
BRANCH  32  33
ATOM     33  O   UNL     1      37.218 -27.108 -11.113  0.00  0.00    -0.477 OA
ATOM     34  H   UNL     1      37.452 -28.011 -11.206  0.00  0.00    +0.295 HD
ENDBRANCH  32  33
ENDBRANCH  24  32
ENDBRANCH  20  21
ENDBRANCH   2  20
TORSDOF 9
ENDMDL
MODEL 7
REMARK VINA RESULT:     -10.4      2.570      5.966
REMARK  Name = 657140
REMARK  9 active torsions:
REMARK  status: ('A' for Active; 'I' for Inactive)
REMARK    1  A    between atoms: C_1  and  N_8
REMARK    2  A    between atoms: C_2  and  O_20
REMARK    3  A    between atoms: C_9  and  C_11
REMARK    4  A    between atoms: C_14  and  N_19
REMARK    5  A    between atoms: O_20  and  C_21
REMARK    6  A    between atoms: C_22  and  C_28
REMARK    7  A    between atoms: C_24  and  C_32
REMARK    8  A    between atoms: C_28  and  O_29
REMARK    9  A    between atoms: C_32  and  O_33
REMARK                            x       y       z     vdW  Elec       q    Type
REMARK                         _______ _______ _______ _____ _____    ______ ____
ROOT
ATOM      1  C   UNL     1      34.895 -22.136 -17.772  0.00  0.00    +0.086 C 
ATOM      2  C   UNL     1      36.067 -21.819 -17.105  0.00  0.00    +0.159 C 
ATOM      3  C   UNL     1      34.788 -22.006 -19.147  0.00  0.00    +0.018 C 
ATOM      4  C   UNL     1      37.162 -21.356 -17.834  0.00  0.00    +0.039 C 
ATOM      5  C   UNL     1      35.883 -21.543 -19.876  0.00  0.00    +0.001 C 
ATOM      6  C   UNL     1      37.071 -21.218 -19.219  0.00  0.00    +0.003 C 
ENDROOT
BRANCH   1   8
ATOM      7  O   UNL     1      31.975 -21.550 -18.117  0.00  0.00    -0.270 OA
ATOM      8  N   UNL     1      33.774 -22.609 -17.046  0.00  0.00    -0.278 N 
ATOM      9  C   UNL     1      32.419 -22.309 -17.241  0.00  0.00    +0.250 C 
ATOM     10  H   UNL     1      33.973 -23.230 -16.308  0.00  0.00    +0.155 HD
BRANCH   9  11
ATOM     11  C   UNL     1      31.491 -22.931 -16.310  0.00  0.00    +0.055 C 
ATOM     12  C   UNL     1      30.119 -22.891 -16.561  0.00  0.00    +0.029 C 
ATOM     13  C   UNL     1      31.972 -23.571 -15.168  0.00  0.00    +0.005 C 
ATOM     14  C   UNL     1      29.229 -23.490 -15.669  0.00  0.00    +0.143 C 
ATOM     15  C   UNL     1      31.083 -24.169 -14.275  0.00  0.00    +0.002 C 
ATOM     16  C   UNL     1      29.712 -24.129 -14.526  0.00  0.00    +0.024 C 
BRANCH  14  19
ATOM     17  O   UNL     1      27.394 -23.954 -16.987  0.00  0.00    -0.126 OA
ATOM     18  O   UNL     1      27.075 -22.914 -15.080  0.00  0.00    -0.126 OA
ATOM     19  N   UNL     1      27.833 -23.451 -15.924  0.00  0.00    +0.058 N 
ENDBRANCH  14  19
ENDBRANCH   9  11
ENDBRANCH   1   8
BRANCH   2  20
ATOM     20  O   UNL     1      36.178 -21.947 -15.753  0.00  0.00    -0.452 OA
BRANCH  20  21
ATOM     21  C   UNL     1      36.547 -23.185 -15.254  0.00  0.00    +0.146 C 
ATOM     22  C   UNL     1      38.260 -24.748 -14.654  0.00  0.00    +0.085 C 
ATOM     23  C   UNL     1      37.890 -23.501 -15.157  0.00  0.00    +0.044 C 
ATOM     24  C   UNL     1      37.282 -25.659 -14.256  0.00  0.00    +0.082 C 
ATOM     25  C   UNL     1      35.561 -24.075 -14.864  0.00  0.00    +0.038 C 
ATOM     26  C   UNL     1      35.932 -25.321 -14.361  0.00  0.00    +0.010 C 
BRANCH  22  28
ATOM     27  O   UNL     1      40.410 -24.784 -13.606  0.00  0.00    -0.245 OA
ATOM     28  C   UNL     1      39.678 -25.069 -14.557  0.00  0.00    +0.338 C 
BRANCH  28  29
ATOM     29  O   UNL     1      40.134 -25.737 -15.650  0.00  0.00    -0.477 OA
ATOM     30  H   UNL     1      39.777 -26.574 -15.871  0.00  0.00    +0.295 HD
ENDBRANCH  28  29
ENDBRANCH  22  28
BRANCH  24  32
ATOM     31  O   UNL     1      38.316 -27.815 -14.314  0.00  0.00    -0.245 OA
ATOM     32  C   UNL     1      37.636 -26.968 -13.727  0.00  0.00    +0.338 C 
BRANCH  32  33
ATOM     33  O   UNL     1      37.130 -27.178 -12.482  0.00  0.00    -0.477 OA
ATOM     34  H   UNL     1      36.229 -26.990 -12.305  0.00  0.00    +0.295 HD
ENDBRANCH  32  33
ENDBRANCH  24  32
ENDBRANCH  20  21
ENDBRANCH   2  20
TORSDOF 9
ENDMDL
MODEL 8
REMARK VINA RESULT:     -10.3      2.536      5.796
REMARK  Name = 657140
REMARK  9 active torsions:
REMARK  status: ('A' for Active; 'I' for Inactive)
REMARK    1  A    between atoms: C_1  and  N_8
REMARK    2  A    between atoms: C_2  and  O_20
REMARK    3  A    between atoms: C_9  and  C_11
REMARK    4  A    between atoms: C_14  and  N_19
REMARK    5  A    between atoms: O_20  and  C_21
REMARK    6  A    between atoms: C_22  and  C_28
REMARK    7  A    between atoms: C_24  and  C_32
REMARK    8  A    between atoms: C_28  and  O_29
REMARK    9  A    between atoms: C_32  and  O_33
REMARK                            x       y       z     vdW  Elec       q    Type
REMARK                         _______ _______ _______ _____ _____    ______ ____
ROOT
ATOM      1  C   UNL     1      34.635 -22.273 -17.744  0.00  0.00    +0.086 C 
ATOM      2  C   UNL     1      35.822 -21.957 -17.104  0.00  0.00    +0.159 C 
ATOM      3  C   UNL     1      34.501 -22.153 -19.118  0.00  0.00    +0.018 C 
ATOM      4  C   UNL     1      36.905 -21.507 -17.859  0.00  0.00    +0.039 C 
ATOM      5  C   UNL     1      35.584 -21.703 -19.873  0.00  0.00    +0.001 C 
ATOM      6  C   UNL     1      36.787 -21.381 -19.243  0.00  0.00    +0.003 C 
ENDROOT
BRANCH   1   8
ATOM      7  O   UNL     1      31.725 -21.586 -17.965  0.00  0.00    -0.270 OA
ATOM      8  N   UNL     1      33.526 -22.732 -16.992  0.00  0.00    -0.278 N 
ATOM      9  C   UNL     1      32.174 -22.384 -17.128  0.00  0.00    +0.250 C 
ATOM     10  H   UNL     1      33.731 -23.380 -16.279  0.00  0.00    +0.155 HD
BRANCH   9  11
ATOM     11  C   UNL     1      31.261 -23.005 -16.182  0.00  0.00    +0.055 C 
ATOM     12  C   UNL     1      31.755 -23.583 -15.012  0.00  0.00    +0.029 C 
ATOM     13  C   UNL     1      29.891 -23.022 -16.443  0.00  0.00    +0.005 C 
ATOM     14  C   UNL     1      30.879 -24.177 -14.104  0.00  0.00    +0.143 C 
ATOM     15  C   UNL     1      29.015 -23.616 -15.536  0.00  0.00    +0.002 C 
ATOM     16  C   UNL     1      29.509 -24.194 -14.366  0.00  0.00    +0.024 C 
BRANCH  14  19
ATOM     17  O   UNL     1      30.580 -25.034 -11.984  0.00  0.00    -0.126 OA
ATOM     18  O   UNL     1      32.610 -24.996 -12.819  0.00  0.00    -0.126 OA
ATOM     19  N   UNL     1      31.380 -24.764 -12.912  0.00  0.00    +0.058 N 
ENDBRANCH  14  19
ENDBRANCH   9  11
ENDBRANCH   1   8
BRANCH   2  20
ATOM     20  O   UNL     1      35.959 -22.075 -15.753  0.00  0.00    -0.452 OA
BRANCH  20  21
ATOM     21  C   UNL     1      36.369 -23.300 -15.254  0.00  0.00    +0.146 C 
ATOM     22  C   UNL     1      38.133 -24.793 -14.624  0.00  0.00    +0.085 C 
ATOM     23  C   UNL     1      37.722 -23.559 -15.127  0.00  0.00    +0.044 C 
ATOM     24  C   UNL     1      37.185 -25.748 -14.256  0.00  0.00    +0.082 C 
ATOM     25  C   UNL     1      35.413 -24.234 -14.895  0.00  0.00    +0.038 C 
ATOM     26  C   UNL     1      35.826 -25.468 -14.391  0.00  0.00    +0.010 C 
BRANCH  22  28
ATOM     27  O   UNL     1      40.248 -24.787 -13.506  0.00  0.00    -0.245 OA
ATOM     28  C   UNL     1      39.561 -25.054 -14.495  0.00  0.00    +0.338 C 
BRANCH  28  29
ATOM     29  O   UNL     1      40.083 -25.642 -15.604  0.00  0.00    -0.477 OA
ATOM     30  H   UNL     1      39.516 -25.935 -16.290  0.00  0.00    +0.295 HD
ENDBRANCH  28  29
ENDBRANCH  22  28
BRANCH  24  32
ATOM     31  O   UNL     1      38.288 -27.870 -14.317  0.00  0.00    -0.245 OA
ATOM     32  C   UNL     1      37.583 -27.045 -13.728  0.00  0.00    +0.338 C 
BRANCH  32  33
ATOM     33  O   UNL     1      37.087 -27.271 -12.482  0.00  0.00    -0.477 OA
ATOM     34  H   UNL     1      36.277 -26.879 -12.221  0.00  0.00    +0.295 HD
ENDBRANCH  32  33
ENDBRANCH  24  32
ENDBRANCH  20  21
ENDBRANCH   2  20
TORSDOF 9
ENDMDL
MODEL 9
REMARK VINA RESULT:     -10.1      2.645      5.996
REMARK  Name = 657140
REMARK  9 active torsions:
REMARK  status: ('A' for Active; 'I' for Inactive)
REMARK    1  A    between atoms: C_1  and  N_8
REMARK    2  A    between atoms: C_2  and  O_20
REMARK    3  A    between atoms: C_9  and  C_11
REMARK    4  A    between atoms: C_14  and  N_19
REMARK    5  A    between atoms: O_20  and  C_21
REMARK    6  A    between atoms: C_22  and  C_28
REMARK    7  A    between atoms: C_24  and  C_32
REMARK    8  A    between atoms: C_28  and  O_29
REMARK    9  A    between atoms: C_32  and  O_33
REMARK                            x       y       z     vdW  Elec       q    Type
REMARK                         _______ _______ _______ _____ _____    ______ ____
ROOT
ATOM      1  C   UNL     1      33.899 -22.403 -17.661  0.00  0.00    +0.086 C 
ATOM      2  C   UNL     1      35.113 -22.430 -16.994  0.00  0.00    +0.159 C 
ATOM      3  C   UNL     1      33.787 -21.869 -18.934  0.00  0.00    +0.018 C 
ATOM      4  C   UNL     1      36.246 -21.906 -17.618  0.00  0.00    +0.039 C 
ATOM      5  C   UNL     1      34.919 -21.345 -19.558  0.00  0.00    +0.001 C 
ATOM      6  C   UNL     1      36.149 -21.365 -18.899  0.00  0.00    +0.003 C 
ENDROOT
BRANCH   1   8
ATOM      7  O   UNL     1      33.070 -22.405 -14.780  0.00  0.00    -0.270 OA
ATOM      8  N   UNL     1      32.740 -22.932 -17.042  0.00  0.00    -0.278 N 
ATOM      9  C   UNL     1      32.389 -22.912 -15.685  0.00  0.00    +0.250 C 
ATOM     10  H   UNL     1      32.097 -23.372 -17.644  0.00  0.00    +0.155 HD
BRANCH   9  11
ATOM     11  C   UNL     1      31.136 -23.567 -15.344  0.00  0.00    +0.055 C 
ATOM     12  C   UNL     1      29.937 -23.102 -15.884  0.00  0.00    +0.029 C 
ATOM     13  C   UNL     1      31.134 -24.661 -14.480  0.00  0.00    +0.005 C 
ATOM     14  C   UNL     1      28.735 -23.732 -15.559  0.00  0.00    +0.143 C 
ATOM     15  C   UNL     1      29.932 -25.291 -14.154  0.00  0.00    +0.002 C 
ATOM     16  C   UNL     1      28.733 -24.826 -14.694  0.00  0.00    +0.024 C 
BRANCH  14  19
ATOM     17  O   UNL     1      26.696 -22.673 -15.361  0.00  0.00    -0.126 OA
ATOM     18  O   UNL     1      27.285 -23.445 -17.329  0.00  0.00    -0.126 OA
ATOM     19  N   UNL     1      27.514 -23.261 -16.110  0.00  0.00    +0.058 N 
ENDBRANCH  14  19
ENDBRANCH   9  11
ENDBRANCH   1   8
BRANCH   2  20
ATOM     20  O   UNL     1      35.229 -22.955 -15.742  0.00  0.00    -0.452 OA
BRANCH  20  21
ATOM     21  C   UNL     1      36.433 -23.552 -15.406  0.00  0.00    +0.146 C 
ATOM     22  C   UNL     1      37.641 -25.420 -14.517  0.00  0.00    +0.085 C 
ATOM     23  C   UNL     1      36.428 -24.820 -14.854  0.00  0.00    +0.044 C 
ATOM     24  C   UNL     1      38.840 -24.742 -14.736  0.00  0.00    +0.082 C 
ATOM     25  C   UNL     1      37.612 -22.863 -15.632  0.00  0.00    +0.038 C 
ATOM     26  C   UNL     1      38.825 -23.464 -15.294  0.00  0.00    +0.010 C 
BRANCH  22  28
ATOM     27  O   UNL     1      38.255 -27.726 -14.360  0.00  0.00    -0.245 OA
ATOM     28  C   UNL     1      37.622 -26.756 -13.936  0.00  0.00    +0.338 C 
BRANCH  28  29
ATOM     29  O   UNL     1      36.815 -26.836 -12.845  0.00  0.00    -0.477 OA
ATOM     30  H   UNL     1      36.172 -27.515 -12.787  0.00  0.00    +0.295 HD
ENDBRANCH  28  29
ENDBRANCH  22  28
BRANCH  24  32
ATOM     31  O   UNL     1      40.735 -25.160 -13.338  0.00  0.00    -0.245 OA
ATOM     32  C   UNL     1      40.122 -25.341 -14.394  0.00  0.00    +0.338 C 
BRANCH  32  33
ATOM     33  O   UNL     1      40.598 -26.145 -15.382  0.00  0.00    -0.477 OA
ATOM     34  H   UNL     1      40.944 -25.768 -16.167  0.00  0.00    +0.295 HD
ENDBRANCH  32  33
ENDBRANCH  24  32
ENDBRANCH  20  21
ENDBRANCH   2  20
TORSDOF 9
ENDMDL
