MODEL 1
REMARK VINA RESULT:     -11.9      0.000      0.000
REMARK  Name = 25191001
REMARK  7 active torsions:
REMARK  status: ('A' for Active; 'I' for Inactive)
REMARK    1  A    between atoms: C_1  and  N_9
REMARK    2  A    between atoms: C_2  and  O_24
REMARK    3  A    between atoms: N_8  and  C_14
REMARK    4  A    between atoms: C_15  and  C_23
REMARK    5  A    between atoms: O_24  and  C_26
REMARK    6  A    between atoms: C_28  and  C_33
REMARK    7  A    between atoms: N_32  and  C_35
REMARK                            x       y       z     vdW  Elec       q    Type
REMARK                         _______ _______ _______ _____ _____    ______ ____
ROOT
ATOM      1  C   UNL     1      33.484 -14.204 -22.955  0.00  0.00    +0.052 C 
ATOM      2  C   UNL     1      34.943 -16.572 -23.177  0.00  0.00    +0.145 C 
ATOM      3  C   UNL     1      34.206 -14.684 -21.862  0.00  0.00    +0.018 C 
ATOM      4  C   UNL     1      33.491 -14.909 -24.159  0.00  0.00    +0.018 C 
ATOM      5  C   UNL     1      34.936 -15.867 -21.973  0.00  0.00    +0.039 C 
ATOM      6  C   UNL     1      34.221 -16.093 -24.271  0.00  0.00    +0.039 C 
ENDROOT
BRANCH   1   9
ATOM      7  O   UNL     1      34.240 -11.399 -23.648  0.00  0.00    -0.252 OA
ATOM      8  N   UNL     1      32.102 -10.787 -22.912  0.00  0.00    -0.268 N 
ATOM      9  N   UNL     1      32.742 -13.005 -22.842  0.00  0.00    -0.268 N 
ATOM     10  C   UNL     1      33.146 -11.704 -23.183  0.00  0.00    +0.308 C 
ATOM     11  H   UNL     1      31.277 -11.176 -22.540  0.00  0.00    +0.156 HD
ATOM     12  H   UNL     1      31.832 -13.093 -22.480  0.00  0.00    +0.156 HD
BRANCH   8  14
ATOM     13 CL   UNL     1      32.037  -4.938 -23.763  0.00  0.00    -0.082 Cl
ATOM     14  C   UNL     1      32.085  -9.405 -23.104  0.00  0.00    +0.052 C 
ATOM     15  C   UNL     1      31.874  -7.171 -22.209  0.00  0.00    +0.083 C 
ATOM     16  C   UNL     1      31.890  -8.552 -22.017  0.00  0.00    +0.019 C 
ATOM     17  C   UNL     1      32.262  -8.877 -24.382  0.00  0.00    +0.016 C 
ATOM     18  C   UNL     1      32.052  -6.641 -23.487  0.00  0.00    +0.062 C 
ATOM     19  C   UNL     1      32.246  -7.495 -24.575  0.00  0.00    +0.013 C 
BRANCH  15  23
ATOM     20  F   UNL     1      32.673  -5.396 -20.818  0.00  0.00    -0.166 F 
ATOM     21  F   UNL     1      30.527  -5.539 -21.093  0.00  0.00    -0.166 F 
ATOM     22  F   UNL     1      31.561  -7.000 -19.859  0.00  0.00    -0.166 F 
ATOM     23  C   UNL     1      31.663  -6.291 -21.019  0.00  0.00    +0.419 C 
ENDBRANCH  15  23
ENDBRANCH   8  14
ENDBRANCH   1   9
BRANCH   2  24
ATOM     24  O   UNL     1      35.653 -17.728 -23.285  0.00  0.00    -0.453 OA
BRANCH  24  26
ATOM     25  N   UNL     1      36.150 -20.037 -19.837  0.00  0.00    -0.239 NA
ATOM     26  C   UNL     1      35.817 -18.492 -22.142  0.00  0.00    +0.149 C 
ATOM     27  C   UNL     1      34.743 -19.202 -21.617  0.00  0.00    +0.061 C 
ATOM     28  C   UNL     1      34.960 -19.953 -20.472  0.00  0.00    +0.137 C 
ATOM     29  C   UNL     1      37.057 -18.554 -21.517  0.00  0.00    +0.058 C 
ATOM     30  C   UNL     1      37.171 -19.333 -20.377  0.00  0.00    +0.102 C 
BRANCH  28  33
ATOM     31  O   UNL     1      32.701 -20.543 -20.258  0.00  0.00    -0.269 OA
ATOM     32  N   UNL     1      34.215 -21.650 -18.895  0.00  0.00    -0.313 N 
ATOM     33  C   UNL     1      33.874 -20.715 -19.879  0.00  0.00    +0.263 C 
ATOM     34  H   UNL     1      35.163 -21.735 -18.643  0.00  0.00    +0.149 HD
ATOM     35  C   UNL     1      33.254 -22.499 -18.230  0.00  0.00    +0.128 C 
ENDBRANCH  28  33
ENDBRANCH  24  26
ENDBRANCH   2  24
TORSDOF 6
ENDMDL
MODEL 2
REMARK VINA RESULT:     -11.7      5.112      8.368
REMARK  Name = 25191001
REMARK  7 active torsions:
REMARK  status: ('A' for Active; 'I' for Inactive)
REMARK    1  A    between atoms: C_1  and  N_9
REMARK    2  A    between atoms: C_2  and  O_24
REMARK    3  A    between atoms: N_8  and  C_14
REMARK    4  A    between atoms: C_15  and  C_23
REMARK    5  A    between atoms: O_24  and  C_26
REMARK    6  A    between atoms: C_28  and  C_33
REMARK    7  A    between atoms: N_32  and  C_35
REMARK                            x       y       z     vdW  Elec       q    Type
REMARK                         _______ _______ _______ _____ _____    ______ ____
ROOT
ATOM      1  C   UNL     1      35.797 -20.980 -19.009  0.00  0.00    +0.052 C 
ATOM      2  C   UNL     1      35.313 -22.890 -17.034  0.00  0.00    +0.145 C 
ATOM      3  C   UNL     1      34.673 -21.802 -19.093  0.00  0.00    +0.018 C 
ATOM      4  C   UNL     1      36.679 -21.113 -17.937  0.00  0.00    +0.018 C 
ATOM      5  C   UNL     1      34.431 -22.756 -18.106  0.00  0.00    +0.039 C 
ATOM      6  C   UNL     1      36.438 -22.068 -16.949  0.00  0.00    +0.039 C 
ENDROOT
BRANCH   1   9
ATOM      7  O   UNL     1      33.886 -19.321 -20.596  0.00  0.00    -0.252 OA
ATOM      8  N   UNL     1      35.769 -18.402 -21.644  0.00  0.00    -0.268 N 
ATOM      9  N   UNL     1      36.043 -20.013 -20.012  0.00  0.00    -0.268 N 
ATOM     10  C   UNL     1      35.104 -19.257 -20.732  0.00  0.00    +0.308 C 
ATOM     11  H   UNL     1      36.752 -18.458 -21.643  0.00  0.00    +0.156 HD
ATOM     12  H   UNL     1      36.988 -19.850 -20.232  0.00  0.00    +0.156 HD
BRANCH   8  14
ATOM     13 CL   UNL     1      33.426 -14.568 -25.484  0.00  0.00    -0.082 Cl
ATOM     14  C   UNL     1      35.216 -17.490 -22.545  0.00  0.00    +0.052 C 
ATOM     15  C   UNL     1      34.450 -15.257 -23.055  0.00  0.00    +0.083 C 
ATOM     16  C   UNL     1      35.002 -16.168 -22.154  0.00  0.00    +0.019 C 
ATOM     17  C   UNL     1      34.877 -17.901 -23.833  0.00  0.00    +0.016 C 
ATOM     18  C   UNL     1      34.111 -15.667 -24.344  0.00  0.00    +0.062 C 
ATOM     19  C   UNL     1      34.325 -16.990 -24.733  0.00  0.00    +0.013 C 
BRANCH  15  23
ATOM     20  F   UNL     1      34.933 -13.531 -21.469  0.00  0.00    -0.166 F 
ATOM     21  F   UNL     1      34.607 -12.916 -23.523  0.00  0.00    -0.166 F 
ATOM     22  F   UNL     1      32.930 -13.586 -22.312  0.00  0.00    -0.166 F 
ATOM     23  C   UNL     1      34.237 -13.849 -22.599  0.00  0.00    +0.419 C 
ENDBRANCH  15  23
ENDBRANCH   8  14
ENDBRANCH   1   9
BRANCH   2  24
ATOM     24  O   UNL     1      35.079 -23.823 -16.070  0.00  0.00    -0.453 OA
BRANCH  24  26
ATOM     25  N   UNL     1      31.649 -23.379 -13.723  0.00  0.00    -0.239 NA
ATOM     26  C   UNL     1      33.943 -23.674 -15.294  0.00  0.00    +0.149 C 
ATOM     27  C   UNL     1      32.731 -23.335 -15.885  0.00  0.00    +0.061 C 
ATOM     28  C   UNL     1      31.623 -23.201 -15.064  0.00  0.00    +0.137 C 
ATOM     29  C   UNL     1      34.009 -23.867 -13.918  0.00  0.00    +0.058 C 
ATOM     30  C   UNL     1      32.845 -23.708 -13.184  0.00  0.00    +0.102 C 
BRANCH  28  33
ATOM     31  O   UNL     1      30.248 -22.406 -16.788  0.00  0.00    -0.269 OA
ATOM     32  N   UNL     1      29.207 -23.050 -14.818  0.00  0.00    -0.313 N 
ATOM     33  C   UNL     1      30.332 -22.848 -15.627  0.00  0.00    +0.263 C 
ATOM     34  H   UNL     1      29.345 -23.402 -13.910  0.00  0.00    +0.149 HD
ATOM     35  C   UNL     1      27.855 -22.771 -15.244  0.00  0.00    +0.128 C 
ENDBRANCH  28  33
ENDBRANCH  24  26
ENDBRANCH   2  24
TORSDOF 6
ENDMDL
MODEL 3
REMARK VINA RESULT:     -11.5      5.858      9.751
REMARK  Name = 25191001
REMARK  7 active torsions:
REMARK  status: ('A' for Active; 'I' for Inactive)
REMARK    1  A    between atoms: C_1  and  N_9
REMARK    2  A    between atoms: C_2  and  O_24
REMARK    3  A    between atoms: N_8  and  C_14
REMARK    4  A    between atoms: C_15  and  C_23
REMARK    5  A    between atoms: O_24  and  C_26
REMARK    6  A    between atoms: C_28  and  C_33
REMARK    7  A    between atoms: N_32  and  C_35
REMARK                            x       y       z     vdW  Elec       q    Type
REMARK                         _______ _______ _______ _____ _____    ______ ____
ROOT
ATOM      1  C   UNL     1      35.041 -21.999 -18.285  0.00  0.00    +0.052 C 
ATOM      2  C   UNL     1      34.259 -23.519 -16.079  0.00  0.00    +0.145 C 
ATOM      3  C   UNL     1      35.831 -22.019 -17.136  0.00  0.00    +0.018 C 
ATOM      4  C   UNL     1      33.859 -22.738 -18.331  0.00  0.00    +0.018 C 
ATOM      5  C   UNL     1      35.441 -22.779 -16.034  0.00  0.00    +0.039 C 
ATOM      6  C   UNL     1      33.467 -23.499 -17.228  0.00  0.00    +0.039 C 
ENDROOT
BRANCH   1   9
ATOM      7  O   UNL     1      33.526 -19.951 -19.845  0.00  0.00    -0.252 OA
ATOM      8  N   UNL     1      35.451 -19.729 -21.160  0.00  0.00    -0.268 N 
ATOM      9  N   UNL     1      35.436 -21.227 -19.402  0.00  0.00    -0.268 N 
ATOM     10  C   UNL     1      34.682 -20.272 -20.103  0.00  0.00    +0.308 C 
ATOM     11  H   UNL     1      36.366 -20.083 -21.248  0.00  0.00    +0.156 HD
ATOM     12  H   UNL     1      36.352 -21.377 -19.728  0.00  0.00    +0.156 HD
BRANCH   8  14
ATOM     13 CL   UNL     1      33.904 -15.642 -25.140  0.00  0.00    -0.082 Cl
ATOM     14  C   UNL     1      35.087 -18.757 -22.093  0.00  0.00    +0.052 C 
ATOM     15  C   UNL     1      34.638 -16.448 -22.642  0.00  0.00    +0.083 C 
ATOM     16  C   UNL     1      35.003 -17.419 -21.709  0.00  0.00    +0.019 C 
ATOM     17  C   UNL     1      34.806 -19.125 -23.409  0.00  0.00    +0.016 C 
ATOM     18  C   UNL     1      34.358 -16.815 -23.959  0.00  0.00    +0.062 C 
ATOM     19  C   UNL     1      34.442 -18.155 -24.342  0.00  0.00    +0.013 C 
BRANCH  15  23
ATOM     20  F   UNL     1      33.293 -14.518 -22.205  0.00  0.00    -0.166 F 
ATOM     21  F   UNL     1      35.009 -14.832 -20.918  0.00  0.00    -0.166 F 
ATOM     22  F   UNL     1      35.300 -14.189 -22.974  0.00  0.00    -0.166 F 
ATOM     23  C   UNL     1      34.560 -15.025 -22.192  0.00  0.00    +0.419 C 
ENDBRANCH  15  23
ENDBRANCH   8  14
ENDBRANCH   1   9
BRANCH   2  24
ATOM     24  O   UNL     1      33.876 -24.259 -15.003  0.00  0.00    -0.453 OA
BRANCH  24  26
ATOM     25  N   UNL     1      36.799 -25.233 -12.178  0.00  0.00    -0.239 NA
ATOM     26  C   UNL     1      34.845 -24.583 -14.068  0.00  0.00    +0.149 C 
ATOM     27  C   UNL     1      35.994 -25.262 -14.457  0.00  0.00    +0.061 C 
ATOM     28  C   UNL     1      36.933 -25.561 -13.484  0.00  0.00    +0.137 C 
ATOM     29  C   UNL     1      34.672 -24.228 -12.734  0.00  0.00    +0.058 C 
ATOM     30  C   UNL     1      35.669 -24.574 -11.836  0.00  0.00    +0.102 C 
BRANCH  28  33
ATOM     31  O   UNL     1      38.103 -27.432 -14.276  0.00  0.00    -0.269 OA
ATOM     32  N   UNL     1      39.359 -25.578 -13.673  0.00  0.00    -0.313 N 
ATOM     33  C   UNL     1      38.152 -26.269 -13.834  0.00  0.00    +0.263 C 
ATOM     34  H   UNL     1      39.325 -24.661 -13.318  0.00  0.00    +0.149 HD
ATOM     35  C   UNL     1      40.650 -26.137 -13.999  0.00  0.00    +0.128 C 
ENDBRANCH  28  33
ENDBRANCH  24  26
ENDBRANCH   2  24
TORSDOF 6
ENDMDL
MODEL 4
REMARK VINA RESULT:     -11.5      8.544     13.818
REMARK  Name = 25191001
REMARK  7 active torsions:
REMARK  status: ('A' for Active; 'I' for Inactive)
REMARK    1  A    between atoms: C_1  and  N_9
REMARK    2  A    between atoms: C_2  and  O_24
REMARK    3  A    between atoms: N_8  and  C_14
REMARK    4  A    between atoms: C_15  and  C_23
REMARK    5  A    between atoms: O_24  and  C_26
REMARK    6  A    between atoms: C_28  and  C_33
REMARK    7  A    between atoms: N_32  and  C_35
REMARK                            x       y       z     vdW  Elec       q    Type
REMARK                         _______ _______ _______ _____ _____    ______ ____
ROOT
ATOM      1  C   UNL     1      35.424 -21.236 -18.959  0.00  0.00    +0.052 C 
ATOM      2  C   UNL     1      36.025 -19.323 -20.899  0.00  0.00    +0.145 C 
ATOM      3  C   UNL     1      34.403 -20.677 -19.729  0.00  0.00    +0.018 C 
ATOM      4  C   UNL     1      36.746 -20.837 -19.160  0.00  0.00    +0.018 C 
ATOM      5  C   UNL     1      34.703 -19.722 -20.699  0.00  0.00    +0.039 C 
ATOM      6  C   UNL     1      37.047 -19.880 -20.130  0.00  0.00    +0.039 C 
ENDROOT
BRANCH   1   9
ATOM      7  O   UNL     1      36.294 -21.424 -16.108  0.00  0.00    -0.252 OA
ATOM      8  N   UNL     1      35.020 -23.387 -15.993  0.00  0.00    -0.268 N 
ATOM      9  N   UNL     1      35.119 -22.204 -17.974  0.00  0.00    -0.268 N 
ATOM     10  C   UNL     1      35.556 -22.248 -16.641  0.00  0.00    +0.308 C 
ATOM     11  H   UNL     1      34.442 -23.961 -16.547  0.00  0.00    +0.156 HD
ATOM     12  H   UNL     1      34.528 -22.938 -18.259  0.00  0.00    +0.156 HD
BRANCH   8  14
ATOM     13 CL   UNL     1      35.748 -25.149 -10.398  0.00  0.00    -0.082 Cl
ATOM     14  C   UNL     1      35.201 -23.804 -14.674  0.00  0.00    +0.052 C 
ATOM     15  C   UNL     1      36.650 -24.592 -12.909  0.00  0.00    +0.083 C 
ATOM     16  C   UNL     1      36.470 -24.175 -14.228  0.00  0.00    +0.019 C 
ATOM     17  C   UNL     1      34.113 -23.851 -13.802  0.00  0.00    +0.016 C 
ATOM     18  C   UNL     1      35.563 -24.638 -12.036  0.00  0.00    +0.062 C 
ATOM     19  C   UNL     1      34.294 -24.268 -12.484  0.00  0.00    +0.013 C 
BRANCH  15  23
ATOM     20  F   UNL     1      38.951 -24.930 -13.469  0.00  0.00    -0.166 F 
ATOM     21  F   UNL     1      38.523 -24.186 -11.478  0.00  0.00    -0.166 F 
ATOM     22  F   UNL     1      38.076 -26.254 -11.983  0.00  0.00    -0.166 F 
ATOM     23  C   UNL     1      38.025 -24.981 -12.469  0.00  0.00    +0.419 C 
ENDBRANCH  15  23
ENDBRANCH   8  14
ENDBRANCH   1   9
BRANCH   2  24
ATOM     24  O   UNL     1      36.318 -18.388 -21.844  0.00  0.00    -0.453 OA
BRANCH  24  26
ATOM     25  N   UNL     1      33.556 -17.809 -24.928  0.00  0.00    -0.239 NA
ATOM     26  C   UNL     1      35.403 -18.195 -22.865  0.00  0.00    +0.149 C 
ATOM     27  C   UNL     1      35.074 -16.908 -23.276  0.00  0.00    +0.061 C 
ATOM     28  C   UNL     1      34.154 -16.769 -24.302  0.00  0.00    +0.137 C 
ATOM     29  C   UNL     1      34.810 -19.289 -23.485  0.00  0.00    +0.058 C 
ATOM     30  C   UNL     1      33.900 -19.045 -24.502  0.00  0.00    +0.102 C 
BRANCH  28  33
ATOM     31  O   UNL     1      33.427 -15.274 -25.956  0.00  0.00    -0.269 OA
ATOM     32  N   UNL     1      33.793 -14.409 -23.835  0.00  0.00    -0.313 N 
ATOM     33  C   UNL     1      33.773 -15.449 -24.772  0.00  0.00    +0.263 C 
ATOM     34  H   UNL     1      34.077 -14.616 -22.916  0.00  0.00    +0.149 HD
ATOM     35  C   UNL     1      33.419 -13.048 -24.143  0.00  0.00    +0.128 C 
ENDBRANCH  28  33
ENDBRANCH  24  26
ENDBRANCH   2  24
TORSDOF 6
ENDMDL
MODEL 5
REMARK VINA RESULT:     -11.4      2.157      3.121
REMARK  Name = 25191001
REMARK  7 active torsions:
REMARK  status: ('A' for Active; 'I' for Inactive)
REMARK    1  A    between atoms: C_1  and  N_9
REMARK    2  A    between atoms: C_2  and  O_24
REMARK    3  A    between atoms: N_8  and  C_14
REMARK    4  A    between atoms: C_15  and  C_23
REMARK    5  A    between atoms: O_24  and  C_26
REMARK    6  A    between atoms: C_28  and  C_33
REMARK    7  A    between atoms: N_32  and  C_35
REMARK                            x       y       z     vdW  Elec       q    Type
REMARK                         _______ _______ _______ _____ _____    ______ ____
ROOT
ATOM      1  C   UNL     1      34.752 -15.711 -22.859  0.00  0.00    +0.052 C 
ATOM      2  C   UNL     1      35.492 -18.220 -21.887  0.00  0.00    +0.145 C 
ATOM      3  C   UNL     1      34.921 -16.779 -23.740  0.00  0.00    +0.018 C 
ATOM      4  C   UNL     1      34.954 -15.898 -21.491  0.00  0.00    +0.018 C 
ATOM      5  C   UNL     1      35.290 -18.033 -23.255  0.00  0.00    +0.039 C 
ATOM      6  C   UNL     1      35.324 -17.152 -21.005  0.00  0.00    +0.039 C 
ENDROOT
BRANCH   1   9
ATOM      7  O   UNL     1      33.705 -13.316 -21.414  0.00  0.00    -0.252 OA
ATOM      8  N   UNL     1      33.637 -12.257 -23.502  0.00  0.00    -0.268 N 
ATOM      9  N   UNL     1      34.379 -14.439 -23.352  0.00  0.00    -0.268 N 
ATOM     10  C   UNL     1      33.890 -13.341 -22.627  0.00  0.00    +0.308 C 
ATOM     11  H   UNL     1      33.833 -12.421 -24.453  0.00  0.00    +0.156 HD
ATOM     12  H   UNL     1      34.475 -14.308 -24.322  0.00  0.00    +0.156 HD
BRANCH   8  14
ATOM     13 CL   UNL     1      31.533  -6.889 -22.202  0.00  0.00    -0.082 Cl
ATOM     14  C   UNL     1      33.149 -10.986 -23.196  0.00  0.00    +0.052 C 
ATOM     15  C   UNL     1      33.512  -8.612 -22.939  0.00  0.00    +0.083 C 
ATOM     16  C   UNL     1      34.001  -9.882 -23.244  0.00  0.00    +0.019 C 
ATOM     17  C   UNL     1      31.810 -10.820 -22.843  0.00  0.00    +0.016 C 
ATOM     18  C   UNL     1      32.173  -8.445 -22.586  0.00  0.00    +0.062 C 
ATOM     19  C   UNL     1      31.322  -9.550 -22.538  0.00  0.00    +0.013 C 
BRANCH  15  23
ATOM     20  F   UNL     1      34.127  -6.534 -23.954  0.00  0.00    -0.166 F 
ATOM     21  F   UNL     1      34.532  -6.751 -21.835  0.00  0.00    -0.166 F 
ATOM     22  F   UNL     1      35.733  -7.838 -23.286  0.00  0.00    -0.166 F 
ATOM     23  C   UNL     1      34.456  -7.454 -23.002  0.00  0.00    +0.419 C 
ENDBRANCH  15  23
ENDBRANCH   8  14
ENDBRANCH   1   9
BRANCH   2  24
ATOM     24  O   UNL     1      35.854 -19.443 -21.413  0.00  0.00    -0.453 OA
BRANCH  24  26
ATOM     25  N   UNL     1      33.149 -21.440 -18.929  0.00  0.00    -0.239 NA
ATOM     26  C   UNL     1      34.959 -20.106 -20.590  0.00  0.00    +0.149 C 
ATOM     27  C   UNL     1      35.424 -20.922 -19.565  0.00  0.00    +0.061 C 
ATOM     28  C   UNL     1      34.487 -21.561 -18.769  0.00  0.00    +0.137 C 
ATOM     29  C   UNL     1      33.591 -19.955 -20.786  0.00  0.00    +0.058 C 
ATOM     30  C   UNL     1      32.735 -20.638 -19.936  0.00  0.00    +0.102 C 
BRANCH  28  33
ATOM     31  O   UNL     1      34.292 -23.472 -17.425  0.00  0.00    -0.269 OA
ATOM     32  N   UNL     1      36.058 -22.039 -16.973  0.00  0.00    -0.313 N 
ATOM     33  C   UNL     1      34.915 -22.425 -17.683  0.00  0.00    +0.263 C 
ATOM     34  H   UNL     1      36.502 -21.199 -17.229  0.00  0.00    +0.149 HD
ATOM     35  C   UNL     1      36.621 -22.804 -15.884  0.00  0.00    +0.128 C 
ENDBRANCH  28  33
ENDBRANCH  24  26
ENDBRANCH   2  24
TORSDOF 6
ENDMDL
MODEL 6
REMARK VINA RESULT:     -11.3      8.347     13.791
REMARK  Name = 25191001
REMARK  7 active torsions:
REMARK  status: ('A' for Active; 'I' for Inactive)
REMARK    1  A    between atoms: C_1  and  N_9
REMARK    2  A    between atoms: C_2  and  O_24
REMARK    3  A    between atoms: N_8  and  C_14
REMARK    4  A    between atoms: C_15  and  C_23
REMARK    5  A    between atoms: O_24  and  C_26
REMARK    6  A    between atoms: C_28  and  C_33
REMARK    7  A    between atoms: N_32  and  C_35
REMARK                            x       y       z     vdW  Elec       q    Type
REMARK                         _______ _______ _______ _____ _____    ______ ____
ROOT
ATOM      1  C   UNL     1      35.265 -21.162 -19.250  0.00  0.00    +0.052 C 
ATOM      2  C   UNL     1      35.604 -19.162 -21.167  0.00  0.00    +0.145 C 
ATOM      3  C   UNL     1      36.529 -20.617 -19.475  0.00  0.00    +0.018 C 
ATOM      4  C   UNL     1      34.170 -20.707 -19.985  0.00  0.00    +0.018 C 
ATOM      5  C   UNL     1      36.699 -19.617 -20.432  0.00  0.00    +0.039 C 
ATOM      6  C   UNL     1      34.338 -19.706 -20.943  0.00  0.00    +0.039 C 
ENDROOT
BRANCH   1   9
ATOM      7  O   UNL     1      36.168 -21.280 -16.406  0.00  0.00    -0.252 OA
ATOM      8  N   UNL     1      35.160 -23.393 -16.318  0.00  0.00    -0.268 N 
ATOM      9  N   UNL     1      35.094 -22.177 -18.280  0.00  0.00    -0.268 N 
ATOM     10  C   UNL     1      35.540 -22.184 -16.949  0.00  0.00    +0.308 C 
ATOM     11  H   UNL     1      34.658 -24.028 -16.879  0.00  0.00    +0.156 HD
ATOM     12  H   UNL     1      34.601 -22.976 -18.575  0.00  0.00    +0.156 HD
BRANCH   8  14
ATOM     13 CL   UNL     1      36.142 -25.125 -10.753  0.00  0.00    -0.082 Cl
ATOM     14  C   UNL     1      35.401 -23.804 -15.006  0.00  0.00    +0.052 C 
ATOM     15  C   UNL     1      36.921 -24.617 -13.314  0.00  0.00    +0.083 C 
ATOM     16  C   UNL     1      36.681 -24.206 -14.626  0.00  0.00    +0.019 C 
ATOM     17  C   UNL     1      34.361 -23.812 -14.076  0.00  0.00    +0.016 C 
ATOM     18  C   UNL     1      35.883 -24.625 -12.383  0.00  0.00    +0.062 C 
ATOM     19  C   UNL     1      34.602 -24.222 -12.765  0.00  0.00    +0.013 C 
BRANCH  15  23
ATOM     20  F   UNL     1      39.218 -24.853 -13.945  0.00  0.00    -0.166 F 
ATOM     21  F   UNL     1      38.812 -24.369 -11.870  0.00  0.00    -0.166 F 
ATOM     22  F   UNL     1      38.380 -26.363 -12.623  0.00  0.00    -0.166 F 
ATOM     23  C   UNL     1      38.307 -25.040 -12.946  0.00  0.00    +0.419 C 
ENDBRANCH  15  23
ENDBRANCH   8  14
ENDBRANCH   1   9
BRANCH   2  24
ATOM     24  O   UNL     1      35.769 -18.188 -22.103  0.00  0.00    -0.453 OA
BRANCH  24  26
ATOM     25  N   UNL     1      34.300 -14.376 -21.216  0.00  0.00    -0.239 NA
ATOM     26  C   UNL     1      35.283 -16.925 -21.810  0.00  0.00    +0.149 C 
ATOM     27  C   UNL     1      34.945 -16.050 -22.836  0.00  0.00    +0.061 C 
ATOM     28  C   UNL     1      34.462 -14.799 -22.490  0.00  0.00    +0.137 C 
ATOM     29  C   UNL     1      35.130 -16.527 -20.486  0.00  0.00    +0.058 C 
ATOM     30  C   UNL     1      34.640 -15.254 -20.244  0.00  0.00    +0.102 C 
BRANCH  28  33
ATOM     31  O   UNL     1      33.622 -14.235 -24.605  0.00  0.00    -0.269 OA
ATOM     32  N   UNL     1      34.270 -12.487 -23.226  0.00  0.00    -0.313 N 
ATOM     33  C   UNL     1      34.094 -13.844 -23.521  0.00  0.00    +0.263 C 
ATOM     34  H   UNL     1      34.649 -12.248 -22.349  0.00  0.00    +0.149 HD
ATOM     35  C   UNL     1      33.929 -11.419 -24.137  0.00  0.00    +0.128 C 
ENDBRANCH  28  33
ENDBRANCH  24  26
ENDBRANCH   2  24
TORSDOF 6
ENDMDL
MODEL 7
REMARK VINA RESULT:     -11.3      8.521     13.388
REMARK  Name = 25191001
REMARK  7 active torsions:
REMARK  status: ('A' for Active; 'I' for Inactive)
REMARK    1  A    between atoms: C_1  and  N_9
REMARK    2  A    between atoms: C_2  and  O_24
REMARK    3  A    between atoms: N_8  and  C_14
REMARK    4  A    between atoms: C_15  and  C_23
REMARK    5  A    between atoms: O_24  and  C_26
REMARK    6  A    between atoms: C_28  and  C_33
REMARK    7  A    between atoms: N_32  and  C_35
REMARK                            x       y       z     vdW  Elec       q    Type
REMARK                         _______ _______ _______ _____ _____    ______ ____
ROOT
ATOM      1  C   UNL     1      36.456 -19.799 -19.831  0.00  0.00    +0.052 C 
ATOM      2  C   UNL     1      35.649 -18.837 -22.322  0.00  0.00    +0.145 C 
ATOM      3  C   UNL     1      35.178 -20.088 -20.310  0.00  0.00    +0.018 C 
ATOM      4  C   UNL     1      37.330 -19.029 -20.597  0.00  0.00    +0.018 C 
ATOM      5  C   UNL     1      34.775 -19.608 -21.555  0.00  0.00    +0.039 C 
ATOM      6  C   UNL     1      36.927 -18.547 -21.844  0.00  0.00    +0.039 C 
ENDROOT
BRANCH   1   9
ATOM      7  O   UNL     1      35.657 -22.279 -18.371  0.00  0.00    -0.252 OA
ATOM      8  N   UNL     1      37.105 -21.578 -16.667  0.00  0.00    -0.268 N 
ATOM      9  N   UNL     1      36.865 -20.286 -18.566  0.00  0.00    -0.268 N 
ATOM     10  C   UNL     1      36.457 -21.464 -17.921  0.00  0.00    +0.308 C 
ATOM     11  H   UNL     1      37.722 -20.846 -16.438  0.00  0.00    +0.156 HD
ATOM     12  H   UNL     1      37.514 -19.730 -18.080  0.00  0.00    +0.156 HD
BRANCH   8  14
ATOM     13 CL   UNL     1      36.562 -25.855 -12.624  0.00  0.00    -0.082 Cl
ATOM     14  C   UNL     1      36.985 -22.590 -15.714  0.00  0.00    +0.052 C 
ATOM     15  C   UNL     1      37.972 -24.387 -14.436  0.00  0.00    +0.083 C 
ATOM     16  C   UNL     1      38.092 -23.376 -15.389  0.00  0.00    +0.019 C 
ATOM     17  C   UNL     1      35.761 -22.816 -15.087  0.00  0.00    +0.016 C 
ATOM     18  C   UNL     1      36.748 -24.613 -13.808  0.00  0.00    +0.062 C 
ATOM     19  C   UNL     1      35.641 -23.827 -14.134  0.00  0.00    +0.013 C 
BRANCH  15  23
ATOM     20  F   UNL     1      38.998 -26.545 -14.307  0.00  0.00    -0.166 F 
ATOM     21  F   UNL     1      40.272 -24.883 -14.869  0.00  0.00    -0.166 F 
ATOM     22  F   UNL     1      39.574 -25.069 -12.818  0.00  0.00    -0.166 F 
ATOM     23  C   UNL     1      39.181 -25.206 -14.116  0.00  0.00    +0.419 C 
ENDBRANCH  15  23
ENDBRANCH   8  14
ENDBRANCH   1   9
BRANCH   2  24
ATOM     24  O   UNL     1      35.255 -18.366 -23.537  0.00  0.00    -0.453 OA
BRANCH  24  26
ATOM     25  N   UNL     1      33.701 -14.489 -23.709  0.00  0.00    -0.239 NA
ATOM     26  C   UNL     1      34.739 -17.082 -23.593  0.00  0.00    +0.149 C 
ATOM     27  C   UNL     1      34.621 -16.325 -22.433  0.00  0.00    +0.061 C 
ATOM     28  C   UNL     1      34.100 -15.046 -22.543  0.00  0.00    +0.137 C 
ATOM     29  C   UNL     1      34.340 -16.544 -24.811  0.00  0.00    +0.058 C 
ATOM     30  C   UNL     1      33.832 -15.255 -24.816  0.00  0.00    +0.102 C 
BRANCH  28  33
ATOM     31  O   UNL     1      34.916 -14.024 -20.597  0.00  0.00    -0.269 OA
ATOM     32  N   UNL     1      32.702 -13.618 -21.154  0.00  0.00    -0.313 N 
ATOM     33  C   UNL     1      33.953 -14.210 -21.364  0.00  0.00    +0.263 C 
ATOM     34  H   UNL     1      31.984 -13.809 -21.799  0.00  0.00    +0.149 HD
ATOM     35  C   UNL     1      32.407 -12.744 -20.042  0.00  0.00    +0.128 C 
ENDBRANCH  28  33
ENDBRANCH  24  26
ENDBRANCH   2  24
TORSDOF 6
ENDMDL
MODEL 8
REMARK VINA RESULT:     -11.2      1.687      2.145
REMARK  Name = 25191001
REMARK  7 active torsions:
REMARK  status: ('A' for Active; 'I' for Inactive)
REMARK    1  A    between atoms: C_1  and  N_9
REMARK    2  A    between atoms: C_2  and  O_24
REMARK    3  A    between atoms: N_8  and  C_14
REMARK    4  A    between atoms: C_15  and  C_23
REMARK    5  A    between atoms: O_24  and  C_26
REMARK    6  A    between atoms: C_28  and  C_33
REMARK    7  A    between atoms: N_32  and  C_35
REMARK                            x       y       z     vdW  Elec       q    Type
REMARK                         _______ _______ _______ _____ _____    ______ ____
ROOT
ATOM      1  C   UNL     1      33.735 -14.174 -22.710  0.00  0.00    +0.052 C 
ATOM      2  C   UNL     1      34.998 -16.644 -23.000  0.00  0.00    +0.145 C 
ATOM      3  C   UNL     1      33.713 -14.828 -23.942  0.00  0.00    +0.018 C 
ATOM      4  C   UNL     1      34.389 -14.754 -21.624  0.00  0.00    +0.018 C 
ATOM      5  C   UNL     1      34.344 -16.064 -24.087  0.00  0.00    +0.039 C 
ATOM      6  C   UNL     1      35.021 -15.990 -21.768  0.00  0.00    +0.039 C 
ENDROOT
BRANCH   1   9
ATOM      7  O   UNL     1      34.272 -11.567 -24.067  0.00  0.00    -0.252 OA
ATOM      8  N   UNL     1      32.511 -10.697 -22.790  0.00  0.00    -0.268 N 
ATOM      9  N   UNL     1      33.096 -12.920 -22.564  0.00  0.00    -0.268 N 
ATOM     10  C   UNL     1      33.388 -11.719 -23.229  0.00  0.00    +0.308 C 
ATOM     11  H   UNL     1      31.850 -10.965 -22.111  0.00  0.00    +0.156 HD
ATOM     12  H   UNL     1      32.356 -12.886 -21.916  0.00  0.00    +0.156 HD
BRANCH   8  14
ATOM     13 CL   UNL     1      32.246  -5.045 -24.497  0.00  0.00    -0.082 Cl
ATOM     14  C   UNL     1      32.458  -9.362 -23.193  0.00  0.00    +0.052 C 
ATOM     15  C   UNL     1      33.584  -7.329 -23.851  0.00  0.00    +0.083 C 
ATOM     16  C   UNL     1      33.638  -8.664 -23.448  0.00  0.00    +0.019 C 
ATOM     17  C   UNL     1      31.225  -8.728 -23.341  0.00  0.00    +0.016 C 
ATOM     18  C   UNL     1      32.352  -6.694 -24.000  0.00  0.00    +0.062 C 
ATOM     19  C   UNL     1      31.171  -7.393 -23.744  0.00  0.00    +0.013 C 
BRANCH  15  23
ATOM     20  F   UNL     1      35.458  -6.970 -25.295  0.00  0.00    -0.166 F 
ATOM     21  F   UNL     1      34.737  -5.259 -24.176  0.00  0.00    -0.166 F 
ATOM     22  F   UNL     1      35.806  -6.852 -23.152  0.00  0.00    -0.166 F 
ATOM     23  C   UNL     1      34.871  -6.616 -24.116  0.00  0.00    +0.419 C 
ENDBRANCH  15  23
ENDBRANCH   8  14
ENDBRANCH   1   9
BRANCH   2  24
ATOM     24  O   UNL     1      35.616 -17.849 -23.142  0.00  0.00    -0.453 OA
BRANCH  24  26
ATOM     25  N   UNL     1      36.176 -20.165 -19.707  0.00  0.00    -0.239 NA
ATOM     26  C   UNL     1      35.801 -18.615 -22.004  0.00  0.00    +0.149 C 
ATOM     27  C   UNL     1      34.744 -19.348 -21.475  0.00  0.00    +0.061 C 
ATOM     28  C   UNL     1      34.980 -20.100 -20.336  0.00  0.00    +0.137 C 
ATOM     29  C   UNL     1      37.046 -18.657 -21.386  0.00  0.00    +0.058 C 
ATOM     30  C   UNL     1      37.180 -19.439 -20.250  0.00  0.00    +0.102 C 
BRANCH  28  33
ATOM     31  O   UNL     1      32.737 -20.749 -20.128  0.00  0.00    -0.269 OA
ATOM     32  N   UNL     1      34.274 -21.800 -18.745  0.00  0.00    -0.313 N 
ATOM     33  C   UNL     1      33.913 -20.885 -19.741  0.00  0.00    +0.263 C 
ATOM     34  H   UNL     1      35.222 -21.855 -18.486  0.00  0.00    +0.149 HD
ATOM     35  C   UNL     1      33.332 -22.667 -18.076  0.00  0.00    +0.128 C 
ENDBRANCH  28  33
ENDBRANCH  24  26
ENDBRANCH   2  24
TORSDOF 6
ENDMDL
MODEL 9
REMARK VINA RESULT:     -11.1      3.222      5.077
REMARK  Name = 25191001
REMARK  7 active torsions:
REMARK  status: ('A' for Active; 'I' for Inactive)
REMARK    1  A    between atoms: C_1  and  N_9
REMARK    2  A    between atoms: C_2  and  O_24
REMARK    3  A    between atoms: N_8  and  C_14
REMARK    4  A    between atoms: C_15  and  C_23
REMARK    5  A    between atoms: O_24  and  C_26
REMARK    6  A    between atoms: C_28  and  C_33
REMARK    7  A    between atoms: N_32  and  C_35
REMARK                            x       y       z     vdW  Elec       q    Type
REMARK                         _______ _______ _______ _____ _____    ______ ____
ROOT
ATOM      1  C   UNL     1      35.420 -18.475 -21.361  0.00  0.00    +0.052 C 
ATOM      2  C   UNL     1      36.379 -20.628 -19.868  0.00  0.00    +0.145 C 
ATOM      3  C   UNL     1      34.556 -19.505 -20.986  0.00  0.00    +0.018 C 
ATOM      4  C   UNL     1      36.763 -18.523 -20.989  0.00  0.00    +0.018 C 
ATOM      5  C   UNL     1      35.035 -20.581 -20.240  0.00  0.00    +0.039 C 
ATOM      6  C   UNL     1      37.244 -19.599 -20.242  0.00  0.00    +0.039 C 
ENDROOT
BRANCH   1   9
ATOM      7  O   UNL     1      34.749 -15.689 -20.519  0.00  0.00    -0.252 OA
ATOM      8  N   UNL     1      34.170 -15.300 -22.755  0.00  0.00    -0.268 N 
ATOM      9  N   UNL     1      34.933 -17.385 -22.120  0.00  0.00    -0.268 N 
ATOM     10  C   UNL     1      34.632 -16.088 -21.673  0.00  0.00    +0.308 C 
ATOM     11  H   UNL     1      34.128 -15.754 -23.628  0.00  0.00    +0.156 HD
ATOM     12  H   UNL     1      34.788 -17.556 -23.077  0.00  0.00    +0.156 HD
BRANCH   8  14
ATOM     13 CL   UNL     1      32.483  -9.635 -22.765  0.00  0.00    -0.082 Cl
ATOM     14  C   UNL     1      33.767 -13.964 -22.749  0.00  0.00    +0.052 C 
ATOM     15  C   UNL     1      32.607 -12.133 -21.683  0.00  0.00    +0.083 C 
ATOM     16  C   UNL     1      33.009 -13.469 -21.688  0.00  0.00    +0.019 C 
ATOM     17  C   UNL     1      34.124 -13.124 -23.804  0.00  0.00    +0.016 C 
ATOM     18  C   UNL     1      32.963 -11.292 -22.738  0.00  0.00    +0.062 C 
ATOM     19  C   UNL     1      33.721 -11.789 -23.799  0.00  0.00    +0.013 C 
BRANCH  15  23
ATOM     20  F   UNL     1      32.169 -10.405 -20.087  0.00  0.00    -0.166 F 
ATOM     21  F   UNL     1      30.463 -11.535 -20.806  0.00  0.00    -0.166 F 
ATOM     22  F   UNL     1      31.881 -12.462 -19.443  0.00  0.00    -0.166 F 
ATOM     23  C   UNL     1      31.795 -11.641 -20.528  0.00  0.00    +0.419 C 
ENDBRANCH  15  23
ENDBRANCH   8  14
ENDBRANCH   1   9
BRANCH   2  24
ATOM     24  O   UNL     1      36.848 -21.679 -19.141  0.00  0.00    -0.453 OA
BRANCH  24  26
ATOM     25  N   UNL     1      34.906 -22.586 -15.553  0.00  0.00    -0.239 NA
ATOM     26  C   UNL     1      36.204 -21.979 -17.953  0.00  0.00    +0.149 C 
ATOM     27  C   UNL     1      34.852 -22.305 -17.953  0.00  0.00    +0.061 C 
ATOM     28  C   UNL     1      34.255 -22.599 -16.738  0.00  0.00    +0.137 C 
ATOM     29  C   UNL     1      36.907 -21.956 -16.754  0.00  0.00    +0.058 C 
ATOM     30  C   UNL     1      36.218 -22.264 -15.591  0.00  0.00    +0.102 C 
BRANCH  28  33
ATOM     31  O   UNL     1      32.080 -22.641 -17.612  0.00  0.00    -0.269 OA
ATOM     32  N   UNL     1      32.409 -23.649 -15.550  0.00  0.00    -0.313 N 
ATOM     33  C   UNL     1      32.845 -22.946 -16.679  0.00  0.00    +0.263 C 
ATOM     34  H   UNL     1      33.068 -23.858 -14.849  0.00  0.00    +0.149 HD
ATOM     35  C   UNL     1      31.046 -24.086 -15.356  0.00  0.00    +0.128 C 
ENDBRANCH  28  33
ENDBRANCH  24  26
ENDBRANCH   2  24
TORSDOF 6
ENDMDL
