MODEL 1
REMARK VINA RESULT:     -11.5      0.000      0.000
REMARK  Name = 25147644
REMARK  4 active torsions:
REMARK  status: ('A' for Active; 'I' for Inactive)
REMARK    1  A    between atoms: C_3  and  N_11
REMARK    2  A    between atoms: C_4  and  C_23
REMARK    3  A    between atoms: C_12  and  C_15
REMARK    4  A    between atoms: C_23  and  C_25
REMARK                            x       y       z     vdW  Elec       q    Type
REMARK                         _______ _______ _______ _____ _____    ______ ____
ROOT
ATOM      1  N   UNL     1      32.411 -23.936 -13.172  0.00  0.00    +0.390 N 
ATOM      2  C   UNL     1      31.177 -23.842 -15.462  0.00  0.00    +0.012 C 
ATOM      3  C   UNL     1      32.708 -23.900 -15.657  0.00  0.00    +0.053 C 
ATOM      4  C   UNL     1      33.393 -23.742 -14.275  0.00  0.00    -0.035 C 
ATOM      5  C   UNL     1      30.821 -22.628 -14.585  0.00  0.00    -0.021 C 
ATOM      6  C   UNL     1      30.785 -25.103 -14.674  0.00  0.00    -0.021 C 
ATOM      7  C   UNL     1      31.473 -22.786 -13.200  0.00  0.00    -0.077 C 
ATOM      8  C   UNL     1      31.618 -25.170 -13.382  0.00  0.00    -0.077 C 
ATOM      9  H   UNL     1      32.910 -24.006 -12.284  0.00  0.00    -0.080 HD
ENDROOT
BRANCH   3  11
ATOM     10  O   UNL     1      33.731 -24.397 -18.293  0.00  0.00    -0.267 OA
ATOM     11  N   UNL     1      33.177 -22.913 -16.598  0.00  0.00    -0.302 N 
ATOM     12  C   UNL     1      33.657 -23.252 -17.855  0.00  0.00    +0.280 C 
ATOM     13  H   UNL     1      33.157 -21.964 -16.338  0.00  0.00    +0.150 HD
BRANCH  12  15
ATOM     14  O   UNL     1      35.459 -21.849 -18.705  0.00  0.00    -0.449 OA
ATOM     15  C   UNL     1      34.128 -22.121 -18.697  0.00  0.00    +0.198 C 
ATOM     16  C   UNL     1      33.447 -21.249 -19.513  0.00  0.00    +0.045 C 
ATOM     17  C   UNL     1      34.420 -20.376 -20.066  0.00  0.00    +0.038 C 
ATOM     18  C   UNL     1      35.640 -20.786 -19.538  0.00  0.00    +0.146 C 
ATOM     19  C   UNL     1      34.406 -19.285 -20.953  0.00  0.00    +0.003 C 
ATOM     20  C   UNL     1      36.862 -20.183 -19.831  0.00  0.00    +0.037 C 
ATOM     21  C   UNL     1      35.620 -18.658 -21.267  0.00  0.00    +0.000 C 
ATOM     22  C   UNL     1      36.824 -19.101 -20.715  0.00  0.00    +0.003 C 
ENDBRANCH  12  15
ENDBRANCH   3  11
BRANCH   4  23
ATOM     23  C   UNL     1      34.598 -24.676 -14.130  0.00  0.00    +0.009 C 
BRANCH  23  25
ATOM     24  N   UNL     1      37.526 -22.926 -12.498  0.00  0.00    -0.243 NA
ATOM     25  C   UNL     1      35.548 -24.190 -13.072  0.00  0.00    -0.005 C 
ATOM     26  C   UNL     1      35.365 -24.528 -11.736  0.00  0.00    -0.001 C 
ATOM     27  C   UNL     1      36.634 -23.394 -13.399  0.00  0.00    +0.095 C 
ATOM     28  C   UNL     1      36.262 -24.064 -10.779  0.00  0.00    +0.020 C 
ATOM     29  C   UNL     1      37.317 -23.274 -11.207  0.00  0.00    +0.099 C 
ENDBRANCH  23  25
ENDBRANCH   4  23
TORSDOF 4
ENDMDL
MODEL 2
REMARK VINA RESULT:     -10.9      1.654      2.138
REMARK  Name = 25147644
REMARK  4 active torsions:
REMARK  status: ('A' for Active; 'I' for Inactive)
REMARK    1  A    between atoms: C_3  and  N_11
REMARK    2  A    between atoms: C_4  and  C_23
REMARK    3  A    between atoms: C_12  and  C_15
REMARK    4  A    between atoms: C_23  and  C_25
REMARK                            x       y       z     vdW  Elec       q    Type
REMARK                         _______ _______ _______ _____ _____    ______ ____
ROOT
ATOM      1  N   UNL     1      30.656 -23.450 -13.629  0.00  0.00    +0.390 N 
ATOM      2  C   UNL     1      30.536 -23.962 -16.178  0.00  0.00    +0.012 C 
ATOM      3  C   UNL     1      31.998 -23.779 -15.715  0.00  0.00    +0.053 C 
ATOM      4  C   UNL     1      31.998 -23.273 -14.250  0.00  0.00    -0.035 C 
ATOM      5  C   UNL     1      29.728 -22.701 -15.823  0.00  0.00    -0.021 C 
ATOM      6  C   UNL     1      29.955 -25.123 -15.353  0.00  0.00    -0.021 C 
ATOM      7  C   UNL     1      29.725 -22.507 -14.296  0.00  0.00    -0.077 C 
ATOM      8  C   UNL     1      30.147 -24.823 -13.857  0.00  0.00    -0.077 C 
ATOM      9  H   UNL     1      30.723 -23.281 -12.624  0.00  0.00    -0.080 HD
ENDROOT
BRANCH   3  11
ATOM     10  O   UNL     1      33.675 -24.549 -17.915  0.00  0.00    -0.267 OA
ATOM     11  N   UNL     1      32.741 -22.897 -16.582  0.00  0.00    -0.302 N 
ATOM     12  C   UNL     1      33.528 -23.365 -17.623  0.00  0.00    +0.280 C 
ATOM     13  H   UNL     1      32.686 -21.926 -16.427  0.00  0.00    +0.150 HD
BRANCH  12  15
ATOM     14  O   UNL     1      33.534 -21.596 -19.300  0.00  0.00    -0.449 OA
ATOM     15  C   UNL     1      34.250 -22.329 -18.407  0.00  0.00    +0.198 C 
ATOM     16  C   UNL     1      35.570 -21.944 -18.409  0.00  0.00    +0.045 C 
ATOM     17  C   UNL     1      35.682 -20.902 -19.366  0.00  0.00    +0.038 C 
ATOM     18  C   UNL     1      34.404 -20.726 -19.885  0.00  0.00    +0.146 C 
ATOM     19  C   UNL     1      36.721 -20.089 -19.852  0.00  0.00    +0.003 C 
ATOM     20  C   UNL     1      34.079 -19.790 -20.865  0.00  0.00    +0.037 C 
ATOM     21  C   UNL     1      36.426 -19.138 -20.838  0.00  0.00    +0.000 C 
ATOM     22  C   UNL     1      35.128 -18.992 -21.333  0.00  0.00    +0.003 C 
ENDBRANCH  12  15
ENDBRANCH   3  11
BRANCH   4  23
ATOM     23  C   UNL     1      33.098 -23.941 -13.420  0.00  0.00    +0.009 C 
BRANCH  23  25
ATOM     24  N   UNL     1      36.383 -24.866 -15.051  0.00  0.00    -0.243 NA
ATOM     25  C   UNL     1      34.443 -23.803 -14.075  0.00  0.00    -0.005 C 
ATOM     26  C   UNL     1      34.999 -22.551 -14.314  0.00  0.00    -0.001 C 
ATOM     27  C   UNL     1      35.169 -24.920 -14.459  0.00  0.00    +0.095 C 
ATOM     28  C   UNL     1      36.247 -22.455 -14.921  0.00  0.00    +0.020 C 
ATOM     29  C   UNL     1      36.892 -23.631 -15.268  0.00  0.00    +0.099 C 
ENDBRANCH  23  25
ENDBRANCH   4  23
TORSDOF 4
ENDMDL
MODEL 3
REMARK VINA RESULT:     -10.8      1.687      4.528
REMARK  Name = 25147644
REMARK  4 active torsions:
REMARK  status: ('A' for Active; 'I' for Inactive)
REMARK    1  A    between atoms: C_3  and  N_11
REMARK    2  A    between atoms: C_4  and  C_23
REMARK    3  A    between atoms: C_12  and  C_15
REMARK    4  A    between atoms: C_23  and  C_25
REMARK                            x       y       z     vdW  Elec       q    Type
REMARK                         _______ _______ _______ _____ _____    ______ ____
ROOT
ATOM      1  N   UNL     1      35.905 -25.673 -12.970  0.00  0.00    +0.390 N 
ATOM      2  C   UNL     1      37.750 -23.969 -13.655  0.00  0.00    +0.012 C 
ATOM      3  C   UNL     1      36.345 -23.337 -13.754  0.00  0.00    +0.053 C 
ATOM      4  C   UNL     1      35.282 -24.446 -13.541  0.00  0.00    -0.035 C 
ATOM      5  C   UNL     1      37.802 -25.233 -14.532  0.00  0.00    -0.021 C 
ATOM      6  C   UNL     1      37.929 -24.420 -12.196  0.00  0.00    -0.021 C 
ATOM      7  C   UNL     1      36.779 -26.260 -14.015  0.00  0.00    -0.077 C 
ATOM      8  C   UNL     1      36.757 -25.337 -11.805  0.00  0.00    -0.077 C 
ATOM      9  H   UNL     1      35.171 -26.317 -12.673  0.00  0.00    -0.080 HD
ENDROOT
BRANCH   3  11
ATOM     10  O   UNL     1      34.925 -24.313 -16.051  0.00  0.00    -0.267 OA
ATOM     11  N   UNL     1      36.143 -22.642 -15.002  0.00  0.00    -0.302 N 
ATOM     12  C   UNL     1      35.440 -23.198 -16.059  0.00  0.00    +0.280 C 
ATOM     13  H   UNL     1      36.520 -21.738 -15.105  0.00  0.00    +0.150 HD
BRANCH  12  15
ATOM     14  O   UNL     1      34.110 -22.155 -17.814  0.00  0.00    -0.449 OA
ATOM     15  C   UNL     1      35.344 -22.364 -17.286  0.00  0.00    +0.198 C 
ATOM     16  C   UNL     1      36.308 -21.728 -18.032  0.00  0.00    +0.045 C 
ATOM     17  C   UNL     1      35.628 -21.080 -19.096  0.00  0.00    +0.038 C 
ATOM     18  C   UNL     1      34.280 -21.372 -18.917  0.00  0.00    +0.146 C 
ATOM     19  C   UNL     1      36.001 -20.279 -20.189  0.00  0.00    +0.003 C 
ATOM     20  C   UNL     1      33.264 -20.921 -19.757  0.00  0.00    +0.037 C 
ATOM     21  C   UNL     1      35.001 -19.810 -21.052  0.00  0.00    +0.000 C 
ATOM     22  C   UNL     1      33.658 -20.126 -20.837  0.00  0.00    +0.003 C 
ENDBRANCH  12  15
ENDBRANCH   3  11
BRANCH   4  23
ATOM     23  C   UNL     1      34.113 -23.953 -12.684  0.00  0.00    +0.009 C 
BRANCH  23  25
ATOM     24  N   UNL     1      30.839 -25.307 -14.009  0.00  0.00    -0.243 NA
ATOM     25  C   UNL     1      32.811 -24.034 -13.430  0.00  0.00    -0.005 C 
ATOM     26  C   UNL     1      32.365 -22.972 -14.209  0.00  0.00    -0.001 C 
ATOM     27  C   UNL     1      32.018 -25.169 -13.363  0.00  0.00    +0.095 C 
ATOM     28  C   UNL     1      31.156 -23.077 -14.889  0.00  0.00    +0.020 C 
ATOM     29  C   UNL     1      30.437 -24.254 -14.758  0.00  0.00    +0.099 C 
ENDBRANCH  23  25
ENDBRANCH   4  23
TORSDOF 4
ENDMDL
MODEL 4
REMARK VINA RESULT:      -9.2     10.881     14.718
REMARK  Name = 25147644
REMARK  4 active torsions:
REMARK  status: ('A' for Active; 'I' for Inactive)
REMARK    1  A    between atoms: C_3  and  N_11
REMARK    2  A    between atoms: C_4  and  C_23
REMARK    3  A    between atoms: C_12  and  C_15
REMARK    4  A    between atoms: C_23  and  C_25
REMARK                            x       y       z     vdW  Elec       q    Type
REMARK                         _______ _______ _______ _____ _____    ______ ____
ROOT
ATOM      1  N   UNL     1      33.656  -6.918 -22.142  0.00  0.00    +0.390 N 
ATOM      2  C   UNL     1      34.020  -8.075 -24.445  0.00  0.00    +0.012 C 
ATOM      3  C   UNL     1      33.142  -8.945 -23.518  0.00  0.00    +0.053 C 
ATOM      4  C   UNL     1      33.134  -8.313 -22.102  0.00  0.00    -0.035 C 
ATOM      5  C   UNL     1      35.361  -7.782 -23.749  0.00  0.00    -0.021 C 
ATOM      6  C   UNL     1      33.289  -6.732 -24.611  0.00  0.00    -0.021 C 
ATOM      7  C   UNL     1      35.104  -6.990 -22.454  0.00  0.00    -0.077 C 
ATOM      8  C   UNL     1      33.000  -6.141 -23.220  0.00  0.00    -0.077 C 
ATOM      9  H   UNL     1      33.475  -6.465 -21.246  0.00  0.00    -0.080 HD
ENDROOT
BRANCH   3  11
ATOM     10  O   UNL     1      31.487 -11.258 -23.131  0.00  0.00    -0.267 OA
ATOM     11  N   UNL     1      33.578 -10.319 -23.483  0.00  0.00    -0.302 N 
ATOM     12  C   UNL     1      32.699 -11.375 -23.289  0.00  0.00    +0.280 C 
ATOM     13  H   UNL     1      34.536 -10.515 -23.601  0.00  0.00    +0.150 HD
BRANCH  12  15
ATOM     14  O   UNL     1      33.119 -13.539 -24.327  0.00  0.00    -0.449 OA
ATOM     15  C   UNL     1      33.309 -12.730 -23.253  0.00  0.00    +0.198 C 
ATOM     16  C   UNL     1      34.069 -13.360 -22.296  0.00  0.00    +0.045 C 
ATOM     17  C   UNL     1      34.372 -14.648 -22.809  0.00  0.00    +0.038 C 
ATOM     18  C   UNL     1      33.765 -14.709 -24.060  0.00  0.00    +0.146 C 
ATOM     19  C   UNL     1      35.089 -15.769 -22.357  0.00  0.00    +0.003 C 
ATOM     20  C   UNL     1      33.821 -15.816 -24.904  0.00  0.00    +0.037 C 
ATOM     21  C   UNL     1      35.163 -16.899 -23.184  0.00  0.00    +0.000 C 
ATOM     22  C   UNL     1      34.540 -16.919 -24.434  0.00  0.00    +0.003 C 
ENDBRANCH  12  15
ENDBRANCH   3  11
BRANCH   4  23
ATOM     23  C   UNL     1      31.745  -8.379 -21.461  0.00  0.00    +0.009 C 
BRANCH  23  25
ATOM     24  N   UNL     1      31.809  -9.147 -17.758  0.00  0.00    -0.243 NA
ATOM     25  C   UNL     1      31.768  -9.156 -20.175  0.00  0.00    -0.005 C 
ATOM     26  C   UNL     1      31.775 -10.546 -20.179  0.00  0.00    -0.001 C 
ATOM     27  C   UNL     1      31.785  -8.509 -18.950  0.00  0.00    +0.095 C 
ATOM     28  C   UNL     1      31.799 -11.239 -18.972  0.00  0.00    +0.020 C 
ATOM     29  C   UNL     1      31.814 -10.499 -17.800  0.00  0.00    +0.099 C 
ENDBRANCH  23  25
ENDBRANCH   4  23
TORSDOF 4
ENDMDL
