MODEL 1
REMARK VINA RESULT:     -11.2      0.000      0.000
REMARK  Name = 448942
REMARK  8 active torsions:
REMARK  status: ('A' for Active; 'I' for Inactive)
REMARK    1  A    between atoms: C_2  and  C_20
REMARK    2  A    between atoms: C_3  and  C_6
REMARK    3  A    between atoms: C_7  and  C_13
REMARK    4  A    between atoms: N_19  and  C_22
REMARK    5  A    between atoms: C_22  and  C_23
REMARK    6  A    between atoms: C_22  and  C_29
REMARK    7  A    between atoms: C_29  and  C_31
REMARK    8  A    between atoms: C_31  and  O_32
REMARK                            x       y       z     vdW  Elec       q    Type
REMARK                         _______ _______ _______ _____ _____    ______ ____
ROOT
ATOM      1  S   UNL     1      37.197 -22.504 -16.115  0.00  0.00    -0.082 S 
ATOM      2  C   UNL     1      35.526 -22.753 -16.218  0.00  0.00    +0.083 C 
ATOM      3  C   UNL     1      35.883 -21.429 -18.044  0.00  0.00    +0.007 C 
ATOM      4  C   UNL     1      34.928 -22.146 -17.266  0.00  0.00    +0.012 C 
ATOM      5  C   UNL     1      37.156 -21.539 -17.529  0.00  0.00    +0.036 C 
ENDROOT
BRANCH   3   6
ATOM      6  C   UNL     1      35.632 -20.659 -19.232  0.00  0.00    +0.001 C 
ATOM      7  C   UNL     1      35.143 -19.167 -21.536  0.00  0.00    +0.000 C 
ATOM      8  C   UNL     1      36.654 -19.900 -19.798  0.00  0.00    +0.000 C 
ATOM      9  C   UNL     1      34.365 -20.675 -19.815  0.00  0.00    +0.000 C 
ATOM     10  C   UNL     1      36.410 -19.152 -20.951  0.00  0.00    +0.000 C 
ATOM     11  C   UNL     1      34.121 -19.927 -20.968  0.00  0.00    +0.000 C 
BRANCH   7  13
ATOM     12  N   UNL     1      34.397 -16.890 -25.035  0.00  0.00    -0.242 NA
ATOM     13  C   UNL     1      34.889 -18.391 -22.729  0.00  0.00    +0.003 C 
ATOM     14  C   UNL     1      35.310 -17.068 -22.804  0.00  0.00    +0.021 C 
ATOM     15  C   UNL     1      34.223 -18.964 -23.807  0.00  0.00    +0.021 C 
ATOM     16  C   UNL     1      35.042 -16.366 -23.968  0.00  0.00    +0.099 C 
ATOM     17  C   UNL     1      34.003 -18.178 -24.926  0.00  0.00    +0.099 C 
ENDBRANCH   7  13
ENDBRANCH   3   6
BRANCH   2  20
ATOM     18  O   UNL     1      34.988 -24.813 -15.180  0.00  0.00    -0.270 OA
ATOM     19  N   UNL     1      34.147 -22.898 -14.232  0.00  0.00    -0.298 N 
ATOM     20  C   UNL     1      34.891 -23.585 -15.187  0.00  0.00    +0.252 C 
ATOM     21  H   UNL     1      34.100 -21.915 -14.280  0.00  0.00    +0.150 HD
BRANCH  19  22
ATOM     22  C   UNL     1      33.438 -23.581 -13.172  0.00  0.00    +0.105 C 
BRANCH  22  23
ATOM     23  C   UNL     1      32.039 -23.945 -13.629  0.00  0.00    -0.004 C 
ATOM     24  C   UNL     1      31.253 -22.974 -14.222  0.00  0.00    -0.003 C 
ATOM     25  C   UNL     1      31.584 -25.236 -13.442  0.00  0.00    -0.003 C 
ATOM     26  C   UNL     1      29.965 -23.308 -14.643  0.00  0.00    -0.000 C 
ATOM     27  C   UNL     1      30.297 -25.570 -13.862  0.00  0.00    -0.000 C 
ATOM     28  C   UNL     1      29.487 -24.606 -14.462  0.00  0.00    -0.000 C 
ENDBRANCH  22  23
BRANCH  22  29
ATOM     29  C   UNL     1      34.257 -24.786 -12.676  0.00  0.00    +0.133 C 
BRANCH  29  31
ATOM     30  O   UNL     1      35.261 -25.140 -10.482  0.00  0.00    -0.250 OA
ATOM     31  C   UNL     1      35.146 -24.462 -11.494  0.00  0.00    +0.316 C 
BRANCH  31  32
ATOM     32  O   UNL     1      35.803 -23.286 -11.674  0.00  0.00    -0.480 OA
ATOM     33  H   UNL     1      35.561 -22.718 -12.378  0.00  0.00    +0.295 HD
ENDBRANCH  31  32
ENDBRANCH  29  31
ENDBRANCH  22  29
ENDBRANCH  19  22
ENDBRANCH   2  20
TORSDOF 8
ENDMDL
MODEL 2
REMARK VINA RESULT:     -10.7      7.467     11.365
REMARK  Name = 448942
REMARK  8 active torsions:
REMARK  status: ('A' for Active; 'I' for Inactive)
REMARK    1  A    between atoms: C_2  and  C_20
REMARK    2  A    between atoms: C_3  and  C_6
REMARK    3  A    between atoms: C_7  and  C_13
REMARK    4  A    between atoms: N_19  and  C_22
REMARK    5  A    between atoms: C_22  and  C_23
REMARK    6  A    between atoms: C_22  and  C_29
REMARK    7  A    between atoms: C_29  and  C_31
REMARK    8  A    between atoms: C_31  and  O_32
REMARK                            x       y       z     vdW  Elec       q    Type
REMARK                         _______ _______ _______ _____ _____    ______ ____
ROOT
ATOM      1  S   UNL     1      33.372 -14.813 -20.523  0.00  0.00    -0.082 S 
ATOM      2  C   UNL     1      34.139 -14.610 -22.019  0.00  0.00    +0.083 C 
ATOM      3  C   UNL     1      33.092 -12.594 -21.788  0.00  0.00    +0.007 C 
ATOM      4  C   UNL     1      33.930 -13.410 -22.603  0.00  0.00    +0.012 C 
ATOM      5  C   UNL     1      32.716 -13.235 -20.629  0.00  0.00    +0.036 C 
ENDROOT
BRANCH   3   6
ATOM      6  C   UNL     1      32.647 -11.256 -22.070  0.00  0.00    +0.001 C 
ATOM      7  C   UNL     1      31.783  -8.662 -22.614  0.00  0.00    +0.000 C 
ATOM      8  C   UNL     1      32.851 -10.706 -23.334  0.00  0.00    +0.000 C 
ATOM      9  C   UNL     1      32.011 -10.512 -21.077  0.00  0.00    +0.000 C 
ATOM     10  C   UNL     1      32.420  -9.408 -23.607  0.00  0.00    +0.000 C 
ATOM     11  C   UNL     1      31.580  -9.213 -21.350  0.00  0.00    +0.000 C 
BRANCH   7  13
ATOM     12  N   UNL     1      30.477  -4.712 -23.443  0.00  0.00    -0.242 NA
ATOM     13  C   UNL     1      31.337  -7.315 -22.897  0.00  0.00    +0.003 C 
ATOM     14  C   UNL     1      31.278  -6.861 -24.209  0.00  0.00    +0.021 C 
ATOM     15  C   UNL     1      30.967  -6.469 -21.857  0.00  0.00    +0.021 C 
ATOM     16  C   UNL     1      30.845  -5.563 -24.428  0.00  0.00    +0.099 C 
ATOM     17  C   UNL     1      30.548  -5.189 -22.180  0.00  0.00    +0.099 C 
ENDBRANCH   7  13
ENDBRANCH   3   6
BRANCH   2  20
ATOM     18  O   UNL     1      35.931 -15.551 -23.250  0.00  0.00    -0.270 OA
ATOM     19  N   UNL     1      34.500 -16.999 -22.186  0.00  0.00    -0.298 N 
ATOM     20  C   UNL     1      34.943 -15.726 -22.534  0.00  0.00    +0.252 C 
ATOM     21  H   UNL     1      33.706 -17.087 -21.612  0.00  0.00    +0.150 HD
BRANCH  19  22
ATOM     22  C   UNL     1      35.170 -18.198 -22.644  0.00  0.00    +0.105 C 
BRANCH  22  23
ATOM     23  C   UNL     1      35.543 -19.070 -21.461  0.00  0.00    -0.004 C 
ATOM     24  C   UNL     1      36.815 -18.970 -20.928  0.00  0.00    -0.003 C 
ATOM     25  C   UNL     1      34.604 -19.944 -20.946  0.00  0.00    -0.003 C 
ATOM     26  C   UNL     1      37.159 -19.773 -19.840  0.00  0.00    -0.000 C 
ATOM     27  C   UNL     1      34.948 -20.747 -19.859  0.00  0.00    -0.000 C 
ATOM     28  C   UNL     1      36.226 -20.662 -19.307  0.00  0.00    -0.000 C 
ENDBRANCH  22  23
BRANCH  22  29
ATOM     29  C   UNL     1      34.309 -18.920 -23.695  0.00  0.00    +0.133 C 
BRANCH  29  31
ATOM     30  O   UNL     1      32.640 -18.056 -25.249  0.00  0.00    -0.250 OA
ATOM     31  C   UNL     1      33.759 -17.994 -24.759  0.00  0.00    +0.316 C 
BRANCH  31  32
ATOM     32  O   UNL     1      34.683 -17.072 -25.141  0.00  0.00    -0.480 OA
ATOM     33  H   UNL     1      34.522 -16.161 -24.998  0.00  0.00    +0.295 HD
ENDBRANCH  31  32
ENDBRANCH  29  31
ENDBRANCH  22  29
ENDBRANCH  19  22
ENDBRANCH   2  20
TORSDOF 8
ENDMDL
MODEL 3
REMARK VINA RESULT:     -10.1      2.767      4.564
REMARK  Name = 448942
REMARK  8 active torsions:
REMARK  status: ('A' for Active; 'I' for Inactive)
REMARK    1  A    between atoms: C_2  and  C_20
REMARK    2  A    between atoms: C_3  and  C_6
REMARK    3  A    between atoms: C_7  and  C_13
REMARK    4  A    between atoms: N_19  and  C_22
REMARK    5  A    between atoms: C_22  and  C_23
REMARK    6  A    between atoms: C_22  and  C_29
REMARK    7  A    between atoms: C_29  and  C_31
REMARK    8  A    between atoms: C_31  and  O_32
REMARK                            x       y       z     vdW  Elec       q    Type
REMARK                         _______ _______ _______ _____ _____    ______ ____
ROOT
ATOM      1  S   UNL     1      36.986 -21.318 -19.500  0.00  0.00    -0.082 S 
ATOM      2  C   UNL     1      35.307 -21.375 -19.294  0.00  0.00    +0.083 C 
ATOM      3  C   UNL     1      35.528 -19.486 -20.558  0.00  0.00    +0.007 C 
ATOM      4  C   UNL     1      34.631 -20.368 -19.888  0.00  0.00    +0.012 C 
ATOM      5  C   UNL     1      36.839 -19.885 -20.426  0.00  0.00    +0.036 C 
ENDROOT
BRANCH   3   6
ATOM      6  C   UNL     1      35.188 -18.303 -21.302  0.00  0.00    +0.001 C 
ATOM      7  C   UNL     1      34.528 -16.011 -22.744  0.00  0.00    +0.000 C 
ATOM      8  C   UNL     1      35.114 -17.072 -20.654  0.00  0.00    +0.000 C 
ATOM      9  C   UNL     1      34.933 -18.391 -22.670  0.00  0.00    +0.000 C 
ATOM     10  C   UNL     1      34.783 -15.924 -21.375  0.00  0.00    +0.000 C 
ATOM     11  C   UNL     1      34.602 -17.244 -23.391  0.00  0.00    +0.000 C 
BRANCH   7  13
ATOM     12  N   UNL     1      33.516 -12.522 -24.935  0.00  0.00    -0.242 NA
ATOM     13  C   UNL     1      34.184 -14.822 -23.492  0.00  0.00    +0.003 C 
ATOM     14  C   UNL     1      34.386 -13.564 -22.934  0.00  0.00    +0.021 C 
ATOM     15  C   UNL     1      33.648 -14.930 -24.771  0.00  0.00    +0.021 C 
ATOM     16  C   UNL     1      34.039 -12.456 -23.689  0.00  0.00    +0.099 C 
ATOM     17  C   UNL     1      33.334 -13.761 -25.444  0.00  0.00    +0.099 C 
ENDBRANCH   7  13
ENDBRANCH   3   6
BRANCH   2  20
ATOM     18  O   UNL     1      34.118 -23.406 -19.029  0.00  0.00    -0.270 OA
ATOM     19  N   UNL     1      34.953 -22.413 -17.134  0.00  0.00    -0.298 N 
ATOM     20  C   UNL     1      34.749 -22.484 -18.509  0.00  0.00    +0.252 C 
ATOM     21  H   UNL     1      35.463 -21.655 -16.767  0.00  0.00    +0.150 HD
BRANCH  19  22
ATOM     22  C   UNL     1      34.436 -23.415 -16.227  0.00  0.00    +0.105 C 
BRANCH  22  23
ATOM     23  C   UNL     1      35.542 -23.916 -15.319  0.00  0.00    -0.004 C 
ATOM     24  C   UNL     1      36.753 -23.249 -15.304  0.00  0.00    -0.003 C 
ATOM     25  C   UNL     1      35.313 -25.026 -14.529  0.00  0.00    -0.003 C 
ATOM     26  C   UNL     1      37.771 -23.709 -14.469  0.00  0.00    -0.000 C 
ATOM     27  C   UNL     1      36.330 -25.487 -13.694  0.00  0.00    -0.000 C 
ATOM     28  C   UNL     1      37.560 -24.829 -13.665  0.00  0.00    -0.000 C 
ENDBRANCH  22  23
BRANCH  22  29
ATOM     29  C   UNL     1      33.216 -22.867 -15.468  0.00  0.00    +0.133 C 
BRANCH  29  31
ATOM     30  O   UNL     1      31.070 -24.002 -15.702  0.00  0.00    -0.250 OA
ATOM     31  C   UNL     1      31.896 -23.206 -16.128  0.00  0.00    +0.316 C 
BRANCH  31  32
ATOM     32  O   UNL     1      31.734 -22.527 -17.294  0.00  0.00    -0.480 OA
ATOM     33  H   UNL     1      31.958 -22.934 -18.107  0.00  0.00    +0.295 HD
ENDBRANCH  31  32
ENDBRANCH  29  31
ENDBRANCH  22  29
ENDBRANCH  19  22
ENDBRANCH   2  20
TORSDOF 8
ENDMDL
MODEL 4
REMARK VINA RESULT:      -9.8      1.460      3.355
REMARK  Name = 448942
REMARK  8 active torsions:
REMARK  status: ('A' for Active; 'I' for Inactive)
REMARK    1  A    between atoms: C_2  and  C_20
REMARK    2  A    between atoms: C_3  and  C_6
REMARK    3  A    between atoms: C_7  and  C_13
REMARK    4  A    between atoms: N_19  and  C_22
REMARK    5  A    between atoms: C_22  and  C_23
REMARK    6  A    between atoms: C_22  and  C_29
REMARK    7  A    between atoms: C_29  and  C_31
REMARK    8  A    between atoms: C_31  and  O_32
REMARK                            x       y       z     vdW  Elec       q    Type
REMARK                         _______ _______ _______ _____ _____    ______ ____
ROOT
ATOM      1  S   UNL     1      37.635 -22.074 -16.127  0.00  0.00    -0.082 S 
ATOM      2  C   UNL     1      36.063 -22.668 -16.330  0.00  0.00    +0.083 C 
ATOM      3  C   UNL     1      36.225 -21.245 -18.109  0.00  0.00    +0.007 C 
ATOM      4  C   UNL     1      35.405 -22.171 -17.400  0.00  0.00    +0.012 C 
ATOM      5  C   UNL     1      37.462 -21.097 -17.524  0.00  0.00    +0.036 C 
ENDROOT
BRANCH   3   6
ATOM      6  C   UNL     1      35.877 -20.510 -19.296  0.00  0.00    +0.001 C 
ATOM      7  C   UNL     1      35.202 -19.087 -21.596  0.00  0.00    +0.000 C 
ATOM      8  C   UNL     1      36.802 -19.642 -19.872  0.00  0.00    +0.000 C 
ATOM      9  C   UNL     1      34.615 -20.669 -19.867  0.00  0.00    +0.000 C 
ATOM     10  C   UNL     1      36.465 -18.929 -21.023  0.00  0.00    +0.000 C 
ATOM     11  C   UNL     1      34.278 -19.957 -21.017  0.00  0.00    +0.000 C 
BRANCH   7  13
ATOM     12  N   UNL     1      34.177 -16.919 -25.094  0.00  0.00    -0.242 NA
ATOM     13  C   UNL     1      34.852 -18.347 -22.788  0.00  0.00    +0.003 C 
ATOM     14  C   UNL     1      34.136 -18.965 -23.807  0.00  0.00    +0.021 C 
ATOM     15  C   UNL     1      35.231 -17.016 -22.921  0.00  0.00    +0.021 C 
ATOM     16  C   UNL     1      33.825 -18.214 -24.929  0.00  0.00    +0.099 C 
ATOM     17  C   UNL     1      34.872 -16.352 -24.082  0.00  0.00    +0.099 C 
ENDBRANCH   7  13
ENDBRANCH   3   6
BRANCH   2  20
ATOM     18  O   UNL     1      35.777 -24.855 -15.466  0.00  0.00    -0.270 OA
ATOM     19  N   UNL     1      34.817 -23.122 -14.303  0.00  0.00    -0.298 N 
ATOM     20  C   UNL     1      35.567 -23.646 -15.353  0.00  0.00    +0.252 C 
ATOM     21  H   UNL     1      34.677 -22.148 -14.257  0.00  0.00    +0.150 HD
BRANCH  19  22
ATOM     22  C   UNL     1      34.236 -23.963 -13.279  0.00  0.00    +0.105 C 
BRANCH  22  23
ATOM     23  C   UNL     1      35.116 -23.965 -12.044  0.00  0.00    -0.004 C 
ATOM     24  C   UNL     1      34.744 -24.732 -10.956  0.00  0.00    -0.003 C 
ATOM     25  C   UNL     1      36.268 -23.200 -12.037  0.00  0.00    -0.003 C 
ATOM     26  C   UNL     1      35.553 -24.734  -9.819  0.00  0.00    -0.000 C 
ATOM     27  C   UNL     1      37.076 -23.202 -10.902  0.00  0.00    -0.000 C 
ATOM     28  C   UNL     1      36.719 -23.968  -9.792  0.00  0.00    -0.000 C 
ENDBRANCH  22  23
BRANCH  22  29
ATOM     29  C   UNL     1      32.785 -23.535 -13.000  0.00  0.00    +0.133 C 
BRANCH  29  31
ATOM     30  O   UNL     1      30.677 -24.679 -12.557  0.00  0.00    -0.250 OA
ATOM     31  C   UNL     1      31.802 -24.686 -13.037  0.00  0.00    +0.316 C 
BRANCH  31  32
ATOM     32  O   UNL     1      32.333 -25.773 -13.658  0.00  0.00    -0.480 OA
ATOM     33  H   UNL     1      33.239 -25.781 -13.895  0.00  0.00    +0.295 HD
ENDBRANCH  31  32
ENDBRANCH  29  31
ENDBRANCH  22  29
ENDBRANCH  19  22
ENDBRANCH   2  20
TORSDOF 8
ENDMDL
MODEL 5
REMARK VINA RESULT:      -9.8     10.040     16.309
REMARK  Name = 448942
REMARK  8 active torsions:
REMARK  status: ('A' for Active; 'I' for Inactive)
REMARK    1  A    between atoms: C_2  and  C_20
REMARK    2  A    between atoms: C_3  and  C_6
REMARK    3  A    between atoms: C_7  and  C_13
REMARK    4  A    between atoms: N_19  and  C_22
REMARK    5  A    between atoms: C_22  and  C_23
REMARK    6  A    between atoms: C_22  and  C_29
REMARK    7  A    between atoms: C_29  and  C_31
REMARK    8  A    between atoms: C_31  and  O_32
REMARK                            x       y       z     vdW  Elec       q    Type
REMARK                         _______ _______ _______ _____ _____    ______ ____
ROOT
ATOM      1  S   UNL     1      32.101  -9.227 -22.852  0.00  0.00    -0.082 S 
ATOM      2  C   UNL     1      33.716  -9.124 -23.349  0.00  0.00    +0.083 C 
ATOM      3  C   UNL     1      33.454 -11.386 -23.182  0.00  0.00    +0.007 C 
ATOM      4  C   UNL     1      34.339 -10.314 -23.493  0.00  0.00    +0.012 C 
ATOM      5  C   UNL     1      32.205 -10.936 -22.817  0.00  0.00    +0.036 C 
ENDROOT
BRANCH   3   6
ATOM      6  C   UNL     1      33.750 -12.793 -23.218  0.00  0.00    +0.001 C 
ATOM      7  C   UNL     1      34.324 -15.521 -23.285  0.00  0.00    +0.000 C 
ATOM      8  C   UNL     1      33.430 -13.543 -24.347  0.00  0.00    +0.000 C 
ATOM      9  C   UNL     1      34.357 -13.404 -22.120  0.00  0.00    +0.000 C 
ATOM     10  C   UNL     1      33.716 -14.908 -24.382  0.00  0.00    +0.000 C 
ATOM     11  C   UNL     1      34.643 -14.769 -22.155  0.00  0.00    +0.000 C 
BRANCH   7  13
ATOM     12  N   UNL     1      35.188 -19.672 -23.386  0.00  0.00    -0.242 NA
ATOM     13  C   UNL     1      34.619 -16.936 -23.320  0.00  0.00    +0.003 C 
ATOM     14  C   UNL     1      34.111 -17.729 -24.342  0.00  0.00    +0.021 C 
ATOM     15  C   UNL     1      35.411 -17.509 -22.330  0.00  0.00    +0.021 C 
ATOM     16  C   UNL     1      34.422 -19.080 -24.331  0.00  0.00    +0.099 C 
ATOM     17  C   UNL     1      35.663 -18.869 -22.408  0.00  0.00    +0.099 C 
ENDBRANCH   7  13
ENDBRANCH   3   6
BRANCH   2  20
ATOM     18  O   UNL     1      35.369  -7.444 -23.108  0.00  0.00    -0.270 OA
ATOM     19  N   UNL     1      33.492  -6.918 -24.322  0.00  0.00    -0.298 N 
ATOM     20  C   UNL     1      34.280  -7.787 -23.573  0.00  0.00    +0.252 C 
ATOM     21  H   UNL     1      32.630  -7.238 -24.673  0.00  0.00    +0.150 HD
BRANCH  19  22
ATOM     22  C   UNL     1      33.899  -5.558 -24.602  0.00  0.00    +0.105 C 
BRANCH  22  23
ATOM     23  C   UNL     1      34.497  -5.467 -25.993  0.00  0.00    -0.004 C 
ATOM     24  C   UNL     1      33.691  -5.719 -27.087  0.00  0.00    -0.003 C 
ATOM     25  C   UNL     1      35.831  -5.135 -26.132  0.00  0.00    -0.003 C 
ATOM     26  C   UNL     1      34.240  -5.636 -28.367  0.00  0.00    -0.000 C 
ATOM     27  C   UNL     1      36.380  -5.052 -27.411  0.00  0.00    -0.000 C 
ATOM     28  C   UNL     1      35.585  -5.304 -28.529  0.00  0.00    -0.000 C 
ENDBRANCH  22  23
BRANCH  22  29
ATOM     29  C   UNL     1      32.723  -4.593 -24.372  0.00  0.00    +0.133 C 
BRANCH  29  31
ATOM     30  O   UNL     1      31.475  -5.366 -22.425  0.00  0.00    -0.250 OA
ATOM     31  C   UNL     1      31.561  -5.227 -23.637  0.00  0.00    +0.316 C 
BRANCH  31  32
ATOM     32  O   UNL     1      30.605  -5.661 -24.501  0.00  0.00    -0.480 OA
ATOM     33  H   UNL     1      30.791  -5.715 -25.417  0.00  0.00    +0.295 HD
ENDBRANCH  31  32
ENDBRANCH  29  31
ENDBRANCH  22  29
ENDBRANCH  19  22
ENDBRANCH   2  20
TORSDOF 8
ENDMDL
MODEL 6
REMARK VINA RESULT:      -9.7      3.027      3.917
REMARK  Name = 448942
REMARK  8 active torsions:
REMARK  status: ('A' for Active; 'I' for Inactive)
REMARK    1  A    between atoms: C_2  and  C_20
REMARK    2  A    between atoms: C_3  and  C_6
REMARK    3  A    between atoms: C_7  and  C_13
REMARK    4  A    between atoms: N_19  and  C_22
REMARK    5  A    between atoms: C_22  and  C_23
REMARK    6  A    between atoms: C_22  and  C_29
REMARK    7  A    between atoms: C_29  and  C_31
REMARK    8  A    between atoms: C_31  and  O_32
REMARK                            x       y       z     vdW  Elec       q    Type
REMARK                         _______ _______ _______ _____ _____    ______ ____
ROOT
ATOM      1  S   UNL     1      37.898 -21.403 -15.908  0.00  0.00    -0.082 S 
ATOM      2  C   UNL     1      36.641 -22.460 -16.319  0.00  0.00    +0.083 C 
ATOM      3  C   UNL     1      36.537 -20.968 -18.044  0.00  0.00    +0.007 C 
ATOM      4  C   UNL     1      35.987 -22.146 -17.458  0.00  0.00    +0.012 C 
ATOM      5  C   UNL     1      37.581 -20.461 -17.303  0.00  0.00    +0.036 C 
ENDROOT
BRANCH   3   6
ATOM      6  C   UNL     1      36.110 -20.323 -19.257  0.00  0.00    +0.001 C 
ATOM      7  C   UNL     1      35.286 -19.072 -21.608  0.00  0.00    +0.000 C 
ATOM      8  C   UNL     1      34.831 -20.556 -19.756  0.00  0.00    +0.000 C 
ATOM      9  C   UNL     1      36.980 -19.465 -19.930  0.00  0.00    +0.000 C 
ATOM     10  C   UNL     1      34.418 -19.931 -20.933  0.00  0.00    +0.000 C 
ATOM     11  C   UNL     1      36.567 -18.840 -21.106  0.00  0.00    +0.000 C 
BRANCH   7  13
ATOM     12  N   UNL     1      34.034 -17.175 -25.189  0.00  0.00    -0.242 NA
ATOM     13  C   UNL     1      34.859 -18.425 -22.828  0.00  0.00    +0.003 C 
ATOM     14  C   UNL     1      34.115 -19.129 -23.767  0.00  0.00    +0.021 C 
ATOM     15  C   UNL     1      35.191 -17.096 -23.068  0.00  0.00    +0.021 C 
ATOM     16  C   UNL     1      33.730 -18.466 -24.921  0.00  0.00    +0.099 C 
ATOM     17  C   UNL     1      34.759 -16.523 -24.253  0.00  0.00    +0.099 C 
ENDBRANCH   7  13
ENDBRANCH   3   6
BRANCH   2  20
ATOM     18  O   UNL     1      35.282 -24.152 -15.368  0.00  0.00    -0.270 OA
ATOM     19  N   UNL     1      37.449 -23.989 -14.622  0.00  0.00    -0.298 N 
ATOM     20  C   UNL     1      36.381 -23.597 -15.425  0.00  0.00    +0.252 C 
ATOM     21  H   UNL     1      38.307 -23.513 -14.705  0.00  0.00    +0.150 HD
BRANCH  19  22
ATOM     22  C   UNL     1      37.337 -25.071 -13.669  0.00  0.00    +0.105 C 
BRANCH  22  23
ATOM     23  C   UNL     1      36.909 -24.534 -12.317  0.00  0.00    -0.004 C 
ATOM     24  C   UNL     1      36.052 -25.287 -11.535  0.00  0.00    -0.003 C 
ATOM     25  C   UNL     1      37.387 -23.306 -11.899  0.00  0.00    -0.003 C 
ATOM     26  C   UNL     1      35.659 -24.793 -10.291  0.00  0.00    -0.000 C 
ATOM     27  C   UNL     1      36.993 -22.812 -10.656  0.00  0.00    -0.000 C 
ATOM     28  C   UNL     1      36.128 -23.556  -9.852  0.00  0.00    -0.000 C 
ENDBRANCH  22  23
BRANCH  22  29
ATOM     29  C   UNL     1      36.408 -26.169 -14.217  0.00  0.00    +0.133 C 
BRANCH  29  31
ATOM     30  O   UNL     1      36.751 -27.662 -16.115  0.00  0.00    -0.250 OA
ATOM     31  C   UNL     1      37.132 -27.210 -15.044  0.00  0.00    +0.316 C 
BRANCH  31  32
ATOM     32  O   UNL     1      38.276 -27.621 -14.434  0.00  0.00    -0.480 OA
ATOM     33  H   UNL     1      38.263 -28.369 -13.871  0.00  0.00    +0.295 HD
ENDBRANCH  31  32
ENDBRANCH  29  31
ENDBRANCH  22  29
ENDBRANCH  19  22
ENDBRANCH   2  20
TORSDOF 8
ENDMDL
MODEL 7
REMARK VINA RESULT:      -9.4      8.757     14.176
REMARK  Name = 448942
REMARK  8 active torsions:
REMARK  status: ('A' for Active; 'I' for Inactive)
REMARK    1  A    between atoms: C_2  and  C_20
REMARK    2  A    between atoms: C_3  and  C_6
REMARK    3  A    between atoms: C_7  and  C_13
REMARK    4  A    between atoms: N_19  and  C_22
REMARK    5  A    between atoms: C_22  and  C_23
REMARK    6  A    between atoms: C_22  and  C_29
REMARK    7  A    between atoms: C_29  and  C_31
REMARK    8  A    between atoms: C_31  and  O_32
REMARK                            x       y       z     vdW  Elec       q    Type
REMARK                         _______ _______ _______ _____ _____    ______ ____
ROOT
ATOM      1  S   UNL     1      33.262 -11.378 -24.552  0.00  0.00    -0.082 S 
ATOM      2  C   UNL     1      33.002 -11.119 -22.899  0.00  0.00    +0.083 C 
ATOM      3  C   UNL     1      33.807 -13.256 -22.885  0.00  0.00    +0.007 C 
ATOM      4  C   UNL     1      33.319 -12.166 -22.107  0.00  0.00    +0.012 C 
ATOM      5  C   UNL     1      33.827 -12.962 -24.230  0.00  0.00    +0.036 C 
ENDROOT
BRANCH   3   6
ATOM      6  C   UNL     1      34.243 -14.539 -22.403  0.00  0.00    +0.001 C 
ATOM      7  C   UNL     1      35.088 -17.025 -21.467  0.00  0.00    +0.000 C 
ATOM      8  C   UNL     1      34.569 -15.548 -23.307  0.00  0.00    +0.000 C 
ATOM      9  C   UNL     1      34.339 -14.770 -21.031  0.00  0.00    +0.000 C 
ATOM     10  C   UNL     1      34.991 -16.792 -22.840  0.00  0.00    +0.000 C 
ATOM     11  C   UNL     1      34.761 -16.015 -20.564  0.00  0.00    +0.000 C 
BRANCH   7  13
ATOM     12  N   UNL     1      36.367 -20.810 -20.043  0.00  0.00    -0.242 NA
ATOM     13  C   UNL     1      35.525 -18.316 -20.982  0.00  0.00    +0.003 C 
ATOM     14  C   UNL     1      34.590 -19.302 -20.685  0.00  0.00    +0.021 C 
ATOM     15  C   UNL     1      36.880 -18.576 -20.811  0.00  0.00    +0.021 C 
ATOM     16  C   UNL     1      35.058 -20.521 -20.222  0.00  0.00    +0.099 C 
ATOM     17  C   UNL     1      37.246 -19.827 -20.342  0.00  0.00    +0.099 C 
ENDBRANCH   7  13
ENDBRANCH   3   6
BRANCH   2  20
ATOM     18  O   UNL     1      31.261  -9.606 -22.358  0.00  0.00    -0.270 OA
ATOM     19  N   UNL     1      33.417  -8.817 -22.272  0.00  0.00    -0.298 N 
ATOM     20  C   UNL     1      32.469  -9.815 -22.484  0.00  0.00    +0.252 C 
ATOM     21  H   UNL     1      34.370  -9.033 -22.387  0.00  0.00    +0.150 HD
BRANCH  19  22
ATOM     22  C   UNL     1      33.044  -7.472 -21.891  0.00  0.00    +0.105 C 
BRANCH  22  23
ATOM     23  C   UNL     1      32.622  -6.680 -23.113  0.00  0.00    -0.004 C 
ATOM     24  C   UNL     1      31.328  -6.199 -23.188  0.00  0.00    -0.003 C 
ATOM     25  C   UNL     1      33.540  -6.460 -24.122  0.00  0.00    -0.003 C 
ATOM     26  C   UNL     1      30.939  -5.471 -24.313  0.00  0.00    -0.000 C 
ATOM     27  C   UNL     1      33.152  -5.733 -25.247  0.00  0.00    -0.000 C 
ATOM     28  C   UNL     1      31.850  -5.239 -25.342  0.00  0.00    -0.000 C 
ENDBRANCH  22  23
BRANCH  22  29
ATOM     29  C   UNL     1      31.977  -7.510 -20.783  0.00  0.00    +0.133 C 
BRANCH  29  31
ATOM     30  O   UNL     1      32.098  -8.737 -18.679  0.00  0.00    -0.250 OA
ATOM     31  C   UNL     1      32.537  -7.871 -19.423  0.00  0.00    +0.316 C 
BRANCH  31  32
ATOM     32  O   UNL     1      33.598  -7.085 -19.097  0.00  0.00    -0.480 OA
ATOM     33  H   UNL     1      34.205  -6.822 -19.759  0.00  0.00    +0.295 HD
ENDBRANCH  31  32
ENDBRANCH  29  31
ENDBRANCH  22  29
ENDBRANCH  19  22
ENDBRANCH   2  20
TORSDOF 8
ENDMDL
MODEL 8
REMARK VINA RESULT:      -9.3      4.262     10.320
REMARK  Name = 448942
REMARK  8 active torsions:
REMARK  status: ('A' for Active; 'I' for Inactive)
REMARK    1  A    between atoms: C_2  and  C_20
REMARK    2  A    between atoms: C_3  and  C_6
REMARK    3  A    between atoms: C_7  and  C_13
REMARK    4  A    between atoms: N_19  and  C_22
REMARK    5  A    between atoms: C_22  and  C_23
REMARK    6  A    between atoms: C_22  and  C_29
REMARK    7  A    between atoms: C_29  and  C_31
REMARK    8  A    between atoms: C_31  and  O_32
REMARK                            x       y       z     vdW  Elec       q    Type
REMARK                         _______ _______ _______ _____ _____    ______ ____
ROOT
ATOM      1  S   UNL     1      32.714 -20.914 -19.859  0.00  0.00    -0.082 S 
ATOM      2  C   UNL     1      34.338 -20.528 -20.139  0.00  0.00    +0.083 C 
ATOM      3  C   UNL     1      34.508 -21.767 -18.229  0.00  0.00    +0.007 C 
ATOM      4  C   UNL     1      35.202 -21.022 -19.227  0.00  0.00    +0.012 C 
ATOM      5  C   UNL     1      33.149 -21.788 -18.452  0.00  0.00    +0.036 C 
ENDROOT
BRANCH   3   6
ATOM      6  C   UNL     1      35.080 -22.443 -17.096  0.00  0.00    +0.001 C 
ATOM      7  C   UNL     1      36.189 -23.755 -14.900  0.00  0.00    +0.000 C 
ATOM      8  C   UNL     1      36.407 -22.208 -16.743  0.00  0.00    +0.000 C 
ATOM      9  C   UNL     1      34.305 -23.333 -16.354  0.00  0.00    +0.000 C 
ATOM     10  C   UNL     1      36.963 -22.864 -15.645  0.00  0.00    +0.000 C 
ATOM     11  C   UNL     1      34.861 -23.990 -15.255  0.00  0.00    +0.000 C 
BRANCH   7  13
ATOM     12  N   UNL     1      37.881 -25.753 -11.564  0.00  0.00    -0.242 NA
ATOM     13  C   UNL     1      36.765 -24.437 -13.762  0.00  0.00    +0.003 C 
ATOM     14  C   UNL     1      37.240 -23.706 -12.679  0.00  0.00    +0.021 C 
ATOM     15  C   UNL     1      36.847 -25.825 -13.747  0.00  0.00    +0.021 C 
ATOM     16  C   UNL     1      37.784 -24.405 -11.614  0.00  0.00    +0.099 C 
ATOM     17  C   UNL     1      37.409 -26.429 -12.635  0.00  0.00    +0.099 C 
ENDBRANCH   7  13
ENDBRANCH   3   6
BRANCH   2  20
ATOM     18  O   UNL     1      34.634 -20.170 -22.462  0.00  0.00    -0.270 OA
ATOM     19  N   UNL     1      35.012 -18.391 -21.060  0.00  0.00    -0.298 N 
ATOM     20  C   UNL     1      34.655 -19.711 -21.319  0.00  0.00    +0.252 C 
ATOM     21  H   UNL     1      35.014 -18.071 -20.128  0.00  0.00    +0.150 HD
BRANCH  19  22
ATOM     22  C   UNL     1      35.381 -17.473 -22.116  0.00  0.00    +0.105 C 
BRANCH  22  23
ATOM     23  C   UNL     1      34.893 -16.075 -21.786  0.00  0.00    -0.004 C 
ATOM     24  C   UNL     1      34.710 -15.722 -20.462  0.00  0.00    -0.003 C 
ATOM     25  C   UNL     1      34.643 -15.189 -22.817  0.00  0.00    -0.003 C 
ATOM     26  C   UNL     1      34.261 -14.437 -20.158  0.00  0.00    -0.000 C 
ATOM     27  C   UNL     1      34.194 -13.905 -22.514  0.00  0.00    -0.000 C 
ATOM     28  C   UNL     1      34.002 -13.529 -21.184  0.00  0.00    -0.000 C 
ENDBRANCH  22  23
BRANCH  22  29
ATOM     29  C   UNL     1      36.894 -17.550 -22.383  0.00  0.00    +0.133 C 
BRANCH  29  31
ATOM     30  O   UNL     1      37.325 -18.631 -20.240  0.00  0.00    -0.250 OA
ATOM     31  C   UNL     1      37.630 -18.447 -21.410  0.00  0.00    +0.316 C 
BRANCH  31  32
ATOM     32  O   UNL     1      38.715 -19.025 -21.990  0.00  0.00    -0.480 OA
ATOM     33  H   UNL     1      39.275 -18.518 -22.543  0.00  0.00    +0.295 HD
ENDBRANCH  31  32
ENDBRANCH  29  31
ENDBRANCH  22  29
ENDBRANCH  19  22
ENDBRANCH   2  20
TORSDOF 8
ENDMDL
MODEL 9
REMARK VINA RESULT:      -9.3      9.225     14.990
REMARK  Name = 448942
REMARK  8 active torsions:
REMARK  status: ('A' for Active; 'I' for Inactive)
REMARK    1  A    between atoms: C_2  and  C_20
REMARK    2  A    between atoms: C_3  and  C_6
REMARK    3  A    between atoms: C_7  and  C_13
REMARK    4  A    between atoms: N_19  and  C_22
REMARK    5  A    between atoms: C_22  and  C_23
REMARK    6  A    between atoms: C_22  and  C_29
REMARK    7  A    between atoms: C_29  and  C_31
REMARK    8  A    between atoms: C_31  and  O_32
REMARK                            x       y       z     vdW  Elec       q    Type
REMARK                         _______ _______ _______ _____ _____    ______ ____
ROOT
ATOM      1  S   UNL     1      33.072 -11.405 -24.505  0.00  0.00    -0.082 S 
ATOM      2  C   UNL     1      33.168 -11.040 -22.854  0.00  0.00    +0.083 C 
ATOM      3  C   UNL     1      33.809 -13.231 -22.854  0.00  0.00    +0.007 C 
ATOM      4  C   UNL     1      33.564 -12.066 -22.071  0.00  0.00    +0.012 C 
ATOM      5  C   UNL     1      33.579 -13.011 -24.194  0.00  0.00    +0.036 C 
ENDROOT
BRANCH   3   6
ATOM      6  C   UNL     1      34.243 -14.518 -22.382  0.00  0.00    +0.001 C 
ATOM      7  C   UNL     1      35.086 -17.014 -21.469  0.00  0.00    +0.000 C 
ATOM      8  C   UNL     1      34.326 -14.766 -21.014  0.00  0.00    +0.000 C 
ATOM      9  C   UNL     1      34.581 -15.516 -23.296  0.00  0.00    +0.000 C 
ATOM     10  C   UNL     1      34.748 -16.014 -20.556  0.00  0.00    +0.000 C 
ATOM     11  C   UNL     1      35.003 -16.764 -22.838  0.00  0.00    +0.000 C 
BRANCH   7  13
ATOM     12  N   UNL     1      36.372 -20.808 -20.075  0.00  0.00    -0.242 NA
ATOM     13  C   UNL     1      35.525 -18.307 -20.994  0.00  0.00    +0.003 C 
ATOM     14  C   UNL     1      34.591 -19.288 -20.678  0.00  0.00    +0.021 C 
ATOM     15  C   UNL     1      36.882 -18.576 -20.851  0.00  0.00    +0.021 C 
ATOM     16  C   UNL     1      35.062 -20.511 -20.226  0.00  0.00    +0.099 C 
ATOM     17  C   UNL     1      37.250 -19.830 -20.392  0.00  0.00    +0.099 C 
ENDBRANCH   7  13
ENDBRANCH   3   6
BRANCH   2  20
ATOM     18  O   UNL     1      32.317  -9.435 -21.334  0.00  0.00    -0.270 OA
ATOM     19  N   UNL     1      33.072  -8.674 -23.365  0.00  0.00    -0.298 N 
ATOM     20  C   UNL     1      32.822  -9.676 -22.432  0.00  0.00    +0.252 C 
ATOM     21  H   UNL     1      33.477  -8.918 -24.229  0.00  0.00    +0.150 HD
BRANCH  19  22
ATOM     22  C   UNL     1      32.756  -7.286 -23.107  0.00  0.00    +0.105 C 
BRANCH  22  23
ATOM     23  C   UNL     1      33.409  -6.399 -24.149  0.00  0.00    -0.004 C 
ATOM     24  C   UNL     1      34.789  -6.348 -24.219  0.00  0.00    -0.003 C 
ATOM     25  C   UNL     1      32.609  -5.664 -25.003  0.00  0.00    -0.003 C 
ATOM     26  C   UNL     1      35.389  -5.532 -25.178  0.00  0.00    -0.000 C 
ATOM     27  C   UNL     1      33.209  -4.848 -25.962  0.00  0.00    -0.000 C 
ATOM     28  C   UNL     1      34.600  -4.781 -26.048  0.00  0.00    -0.000 C 
ENDBRANCH  22  23
BRANCH  22  29
ATOM     29  C   UNL     1      31.232  -7.098 -23.004  0.00  0.00    +0.133 C 
BRANCH  29  31
ATOM     30  O   UNL     1      30.030  -5.271 -21.925  0.00  0.00    -0.250 OA
ATOM     31  C   UNL     1      30.814  -6.208 -21.853  0.00  0.00    +0.316 C 
BRANCH  31  32
ATOM     32  O   UNL     1      31.442  -6.559 -20.700  0.00  0.00    -0.480 OA
ATOM     33  H   UNL     1      32.318  -6.270 -20.538  0.00  0.00    +0.295 HD
ENDBRANCH  31  32
ENDBRANCH  29  31
ENDBRANCH  22  29
ENDBRANCH  19  22
ENDBRANCH   2  20
TORSDOF 8
ENDMDL
