MODEL 1
REMARK VINA RESULT:     -11.4      0.000      0.000
REMARK  Name = 24764443
REMARK  5 active torsions:
REMARK  status: ('A' for Active; 'I' for Inactive)
REMARK    1  A    between atoms: C_2  and  C_17
REMARK    2  A    between atoms: C_3  and  N_19
REMARK    3  A    between atoms: C_20  and  C_22
REMARK    4  A    between atoms: C_22  and  C_23
REMARK    5  A    between atoms: C_23  and  C_31
REMARK                            x       y       z     vdW  Elec       q    Type
REMARK                         _______ _______ _______ _____ _____    ______ ____
ROOT
ATOM      1 BR   UNL     1      36.953 -23.936 -13.590  0.00  0.00    -0.049 Br
ATOM      2  C   UNL     1      34.622 -22.738 -16.823  0.00  0.00    +0.068 C 
ATOM      3  C   UNL     1      35.518 -22.011 -17.606  0.00  0.00    +0.055 C 
ATOM      4  C   UNL     1      35.050 -23.312 -15.626  0.00  0.00    +0.012 C 
ATOM      5  C   UNL     1      36.842 -21.857 -17.193  0.00  0.00    +0.015 C 
ATOM      6  C   UNL     1      36.372 -23.158 -15.212  0.00  0.00    +0.035 C 
ATOM      7  C   UNL     1      37.269 -22.431 -15.995  0.00  0.00    +0.008 C 
ENDROOT
BRANCH   2  17
ATOM      8  O   UNL     1      32.966 -22.681 -18.409  0.00  0.00    -0.270 OA
ATOM      9  N   UNL     1      32.302 -23.329 -16.263  0.00  0.00    -0.276 N 
ATOM     10  C   UNL     1      29.996 -22.645 -15.734  0.00  0.00    +0.020 C 
ATOM     11  C   UNL     1      31.770 -22.774 -13.922  0.00  0.00    +0.020 C 
ATOM     12  C   UNL     1      30.275 -22.931 -14.249  0.00  0.00    +0.003 C 
ATOM     13  C   UNL     1      30.897 -23.507 -16.629  0.00  0.00    +0.094 C 
ATOM     14  C   UNL     1      32.614 -23.641 -14.862  0.00  0.00    +0.094 C 
ATOM     15  C   UNL     1      28.524 -22.877 -16.065  0.00  0.00    +0.002 C 
ATOM     16  C   UNL     1      32.046 -23.128 -12.463  0.00  0.00    +0.002 C 
ATOM     17  C   UNL     1      33.223 -22.919 -17.231  0.00  0.00    +0.250 C 
ENDBRANCH   2  17
BRANCH   3  19
ATOM     18  O   UNL     1      36.892 -19.982 -19.345  0.00  0.00    -0.275 OA
ATOM     19  N   UNL     1      35.112 -21.426 -18.811  0.00  0.00    -0.284 N 
ATOM     20  C   UNL     1      35.795 -20.478 -19.585  0.00  0.00    +0.227 C 
ATOM     21  H   UNL     1      34.237 -21.716 -19.157  0.00  0.00    +0.155 HD
BRANCH  20  22
ATOM     22  C   UNL     1      34.996 -20.106 -20.827  0.00  0.00    +0.095 C 
BRANCH  22  23
ATOM     23  C   UNL     1      35.146 -18.638 -21.200  0.00  0.00    +0.095 C 
BRANCH  23  31
ATOM     24  O   UNL     1      34.083 -14.617 -24.061  0.00  0.00    -0.350 OA
ATOM     25  O   UNL     1      34.800 -19.464 -23.395  0.00  0.00    -0.275 OA
ATOM     26  N   UNL     1      34.901 -17.158 -23.158  0.00  0.00    -0.274 N 
ATOM     27  C   UNL     1      35.183 -15.957 -22.364  0.00  0.00    +0.125 C 
ATOM     28  C   UNL     1      34.696 -16.900 -24.584  0.00  0.00    +0.125 C 
ATOM     29  C   UNL     1      34.150 -14.876 -22.657  0.00  0.00    +0.164 C 
ATOM     30  C   UNL     1      33.680 -15.785 -24.780  0.00  0.00    +0.164 C 
ATOM     31  C   UNL     1      34.935 -18.466 -22.683  0.00  0.00    +0.226 C 
ENDBRANCH  23  31
ENDBRANCH  22  23
ENDBRANCH  20  22
ENDBRANCH   3  19
TORSDOF 5
ENDMDL
MODEL 2
REMARK VINA RESULT:     -10.3      6.568     12.103
REMARK  Name = 24764443
REMARK  5 active torsions:
REMARK  status: ('A' for Active; 'I' for Inactive)
REMARK    1  A    between atoms: C_2  and  C_17
REMARK    2  A    between atoms: C_3  and  N_19
REMARK    3  A    between atoms: C_20  and  C_22
REMARK    4  A    between atoms: C_22  and  C_23
REMARK    5  A    between atoms: C_23  and  C_31
REMARK                            x       y       z     vdW  Elec       q    Type
REMARK                         _______ _______ _______ _____ _____    ______ ____
ROOT
ATOM      1 BR   UNL     1      31.547 -10.047 -18.038  0.00  0.00    -0.049 Br
ATOM      2  C   UNL     1      32.354 -11.278 -21.931  0.00  0.00    +0.068 C 
ATOM      3  C   UNL     1      32.484 -12.661 -21.804  0.00  0.00    +0.055 C 
ATOM      4  C   UNL     1      32.074 -10.499 -20.809  0.00  0.00    +0.012 C 
ATOM      5  C   UNL     1      32.336 -13.265 -20.556  0.00  0.00    +0.015 C 
ATOM      6  C   UNL     1      31.927 -11.102 -19.560  0.00  0.00    +0.035 C 
ATOM      7  C   UNL     1      32.057 -12.485 -19.433  0.00  0.00    +0.008 C 
ENDROOT
BRANCH   2  17
ATOM      8  O   UNL     1      33.056 -11.265 -24.115  0.00  0.00    -0.270 OA
ATOM      9  N   UNL     1      32.024  -9.307 -23.362  0.00  0.00    -0.276 N 
ATOM     10  C   UNL     1      32.920  -7.283 -24.444  0.00  0.00    +0.020 C 
ATOM     11  C   UNL     1      32.075  -7.221 -22.049  0.00  0.00    +0.020 C 
ATOM     12  C   UNL     1      32.243  -6.430 -23.358  0.00  0.00    +0.003 C 
ATOM     13  C   UNL     1      32.166  -8.606 -24.638  0.00  0.00    +0.094 C 
ATOM     14  C   UNL     1      31.337  -8.538 -22.316  0.00  0.00    +0.094 C 
ATOM     15  C   UNL     1      33.012  -6.515 -25.760  0.00  0.00    +0.002 C 
ATOM     16  C   UNL     1      31.340  -6.389 -21.003  0.00  0.00    +0.002 C 
ATOM     17  C   UNL     1      32.503 -10.613 -23.231  0.00  0.00    +0.250 C 
ENDBRANCH   2  17
BRANCH   3  19
ATOM     18  O   UNL     1      34.972 -14.181 -22.532  0.00  0.00    -0.275 OA
ATOM     19  N   UNL     1      32.764 -13.463 -22.916  0.00  0.00    -0.284 N 
ATOM     20  C   UNL     1      33.949 -14.153 -23.209  0.00  0.00    +0.227 C 
ATOM     21  H   UNL     1      32.039 -13.554 -23.575  0.00  0.00    +0.155 HD
BRANCH  20  22
ATOM     22  C   UNL     1      33.833 -14.909 -24.524  0.00  0.00    +0.095 C 
BRANCH  22  23
ATOM     23  C   UNL     1      34.896 -15.988 -24.675  0.00  0.00    +0.095 C 
BRANCH  23  31
ATOM     24  O   UNL     1      35.951 -19.358 -21.067  0.00  0.00    -0.350 OA
ATOM     25  O   UNL     1      33.541 -17.881 -25.124  0.00  0.00    -0.275 OA
ATOM     26  N   UNL     1      34.686 -17.880 -23.106  0.00  0.00    -0.274 N 
ATOM     27  C   UNL     1      35.492 -17.204 -22.084  0.00  0.00    +0.125 C 
ATOM     28  C   UNL     1      34.166 -19.184 -22.694  0.00  0.00    +0.125 C 
ATOM     29  C   UNL     1      36.553 -18.150 -21.537  0.00  0.00    +0.164 C 
ATOM     30  C   UNL     1      35.285 -20.047 -22.128  0.00  0.00    +0.164 C 
ATOM     31  C   UNL     1      34.308 -17.333 -24.330  0.00  0.00    +0.226 C 
ENDBRANCH  23  31
ENDBRANCH  22  23
ENDBRANCH  20  22
ENDBRANCH   3  19
TORSDOF 5
ENDMDL
MODEL 3
REMARK VINA RESULT:     -10.3      9.415     16.066
REMARK  Name = 24764443
REMARK  5 active torsions:
REMARK  status: ('A' for Active; 'I' for Inactive)
REMARK    1  A    between atoms: C_2  and  C_17
REMARK    2  A    between atoms: C_3  and  N_19
REMARK    3  A    between atoms: C_20  and  C_22
REMARK    4  A    between atoms: C_22  and  C_23
REMARK    5  A    between atoms: C_23  and  C_31
REMARK                            x       y       z     vdW  Elec       q    Type
REMARK                         _______ _______ _______ _____ _____    ______ ____
ROOT
ATOM      1 BR   UNL     1      30.621  -2.963 -21.752  0.00  0.00    -0.049 Br
ATOM      2  C   UNL     1      32.968  -6.177 -22.970  0.00  0.00    +0.068 C 
ATOM      3  C   UNL     1      32.327  -7.273 -22.392  0.00  0.00    +0.055 C 
ATOM      4  C   UNL     1      32.459  -4.892 -22.780  0.00  0.00    +0.012 C 
ATOM      5  C   UNL     1      31.179  -7.084 -21.623  0.00  0.00    +0.015 C 
ATOM      6  C   UNL     1      31.311  -4.703 -22.011  0.00  0.00    +0.035 C 
ATOM      7  C   UNL     1      30.671  -5.799 -21.432  0.00  0.00    +0.008 C 
ENDROOT
BRANCH   2  17
ATOM      8  O   UNL     1      35.172  -6.767 -23.202  0.00  0.00    -0.270 OA
ATOM      9  N   UNL     1      34.111  -6.000 -25.139  0.00  0.00    -0.276 N 
ATOM     10  C   UNL     1      35.642  -4.801 -26.651  0.00  0.00    +0.020 C 
ATOM     11  C   UNL     1      33.189  -4.162 -26.498  0.00  0.00    +0.020 C 
ATOM     12  C   UNL     1      34.424  -4.248 -27.411  0.00  0.00    +0.003 C 
ATOM     13  C   UNL     1      35.299  -6.138 -25.981  0.00  0.00    +0.094 C 
ATOM     14  C   UNL     1      32.915  -5.520 -25.844  0.00  0.00    +0.094 C 
ATOM     15  C   UNL     1      36.840  -4.954 -27.585  0.00  0.00    +0.002 C 
ATOM     16  C   UNL     1      31.969  -3.680 -27.279  0.00  0.00    +0.002 C 
ATOM     17  C   UNL     1      34.177  -6.342 -23.786  0.00  0.00    +0.250 C 
ENDBRANCH   2  17
BRANCH   3  19
ATOM     18  O   UNL     1      30.875  -9.897 -22.567  0.00  0.00    -0.275 OA
ATOM     19  N   UNL     1      32.819  -8.570 -22.569  0.00  0.00    -0.284 N 
ATOM     20  C   UNL     1      32.093  -9.767 -22.643  0.00  0.00    +0.227 C 
ATOM     21  H   UNL     1      33.796  -8.653 -22.651  0.00  0.00    +0.155 HD
BRANCH  20  22
ATOM     22  C   UNL     1      33.019 -10.959 -22.842  0.00  0.00    +0.095 C 
BRANCH  22  23
ATOM     23  C   UNL     1      32.343 -12.284 -22.523  0.00  0.00    +0.095 C 
BRANCH  23  31
ATOM     24  O   UNL     1      34.365 -16.110 -25.125  0.00  0.00    -0.350 OA
ATOM     25  O   UNL     1      33.745 -13.446 -21.005  0.00  0.00    -0.275 OA
ATOM     26  N   UNL     1      33.882 -14.076 -23.234  0.00  0.00    -0.274 N 
ATOM     27  C   UNL     1      33.574 -13.865 -24.653  0.00  0.00    +0.125 C 
ATOM     28  C   UNL     1      34.894 -15.104 -22.986  0.00  0.00    +0.125 C 
ATOM     29  C   UNL     1      33.285 -15.197 -25.334  0.00  0.00    +0.164 C 
ATOM     30  C   UNL     1      34.544 -16.383 -23.733  0.00  0.00    +0.164 C 
ATOM     31  C   UNL     1      33.386 -13.317 -22.177  0.00  0.00    +0.226 C 
ENDBRANCH  23  31
ENDBRANCH  22  23
ENDBRANCH  20  22
ENDBRANCH   3  19
TORSDOF 5
ENDMDL
MODEL 4
REMARK VINA RESULT:     -10.2      8.963     16.133
REMARK  Name = 24764443
REMARK  5 active torsions:
REMARK  status: ('A' for Active; 'I' for Inactive)
REMARK    1  A    between atoms: C_2  and  C_17
REMARK    2  A    between atoms: C_3  and  N_19
REMARK    3  A    between atoms: C_20  and  C_22
REMARK    4  A    between atoms: C_22  and  C_23
REMARK    5  A    between atoms: C_23  and  C_31
REMARK                            x       y       z     vdW  Elec       q    Type
REMARK                         _______ _______ _______ _____ _____    ______ ____
ROOT
ATOM      1 BR   UNL     1      30.587  -3.063 -21.750  0.00  0.00    -0.049 Br
ATOM      2  C   UNL     1      33.089  -6.154 -22.978  0.00  0.00    +0.068 C 
ATOM      3  C   UNL     1      32.522  -7.277 -22.376  0.00  0.00    +0.055 C 
ATOM      4  C   UNL     1      32.512  -4.898 -22.792  0.00  0.00    +0.012 C 
ATOM      5  C   UNL     1      31.378  -7.145 -21.587  0.00  0.00    +0.015 C 
ATOM      6  C   UNL     1      31.369  -4.765 -22.003  0.00  0.00    +0.035 C 
ATOM      7  C   UNL     1      30.802  -5.888 -21.401  0.00  0.00    +0.008 C 
ENDROOT
BRANCH   2  17
ATOM      8  O   UNL     1      35.312  -6.650 -23.250  0.00  0.00    -0.270 OA
ATOM      9  N   UNL     1      34.189  -5.906 -25.162  0.00  0.00    -0.276 N 
ATOM     10  C   UNL     1      35.645  -4.629 -26.683  0.00  0.00    +0.020 C 
ATOM     11  C   UNL     1      33.170  -4.094 -26.485  0.00  0.00    +0.020 C 
ATOM     12  C   UNL     1      34.393  -4.119 -27.418  0.00  0.00    +0.003 C 
ATOM     13  C   UNL     1      35.369  -5.987 -26.024  0.00  0.00    +0.094 C 
ATOM     14  C   UNL     1      32.963  -5.469 -25.842  0.00  0.00    +0.094 C 
ATOM     15  C   UNL     1      36.834  -4.722 -27.637  0.00  0.00    +0.002 C 
ATOM     16  C   UNL     1      31.920  -3.654 -27.242  0.00  0.00    +0.002 C 
ATOM     17  C   UNL     1      34.291  -6.260 -23.814  0.00  0.00    +0.250 C 
ENDBRANCH   2  17
BRANCH   3  19
ATOM     18  O   UNL     1      32.051  -9.338 -24.510  0.00  0.00    -0.275 OA
ATOM     19  N   UNL     1      33.082  -8.547 -22.548  0.00  0.00    -0.284 N 
ATOM     20  C   UNL     1      32.825  -9.475 -23.568  0.00  0.00    +0.227 C 
ATOM     21  H   UNL     1      33.738  -8.824 -21.869  0.00  0.00    +0.155 HD
BRANCH  20  22
ATOM     22  C   UNL     1      33.652 -10.739 -23.380  0.00  0.00    +0.095 C 
BRANCH  22  23
ATOM     23  C   UNL     1      32.819 -11.915 -22.890  0.00  0.00    +0.095 C 
BRANCH  23  31
ATOM     24  O   UNL     1      34.942 -16.040 -20.899  0.00  0.00    -0.350 OA
ATOM     25  O   UNL     1      33.473 -13.269 -24.723  0.00  0.00    -0.275 OA
ATOM     26  N   UNL     1      33.634 -14.227 -22.615  0.00  0.00    -0.274 N 
ATOM     27  C   UNL     1      33.365 -14.217 -21.173  0.00  0.00    +0.125 C 
ATOM     28  C   UNL     1      34.145 -15.501 -23.122  0.00  0.00    +0.125 C 
ATOM     29  C   UNL     1      34.569 -14.751 -20.407  0.00  0.00    +0.164 C 
ATOM     30  C   UNL     1      35.319 -15.975 -22.277  0.00  0.00    +0.164 C 
ATOM     31  C   UNL     1      33.336 -13.193 -23.499  0.00  0.00    +0.226 C 
ENDBRANCH  23  31
ENDBRANCH  22  23
ENDBRANCH  20  22
ENDBRANCH   3  19
TORSDOF 5
ENDMDL
MODEL 5
REMARK VINA RESULT:     -10.1      9.517     13.820
REMARK  Name = 24764443
REMARK  5 active torsions:
REMARK  status: ('A' for Active; 'I' for Inactive)
REMARK    1  A    between atoms: C_2  and  C_17
REMARK    2  A    between atoms: C_3  and  N_19
REMARK    3  A    between atoms: C_20  and  C_22
REMARK    4  A    between atoms: C_22  and  C_23
REMARK    5  A    between atoms: C_23  and  C_31
REMARK                            x       y       z     vdW  Elec       q    Type
REMARK                         _______ _______ _______ _____ _____    ______ ____
ROOT
ATOM      1 BR   UNL     1      31.265 -10.336 -18.301  0.00  0.00    -0.049 Br
ATOM      2  C   UNL     1      32.664  -9.593 -22.149  0.00  0.00    +0.068 C 
ATOM      3  C   UNL     1      33.048  -8.253 -22.092  0.00  0.00    +0.055 C 
ATOM      4  C   UNL     1      32.133 -10.214 -21.019  0.00  0.00    +0.012 C 
ATOM      5  C   UNL     1      32.901  -7.534 -20.906  0.00  0.00    +0.015 C 
ATOM      6  C   UNL     1      31.984  -9.495 -19.833  0.00  0.00    +0.035 C 
ATOM      7  C   UNL     1      32.369  -8.156 -19.776  0.00  0.00    +0.008 C 
ENDROOT
BRANCH   2  17
ATOM      8  O   UNL     1      32.317  -9.887 -24.398  0.00  0.00    -0.270 OA
ATOM      9  N   UNL     1      33.469 -11.606 -23.309  0.00  0.00    -0.276 N 
ATOM     10  C   UNL     1      33.027 -13.820 -24.293  0.00  0.00    +0.020 C 
ATOM     11  C   UNL     1      33.491 -13.562 -21.809  0.00  0.00    +0.020 C 
ATOM     12  C   UNL     1      33.635 -14.474 -23.040  0.00  0.00    +0.003 C 
ATOM     13  C   UNL     1      33.620 -12.422 -24.513  0.00  0.00    +0.094 C 
ATOM     14  C   UNL     1      34.081 -12.178 -22.102  0.00  0.00    +0.094 C 
ATOM     15  C   UNL     1      33.242 -14.699 -25.522  0.00  0.00    +0.002 C 
ATOM     16  C   UNL     1      34.160 -14.189 -20.589  0.00  0.00    +0.002 C 
ATOM     17  C   UNL     1      32.807 -10.377 -23.382  0.00  0.00    +0.250 C 
ENDBRANCH   2  17
BRANCH   3  19
ATOM     18  O   UNL     1      35.816  -7.196 -22.592  0.00  0.00    -0.275 OA
ATOM     19  N   UNL     1      33.584  -7.609 -23.213  0.00  0.00    -0.284 N 
ATOM     20  C   UNL     1      34.890  -7.133 -23.395  0.00  0.00    +0.227 C 
ATOM     21  H   UNL     1      32.967  -7.474 -23.968  0.00  0.00    +0.155 HD
BRANCH  20  22
ATOM     22  C   UNL     1      35.054  -6.495 -24.767  0.00  0.00    +0.095 C 
BRANCH  22  23
ATOM     23  C   UNL     1      33.721  -6.160 -25.420  0.00  0.00    +0.095 C 
BRANCH  23  31
ATOM     24  O   UNL     1      30.339  -2.923 -23.528  0.00  0.00    -0.350 OA
ATOM     25  O   UNL     1      34.242  -4.042 -26.351  0.00  0.00    -0.275 OA
ATOM     26  N   UNL     1      32.650  -4.070 -24.663  0.00  0.00    -0.274 N 
ATOM     27  C   UNL     1      31.927  -4.756 -23.586  0.00  0.00    +0.125 C 
ATOM     28  C   UNL     1      32.436  -2.623 -24.702  0.00  0.00    +0.125 C 
ATOM     29  C   UNL     1      30.460  -4.347 -23.590  0.00  0.00    +0.164 C 
ATOM     30  C   UNL     1      30.948  -2.306 -24.665  0.00  0.00    +0.164 C 
ATOM     31  C   UNL     1      33.569  -4.664 -25.526  0.00  0.00    +0.226 C 
ENDBRANCH  23  31
ENDBRANCH  22  23
ENDBRANCH  20  22
ENDBRANCH   3  19
TORSDOF 5
ENDMDL
MODEL 6
REMARK VINA RESULT:      -9.8      4.658      8.108
REMARK  Name = 24764443
REMARK  5 active torsions:
REMARK  status: ('A' for Active; 'I' for Inactive)
REMARK    1  A    between atoms: C_2  and  C_17
REMARK    2  A    between atoms: C_3  and  N_19
REMARK    3  A    between atoms: C_20  and  C_22
REMARK    4  A    between atoms: C_22  and  C_23
REMARK    5  A    between atoms: C_23  and  C_31
REMARK                            x       y       z     vdW  Elec       q    Type
REMARK                         _______ _______ _______ _____ _____    ______ ____
ROOT
ATOM      1 BR   UNL     1      39.102 -25.702 -13.520  0.00  0.00    -0.049 Br
ATOM      2  C   UNL     1      35.308 -24.311 -14.516  0.00  0.00    +0.068 C 
ATOM      3  C   UNL     1      34.664 -24.239 -13.281  0.00  0.00    +0.055 C 
ATOM      4  C   UNL     1      36.631 -24.746 -14.587  0.00  0.00    +0.012 C 
ATOM      5  C   UNL     1      35.342 -24.603 -12.117  0.00  0.00    +0.015 C 
ATOM      6  C   UNL     1      37.309 -25.111 -13.424  0.00  0.00    +0.035 C 
ATOM      7  C   UNL     1      36.665 -25.039 -12.189  0.00  0.00    +0.008 C 
ENDROOT
BRANCH   2  17
ATOM      8  O   UNL     1      33.776 -24.723 -16.173  0.00  0.00    -0.270 OA
ATOM      9  N   UNL     1      34.985 -22.732 -16.372  0.00  0.00    -0.276 N 
ATOM     10  C   UNL     1      35.378 -22.088 -18.717  0.00  0.00    +0.020 C 
ATOM     11  C   UNL     1      37.070 -21.530 -16.907  0.00  0.00    +0.020 C 
ATOM     12  C   UNL     1      36.444 -21.087 -18.241  0.00  0.00    +0.003 C 
ATOM     13  C   UNL     1      34.334 -22.329 -17.618  0.00  0.00    +0.094 C 
ATOM     14  C   UNL     1      35.975 -21.774 -15.862  0.00  0.00    +0.094 C 
ATOM     15  C   UNL     1      34.711 -21.601 -20.001  0.00  0.00    +0.002 C 
ATOM     16  C   UNL     1      38.074 -20.494 -16.409  0.00  0.00    +0.002 C 
ATOM     17  C   UNL     1      34.623 -23.934 -15.758  0.00  0.00    +0.250 C 
ENDBRANCH   2  17
BRANCH   3  19
ATOM     18  O   UNL     1      32.102 -25.806 -13.224  0.00  0.00    -0.275 OA
ATOM     19  N   UNL     1      33.338 -23.804 -13.184  0.00  0.00    -0.284 N 
ATOM     20  C   UNL     1      32.172 -24.583 -13.163  0.00  0.00    +0.227 C 
ATOM     21  H   UNL     1      33.207 -22.830 -13.125  0.00  0.00    +0.155 HD
BRANCH  20  22
ATOM     22  C   UNL     1      30.931 -23.709 -13.047  0.00  0.00    +0.095 C 
BRANCH  22  23
ATOM     23  C   UNL     1      29.666 -24.428 -13.491  0.00  0.00    +0.095 C 
BRANCH  23  31
ATOM     24  O   UNL     1      26.544 -21.858 -16.513  0.00  0.00    -0.350 OA
ATOM     25  O   UNL     1      30.136 -25.157 -15.697  0.00  0.00    -0.275 OA
ATOM     26  N   UNL     1      28.712 -23.336 -15.487  0.00  0.00    -0.274 N 
ATOM     27  C   UNL     1      28.084 -22.280 -14.686  0.00  0.00    +0.125 C 
ATOM     28  C   UNL     1      28.524 -23.189 -16.931  0.00  0.00    +0.125 C 
ATOM     29  C   UNL     1      26.631 -22.094 -15.106  0.00  0.00    +0.164 C 
ATOM     30  C   UNL     1      27.053 -22.970 -17.253  0.00  0.00    +0.164 C 
ATOM     31  C   UNL     1      29.532 -24.347 -14.990  0.00  0.00    +0.226 C 
ENDBRANCH  23  31
ENDBRANCH  22  23
ENDBRANCH  20  22
ENDBRANCH   3  19
TORSDOF 5
ENDMDL
MODEL 7
REMARK VINA RESULT:      -9.7     10.052     16.277
REMARK  Name = 24764443
REMARK  5 active torsions:
REMARK  status: ('A' for Active; 'I' for Inactive)
REMARK    1  A    between atoms: C_2  and  C_17
REMARK    2  A    between atoms: C_3  and  N_19
REMARK    3  A    between atoms: C_20  and  C_22
REMARK    4  A    between atoms: C_22  and  C_23
REMARK    5  A    between atoms: C_23  and  C_31
REMARK                            x       y       z     vdW  Elec       q    Type
REMARK                         _______ _______ _______ _____ _____    ______ ____
ROOT
ATOM      1 BR   UNL     1      30.639  -3.577 -21.570  0.00  0.00    -0.049 Br
ATOM      2  C   UNL     1      33.377  -6.303 -23.114  0.00  0.00    +0.068 C 
ATOM      3  C   UNL     1      32.939  -7.521 -22.594  0.00  0.00    +0.055 C 
ATOM      4  C   UNL     1      32.691  -5.128 -22.810  0.00  0.00    +0.012 C 
ATOM      5  C   UNL     1      31.815  -7.563 -21.768  0.00  0.00    +0.015 C 
ATOM      6  C   UNL     1      31.569  -5.169 -21.983  0.00  0.00    +0.035 C 
ATOM      7  C   UNL     1      31.130  -6.387 -21.463  0.00  0.00    +0.008 C 
ENDROOT
BRANCH   2  17
ATOM      8  O   UNL     1      35.628  -6.551 -23.482  0.00  0.00    -0.270 OA
ATOM      9  N   UNL     1      34.375  -5.785 -25.300  0.00  0.00    -0.276 N 
ATOM     10  C   UNL     1      35.646  -4.258 -26.756  0.00  0.00    +0.020 C 
ATOM     11  C   UNL     1      33.138  -3.991 -26.453  0.00  0.00    +0.020 C 
ATOM     12  C   UNL     1      34.326  -3.824 -27.417  0.00  0.00    +0.003 C 
ATOM     13  C   UNL     1      35.526  -5.682 -26.196  0.00  0.00    +0.094 C 
ATOM     14  C   UNL     1      33.089  -5.425 -25.913  0.00  0.00    +0.094 C 
ATOM     15  C   UNL     1      36.805  -4.160 -27.745  0.00  0.00    +0.002 C 
ATOM     16  C   UNL     1      31.826  -3.625 -27.141  0.00  0.00    +0.002 C 
ATOM     17  C   UNL     1      34.555  -6.226 -23.987  0.00  0.00    +0.250 C 
ENDBRANCH   2  17
BRANCH   3  19
ATOM     18  O   UNL     1      32.302  -9.674 -24.589  0.00  0.00    -0.275 OA
ATOM     19  N   UNL     1      33.610  -8.713 -22.886  0.00  0.00    -0.284 N 
ATOM     20  C   UNL     1      33.267  -9.689 -23.832  0.00  0.00    +0.227 C 
ATOM     21  H   UNL     1      34.424  -8.888 -22.361  0.00  0.00    +0.155 HD
BRANCH  20  22
ATOM     22  C   UNL     1      34.271 -10.833 -23.828  0.00  0.00    +0.095 C 
BRANCH  22  23
ATOM     23  C   UNL     1      33.601 -12.199 -23.832  0.00  0.00    +0.095 C 
BRANCH  23  31
ATOM     24  O   UNL     1      30.904 -11.265 -19.667  0.00  0.00    -0.350 OA
ATOM     25  O   UNL     1      34.572 -13.508 -22.110  0.00  0.00    -0.275 OA
ATOM     26  N   UNL     1      32.566 -12.455 -21.607  0.00  0.00    -0.274 N 
ATOM     27  C   UNL     1      31.371 -11.705 -22.007  0.00  0.00    +0.125 C 
ATOM     28  C   UNL     1      32.518 -12.977 -20.240  0.00  0.00    +0.125 C 
ATOM     29  C   UNL     1      31.028 -10.657 -20.955  0.00  0.00    +0.164 C 
ATOM     30  C   UNL     1      32.134 -11.873 -19.265  0.00  0.00    +0.164 C 
ATOM     31  C   UNL     1      33.630 -12.784 -22.443  0.00  0.00    +0.226 C 
ENDBRANCH  23  31
ENDBRANCH  22  23
ENDBRANCH  20  22
ENDBRANCH   3  19
TORSDOF 5
ENDMDL
MODEL 8
REMARK VINA RESULT:      -9.6      9.547     13.790
REMARK  Name = 24764443
REMARK  5 active torsions:
REMARK  status: ('A' for Active; 'I' for Inactive)
REMARK    1  A    between atoms: C_2  and  C_17
REMARK    2  A    between atoms: C_3  and  N_19
REMARK    3  A    between atoms: C_20  and  C_22
REMARK    4  A    between atoms: C_22  and  C_23
REMARK    5  A    between atoms: C_23  and  C_31
REMARK                            x       y       z     vdW  Elec       q    Type
REMARK                         _______ _______ _______ _____ _____    ______ ____
ROOT
ATOM      1 BR   UNL     1      31.256 -10.370 -18.253  0.00  0.00    -0.049 Br
ATOM      2  C   UNL     1      32.607  -9.538 -22.101  0.00  0.00    +0.068 C 
ATOM      3  C   UNL     1      32.936  -8.184 -22.034  0.00  0.00    +0.055 C 
ATOM      4  C   UNL     1      32.107 -10.190 -20.974  0.00  0.00    +0.012 C 
ATOM      5  C   UNL     1      32.764  -7.481 -20.841  0.00  0.00    +0.015 C 
ATOM      6  C   UNL     1      31.934  -9.488 -19.781  0.00  0.00    +0.035 C 
ATOM      7  C   UNL     1      32.263  -8.134 -19.715  0.00  0.00    +0.008 C 
ENDROOT
BRANCH   2  17
ATOM      8  O   UNL     1      32.304  -9.805 -24.359  0.00  0.00    -0.270 OA
ATOM      9  N   UNL     1      33.445 -11.531 -23.270  0.00  0.00    -0.276 N 
ATOM     10  C   UNL     1      33.034 -13.735 -24.291  0.00  0.00    +0.020 C 
ATOM     11  C   UNL     1      33.450 -13.506 -21.796  0.00  0.00    +0.020 C 
ATOM     12  C   UNL     1      33.622 -14.402 -23.035  0.00  0.00    +0.003 C 
ATOM     13  C   UNL     1      33.623 -12.331 -24.482  0.00  0.00    +0.094 C 
ATOM     14  C   UNL     1      34.037 -12.116 -22.060  0.00  0.00    +0.094 C 
ATOM     15  C   UNL     1      33.276 -14.597 -25.527  0.00  0.00    +0.002 C 
ATOM     16  C   UNL     1      34.099 -14.146 -20.571  0.00  0.00    +0.002 C 
ATOM     17  C   UNL     1      32.778 -10.305 -23.341  0.00  0.00    +0.250 C 
ENDBRANCH   2  17
BRANCH   3  19
ATOM     18  O   UNL     1      35.735  -7.299 -22.674  0.00  0.00    -0.275 OA
ATOM     19  N   UNL     1      33.440  -7.509 -23.151  0.00  0.00    -0.284 N 
ATOM     20  C   UNL     1      34.763  -7.117 -23.401  0.00  0.00    +0.227 C 
ATOM     21  H   UNL     1      32.784  -7.281 -23.849  0.00  0.00    +0.155 HD
BRANCH  20  22
ATOM     22  C   UNL     1      34.880  -6.405 -24.741  0.00  0.00    +0.095 C 
BRANCH  22  23
ATOM     23  C   UNL     1      33.532  -6.210 -25.419  0.00  0.00    +0.095 C 
BRANCH  23  31
ATOM     24  O   UNL     1      34.793  -4.502 -30.000  0.00  0.00    -0.350 OA
ATOM     25  O   UNL     1      33.259  -3.856 -25.343  0.00  0.00    -0.275 OA
ATOM     26  N   UNL     1      33.675  -4.786 -27.429  0.00  0.00    -0.274 N 
ATOM     27  C   UNL     1      33.806  -5.945 -28.318  0.00  0.00    +0.125 C 
ATOM     28  C   UNL     1      33.639  -3.498 -28.122  0.00  0.00    +0.125 C 
ATOM     29  C   UNL     1      34.956  -5.735 -29.294  0.00  0.00    +0.164 C 
ATOM     30  C   UNL     1      34.801  -3.390 -29.101  0.00  0.00    +0.164 C 
ATOM     31  C   UNL     1      33.474  -4.843 -26.052  0.00  0.00    +0.226 C 
ENDBRANCH  23  31
ENDBRANCH  22  23
ENDBRANCH  20  22
ENDBRANCH   3  19
TORSDOF 5
ENDMDL
MODEL 9
REMARK VINA RESULT:      -9.4      9.640     16.549
REMARK  Name = 24764443
REMARK  5 active torsions:
REMARK  status: ('A' for Active; 'I' for Inactive)
REMARK    1  A    between atoms: C_2  and  C_17
REMARK    2  A    between atoms: C_3  and  N_19
REMARK    3  A    between atoms: C_20  and  C_22
REMARK    4  A    between atoms: C_22  and  C_23
REMARK    5  A    between atoms: C_23  and  C_31
REMARK                            x       y       z     vdW  Elec       q    Type
REMARK                         _______ _______ _______ _____ _____    ______ ____
ROOT
ATOM      1 BR   UNL     1      30.438  -1.786 -22.214  0.00  0.00    -0.049 Br
ATOM      2  C   UNL     1      32.305  -5.467 -22.749  0.00  0.00    +0.068 C 
ATOM      3  C   UNL     1      31.517  -6.334 -21.993  0.00  0.00    +0.055 C 
ATOM      4  C   UNL     1      31.983  -4.111 -22.816  0.00  0.00    +0.012 C 
ATOM      5  C   UNL     1      30.407  -5.846 -21.302  0.00  0.00    +0.015 C 
ATOM      6  C   UNL     1      30.875  -3.622 -22.124  0.00  0.00    +0.035 C 
ATOM      7  C   UNL     1      30.087  -4.490 -21.367  0.00  0.00    +0.008 C 
ENDROOT
BRANCH   2  17
ATOM      8  O   UNL     1      34.372  -6.459 -22.817  0.00  0.00    -0.270 OA
ATOM      9  N   UNL     1      33.495  -5.786 -24.877  0.00  0.00    -0.276 N 
ATOM     10  C   UNL     1      35.239  -5.088 -26.470  0.00  0.00    +0.020 C 
ATOM     11  C   UNL     1      32.937  -4.014 -26.497  0.00  0.00    +0.020 C 
ATOM     12  C   UNL     1      34.151  -4.437 -27.342  0.00  0.00    +0.003 C 
ATOM     13  C   UNL     1      34.652  -6.242 -25.647  0.00  0.00    +0.094 C 
ATOM     14  C   UNL     1      32.414  -5.203 -25.684  0.00  0.00    +0.094 C 
ATOM     15  C   UNL     1      36.404  -5.572 -27.328  0.00  0.00    +0.002 C 
ATOM     16  C   UNL     1      31.836  -3.435 -27.381  0.00  0.00    +0.002 C 
ATOM     17  C   UNL     1      33.477  -5.949 -23.489  0.00  0.00    +0.250 C 
ENDBRANCH   2  17
BRANCH   3  19
ATOM     18  O   UNL     1      31.870  -8.110 -19.596  0.00  0.00    -0.275 OA
ATOM     19  N   UNL     1      31.819  -7.697 -21.912  0.00  0.00    -0.284 N 
ATOM     20  C   UNL     1      31.975  -8.482 -20.761  0.00  0.00    +0.227 C 
ATOM     21  H   UNL     1      31.939  -8.163 -22.771  0.00  0.00    +0.155 HD
BRANCH  20  22
ATOM     22  C   UNL     1      32.303  -9.924 -21.120  0.00  0.00    +0.095 C 
BRANCH  22  23
ATOM     23  C   UNL     1      31.705 -10.344 -22.455  0.00  0.00    +0.095 C 
BRANCH  23  31
ATOM     24  O   UNL     1      33.731 -14.775 -21.128  0.00  0.00    -0.350 OA
ATOM     25  O   UNL     1      33.225 -10.917 -24.182  0.00  0.00    -0.275 OA
ATOM     26  N   UNL     1      32.800 -12.551 -22.588  0.00  0.00    -0.274 N 
ATOM     27  C   UNL     1      32.034 -13.070 -21.450  0.00  0.00    +0.125 C 
ATOM     28  C   UNL     1      33.697 -13.529 -23.205  0.00  0.00    +0.125 C 
ATOM     29  C   UNL     1      32.961 -13.769 -20.464  0.00  0.00    +0.164 C 
ATOM     30  C   UNL     1      34.557 -14.201 -22.144  0.00  0.00    +0.164 C 
ATOM     31  C   UNL     1      32.645 -11.289 -23.159  0.00  0.00    +0.226 C 
ENDBRANCH  23  31
ENDBRANCH  22  23
ENDBRANCH  20  22
ENDBRANCH   3  19
TORSDOF 5
ENDMDL
