MODEL 1
REMARK VINA RESULT:     -12.3      0.000      0.000
REMARK  Name = 448889
REMARK  5 active torsions:
REMARK  status: ('A' for Active; 'I' for Inactive)
REMARK    1  A    between atoms: C_1  and  N_2
REMARK    2  A    between atoms: C_1  and  C_16
REMARK    3  A    between atoms: C_6  and  C_10
REMARK    4  A    between atoms: C_16  and  C_17
REMARK    5  A    between atoms: C_17  and  C_21
REMARK                            x       y       z     vdW  Elec       q    Type
REMARK                         _______ _______ _______ _____ _____    ______ ____
ROOT
ATOM      1  C   UNL     1      35.157 -16.036 -24.352  0.00  0.00    -0.076 C 
ENDROOT
BRANCH   1   2
ATOM      2  N   UNL     1      35.337 -17.137 -23.410  0.00  0.00    +0.390 N 
ATOM      3  C   UNL     1      34.398 -18.229 -23.687  0.00  0.00    -0.072 C 
ATOM      4  C   UNL     1      34.722 -19.435 -22.792  0.00  0.00    +0.003 C 
ATOM      5  C   UNL     1      35.192 -16.666 -22.024  0.00  0.00    -0.051 C 
ATOM      6  C   UNL     1      34.912 -19.059 -21.339  0.00  0.00    -0.031 C 
ATOM      7  C   UNL     1      35.126 -17.772 -21.005  0.00  0.00    -0.053 C 
ATOM      8  H   UNL     1      36.284 -17.499 -23.529  0.00  0.00    -0.079 HD
BRANCH   6  10
ATOM      9  F   UNL     1      34.717 -23.139 -17.486  0.00  0.00    -0.204 F 
ATOM     10  C   UNL     1      34.861 -20.136 -20.322  0.00  0.00    -0.004 C 
ATOM     11  C   UNL     1      36.041 -20.616 -19.750  0.00  0.00    +0.002 C 
ATOM     12  C   UNL     1      33.632 -20.673 -19.932  0.00  0.00    +0.002 C 
ATOM     13  C   UNL     1      35.993 -21.630 -18.792  0.00  0.00    +0.030 C 
ATOM     14  C   UNL     1      33.584 -21.686 -18.974  0.00  0.00    +0.030 C 
ATOM     15  C   UNL     1      34.764 -22.165 -18.405  0.00  0.00    +0.140 C 
ENDBRANCH   6  10
ENDBRANCH   1   2
BRANCH   1  16
ATOM     16  C   UNL     1      33.795 -15.371 -24.135  0.00  0.00    -0.014 C 
BRANCH  16  17
ATOM     17  C   UNL     1      33.678 -14.035 -24.851  0.00  0.00    +0.074 C 
BRANCH  17  21
ATOM     18  O   UNL     1      32.638  -9.564 -23.849  0.00  0.00    -0.209 OA
ATOM     19  N   UNL     1      32.960 -13.361 -22.603  0.00  0.00    -0.290 N 
ATOM     20  N   UNL     1      33.147 -11.743 -24.344  0.00  0.00    -0.322 NA
ATOM     21  C   UNL     1      33.234 -12.960 -23.890  0.00  0.00    +0.173 C 
ATOM     22  C   UNL     1      32.545 -12.409 -21.669  0.00  0.00    +0.058 C 
ATOM     23  C   UNL     1      32.422 -11.073 -22.074  0.00  0.00    +0.108 C 
ATOM     24  C   UNL     1      32.249 -12.754 -20.348  0.00  0.00    -0.008 C 
ATOM     25  C   UNL     1      32.742 -10.732 -23.490  0.00  0.00    +0.207 C 
ATOM     26  C   UNL     1      32.008 -10.089 -21.171  0.00  0.00    +0.014 C 
ATOM     27  C   UNL     1      31.837 -11.774 -19.443  0.00  0.00    -0.003 C 
ATOM     28  C   UNL     1      31.718 -10.446 -19.854  0.00  0.00    +0.001 C 
ATOM     29  C   UNL     1      32.364 -14.164 -19.865  0.00  0.00    +0.032 C 
ATOM     30  H   UNL     1      33.054 -14.306 -22.344  0.00  0.00    +0.154 HD
ENDBRANCH  17  21
ENDBRANCH  16  17
ENDBRANCH   1  16
TORSDOF 5
ENDMDL
MODEL 2
REMARK VINA RESULT:     -12.2      1.360      2.488
REMARK  Name = 448889
REMARK  5 active torsions:
REMARK  status: ('A' for Active; 'I' for Inactive)
REMARK    1  A    between atoms: C_1  and  N_2
REMARK    2  A    between atoms: C_1  and  C_16
REMARK    3  A    between atoms: C_6  and  C_10
REMARK    4  A    between atoms: C_16  and  C_17
REMARK    5  A    between atoms: C_17  and  C_21
REMARK                            x       y       z     vdW  Elec       q    Type
REMARK                         _______ _______ _______ _____ _____    ______ ____
ROOT
ATOM      1  C   UNL     1      34.827 -16.098 -24.435  0.00  0.00    -0.076 C 
ENDROOT
BRANCH   1   2
ATOM      2  N   UNL     1      34.582 -17.027 -23.335  0.00  0.00    +0.390 N 
ATOM      3  C   UNL     1      35.572 -16.855 -22.267  0.00  0.00    -0.072 C 
ATOM      4  C   UNL     1      35.191 -17.723 -21.058  0.00  0.00    +0.003 C 
ATOM      5  C   UNL     1      34.574 -18.416 -23.818  0.00  0.00    -0.051 C 
ATOM      6  C   UNL     1      34.846 -19.146 -21.437  0.00  0.00    -0.031 C 
ATOM      7  C   UNL     1      34.566 -19.446 -22.720  0.00  0.00    -0.053 C 
ATOM      8  H   UNL     1      33.662 -16.816 -22.947  0.00  0.00    -0.079 HD
BRANCH   6  10
ATOM      9  F   UNL     1      34.757 -23.034 -17.387  0.00  0.00    -0.204 F 
ATOM     10  C   UNL     1      34.822 -20.173 -20.368  0.00  0.00    -0.004 C 
ATOM     11  C   UNL     1      33.606 -20.700 -19.929  0.00  0.00    +0.002 C 
ATOM     12  C   UNL     1      36.017 -20.617 -19.797  0.00  0.00    +0.002 C 
ATOM     13  C   UNL     1      33.583 -21.666 -18.923  0.00  0.00    +0.030 C 
ATOM     14  C   UNL     1      35.994 -21.583 -18.791  0.00  0.00    +0.030 C 
ATOM     15  C   UNL     1      34.778 -22.107 -18.354  0.00  0.00    +0.140 C 
ENDBRANCH   6  10
ENDBRANCH   1   2
BRANCH   1  16
ATOM     16  C   UNL     1      33.532 -15.376 -24.817  0.00  0.00    -0.014 C 
BRANCH  16  17
ATOM     17  C   UNL     1      33.652 -13.864 -24.704  0.00  0.00    +0.074 C 
BRANCH  17  21
ATOM     18  O   UNL     1      33.086 -14.597 -20.098  0.00  0.00    -0.209 OA
ATOM     19  N   UNL     1      32.745 -12.122 -23.233  0.00  0.00    -0.290 N 
ATOM     20  N   UNL     1      33.364 -14.246 -22.345  0.00  0.00    -0.322 NA
ATOM     21  C   UNL     1      33.234 -13.404 -23.329  0.00  0.00    +0.173 C 
ATOM     22  C   UNL     1      32.342 -11.641 -21.986  0.00  0.00    +0.058 C 
ATOM     23  C   UNL     1      32.450 -12.481 -20.869  0.00  0.00    +0.108 C 
ATOM     24  C   UNL     1      31.839 -10.348 -21.823  0.00  0.00    -0.008 C 
ATOM     25  C   UNL     1      32.992 -13.856 -21.071  0.00  0.00    +0.207 C 
ATOM     26  C   UNL     1      32.060 -12.038 -19.602  0.00  0.00    +0.014 C 
ATOM     27  C   UNL     1      31.448  -9.902 -20.559  0.00  0.00    -0.003 C 
ATOM     28  C   UNL     1      31.557 -10.745 -19.453  0.00  0.00    +0.001 C 
ATOM     29  C   UNL     1      31.704  -9.412 -22.980  0.00  0.00    +0.032 C 
ATOM     30  H   UNL     1      32.680 -11.552 -24.032  0.00  0.00    +0.154 HD
ENDBRANCH  17  21
ENDBRANCH  16  17
ENDBRANCH   1  16
TORSDOF 5
ENDMDL
MODEL 3
REMARK VINA RESULT:     -11.8      4.386      9.794
REMARK  Name = 448889
REMARK  5 active torsions:
REMARK  status: ('A' for Active; 'I' for Inactive)
REMARK    1  A    between atoms: C_1  and  N_2
REMARK    2  A    between atoms: C_1  and  C_16
REMARK    3  A    between atoms: C_6  and  C_10
REMARK    4  A    between atoms: C_16  and  C_17
REMARK    5  A    between atoms: C_17  and  C_21
REMARK                            x       y       z     vdW  Elec       q    Type
REMARK                         _______ _______ _______ _____ _____    ______ ____
ROOT
ATOM      1  C   UNL     1      36.108 -18.278 -22.119  0.00  0.00    -0.076 C 
ENDROOT
BRANCH   1   2
ATOM      2  N   UNL     1      35.705 -16.884 -22.290  0.00  0.00    +0.390 N 
ATOM      3  C   UNL     1      34.973 -16.397 -21.117  0.00  0.00    -0.072 C 
ATOM      4  C   UNL     1      34.710 -14.890 -21.255  0.00  0.00    +0.003 C 
ATOM      5  C   UNL     1      34.897 -16.722 -23.509  0.00  0.00    -0.051 C 
ATOM      6  C   UNL     1      34.148 -14.509 -22.606  0.00  0.00    -0.031 C 
ATOM      7  C   UNL     1      34.242 -15.373 -23.636  0.00  0.00    -0.053 C 
ATOM      8  H   UNL     1      36.551 -16.323 -22.389  0.00  0.00    -0.079 HD
BRANCH   6  10
ATOM      9  F   UNL     1      31.730  -9.472 -23.162  0.00  0.00    -0.204 F 
ATOM     10  C   UNL     1      33.510 -13.180 -22.754  0.00  0.00    -0.004 C 
ATOM     11  C   UNL     1      34.035 -12.245 -23.649  0.00  0.00    +0.002 C 
ATOM     12  C   UNL     1      32.381 -12.857 -21.997  0.00  0.00    +0.002 C 
ATOM     13  C   UNL     1      33.434 -10.994 -23.788  0.00  0.00    +0.030 C 
ATOM     14  C   UNL     1      31.780 -11.606 -22.136  0.00  0.00    +0.030 C 
ATOM     15  C   UNL     1      32.306 -10.674 -23.030  0.00  0.00    +0.140 C 
ENDBRANCH   6  10
ENDBRANCH   1   2
BRANCH   1  16
ATOM     16  C   UNL     1      36.260 -18.605 -20.631  0.00  0.00    -0.014 C 
BRANCH  16  17
ATOM     17  C   UNL     1      36.847 -19.987 -20.395  0.00  0.00    +0.074 C 
BRANCH  17  21
ATOM     18  O   UNL     1      32.694 -22.006 -19.532  0.00  0.00    -0.209 OA
ATOM     19  N   UNL     1      36.451 -21.271 -18.342  0.00  0.00    -0.290 N 
ATOM     20  N   UNL     1      34.718 -21.018 -19.959  0.00  0.00    -0.322 NA
ATOM     21  C   UNL     1      35.928 -20.810 -19.527  0.00  0.00    +0.173 C 
ATOM     22  C   UNL     1      35.646 -22.038 -17.498  0.00  0.00    +0.058 C 
ATOM     23  C   UNL     1      34.327 -22.314 -17.885  0.00  0.00    +0.108 C 
ATOM     24  C   UNL     1      36.120 -22.538 -16.281  0.00  0.00    -0.008 C 
ATOM     25  C   UNL     1      33.848 -21.770 -19.188  0.00  0.00    +0.207 C 
ATOM     26  C   UNL     1      33.489 -23.079 -17.069  0.00  0.00    +0.014 C 
ATOM     27  C   UNL     1      35.285 -23.302 -15.464  0.00  0.00    -0.003 C 
ATOM     28  C   UNL     1      33.974 -23.570 -15.857  0.00  0.00    +0.001 C 
ATOM     29  C   UNL     1      37.517 -22.274 -15.821  0.00  0.00    +0.032 C 
ATOM     30  H   UNL     1      37.380 -21.064 -18.093  0.00  0.00    +0.154 HD
ENDBRANCH  17  21
ENDBRANCH  16  17
ENDBRANCH   1  16
TORSDOF 5
ENDMDL
MODEL 4
REMARK VINA RESULT:     -11.7      2.760      4.825
REMARK  Name = 448889
REMARK  5 active torsions:
REMARK  status: ('A' for Active; 'I' for Inactive)
REMARK    1  A    between atoms: C_1  and  N_2
REMARK    2  A    between atoms: C_1  and  C_16
REMARK    3  A    between atoms: C_6  and  C_10
REMARK    4  A    between atoms: C_16  and  C_17
REMARK    5  A    between atoms: C_17  and  C_21
REMARK                            x       y       z     vdW  Elec       q    Type
REMARK                         _______ _______ _______ _____ _____    ______ ____
ROOT
ATOM      1  C   UNL     1      34.546 -19.880 -21.200  0.00  0.00    -0.076 C 
ENDROOT
BRANCH   1   2
ATOM      2  N   UNL     1      34.786 -20.374 -19.846  0.00  0.00    +0.390 N 
ATOM      3  C   UNL     1      36.138 -20.926 -19.716  0.00  0.00    -0.072 C 
ATOM      4  C   UNL     1      36.417 -21.282 -18.248  0.00  0.00    +0.003 C 
ATOM      5  C   UNL     1      33.777 -21.378 -19.472  0.00  0.00    -0.051 C 
ATOM      6  C   UNL     1      35.300 -22.077 -17.610  0.00  0.00    -0.031 C 
ATOM      7  C   UNL     1      34.086 -22.110 -18.194  0.00  0.00    -0.053 C 
ATOM      8  H   UNL     1      34.705 -19.585 -19.206  0.00  0.00    -0.079 HD
BRANCH   6  10
ATOM      9  F   UNL     1      36.367 -24.795 -12.814  0.00  0.00    -0.204 F 
ATOM     10  C   UNL     1      35.581 -22.795 -16.344  0.00  0.00    -0.004 C 
ATOM     11  C   UNL     1      34.578 -23.544 -15.725  0.00  0.00    +0.002 C 
ATOM     12  C   UNL     1      36.850 -22.724 -15.766  0.00  0.00    +0.002 C 
ATOM     13  C   UNL     1      34.843 -24.221 -14.534  0.00  0.00    +0.030 C 
ATOM     14  C   UNL     1      37.115 -23.400 -14.575  0.00  0.00    +0.030 C 
ATOM     15  C   UNL     1      36.112 -24.147 -13.958  0.00  0.00    +0.140 C 
ENDBRANCH   6  10
ENDBRANCH   1   2
BRANCH   1  16
ATOM     16  C   UNL     1      35.542 -18.768 -21.540  0.00  0.00    -0.014 C 
BRANCH  16  17
ATOM     17  C   UNL     1      35.615 -18.487 -23.033  0.00  0.00    +0.074 C 
BRANCH  17  21
ATOM     18  O   UNL     1      33.376 -15.623 -26.008  0.00  0.00    -0.209 OA
ATOM     19  N   UNL     1      34.871 -16.253 -22.342  0.00  0.00    -0.290 N 
ATOM     20  N   UNL     1      34.469 -17.025 -24.562  0.00  0.00    -0.322 NA
ATOM     21  C   UNL     1      34.936 -17.179 -23.357  0.00  0.00    +0.173 C 
ATOM     22  C   UNL     1      34.255 -15.024 -22.585  0.00  0.00    +0.058 C 
ATOM     23  C   UNL     1      33.720 -14.773 -23.856  0.00  0.00    +0.108 C 
ATOM     24  C   UNL     1      34.155 -14.043 -21.594  0.00  0.00    -0.008 C 
ATOM     25  C   UNL     1      33.839 -15.838 -24.893  0.00  0.00    +0.207 C 
ATOM     26  C   UNL     1      33.094 -13.556 -24.139  0.00  0.00    +0.014 C 
ATOM     27  C   UNL     1      33.530 -12.826 -21.874  0.00  0.00    -0.003 C 
ATOM     28  C   UNL     1      33.002 -12.584 -23.143  0.00  0.00    +0.001 C 
ATOM     29  C   UNL     1      34.707 -14.259 -20.223  0.00  0.00    +0.032 C 
ATOM     30  H   UNL     1      35.254 -16.454 -21.459  0.00  0.00    +0.154 HD
ENDBRANCH  17  21
ENDBRANCH  16  17
ENDBRANCH   1  16
TORSDOF 5
ENDMDL
MODEL 5
REMARK VINA RESULT:     -11.5      2.137      3.413
REMARK  Name = 448889
REMARK  5 active torsions:
REMARK  status: ('A' for Active; 'I' for Inactive)
REMARK    1  A    between atoms: C_1  and  N_2
REMARK    2  A    between atoms: C_1  and  C_16
REMARK    3  A    between atoms: C_6  and  C_10
REMARK    4  A    between atoms: C_16  and  C_17
REMARK    5  A    between atoms: C_17  and  C_21
REMARK                            x       y       z     vdW  Elec       q    Type
REMARK                         _______ _______ _______ _____ _____    ______ ____
ROOT
ATOM      1  C   UNL     1      33.975 -14.304 -24.437  0.00  0.00    -0.076 C 
ENDROOT
BRANCH   1   2
ATOM      2  N   UNL     1      34.096 -15.447 -23.535  0.00  0.00    +0.390 N 
ATOM      3  C   UNL     1      34.923 -15.116 -22.371  0.00  0.00    -0.072 C 
ATOM      4  C   UNL     1      34.894 -16.276 -21.364  0.00  0.00    +0.003 C 
ATOM      5  C   UNL     1      34.642 -16.614 -24.245  0.00  0.00    -0.051 C 
ATOM      6  C   UNL     1      35.141 -17.623 -22.007  0.00  0.00    -0.031 C 
ATOM      7  C   UNL     1      35.021 -17.757 -23.342  0.00  0.00    -0.053 C 
ATOM      8  H   UNL     1      33.162 -15.682 -23.201  0.00  0.00    -0.079 HD
BRANCH   6  10
ATOM      9  F   UNL     1      36.515 -21.946 -18.698  0.00  0.00    -0.204 F 
ATOM     10  C   UNL     1      35.504 -18.763 -21.133  0.00  0.00    -0.004 C 
ATOM     11  C   UNL     1      36.826 -18.937 -20.720  0.00  0.00    +0.002 C 
ATOM     12  C   UNL     1      34.524 -19.668 -20.720  0.00  0.00    +0.002 C 
ATOM     13  C   UNL     1      37.168 -20.011 -19.897  0.00  0.00    +0.030 C 
ATOM     14  C   UNL     1      34.865 -20.742 -19.897  0.00  0.00    +0.030 C 
ATOM     15  C   UNL     1      36.187 -20.914 -19.486  0.00  0.00    +0.140 C 
ENDBRANCH   6  10
ENDBRANCH   1   2
BRANCH   1  16
ATOM     16  C   UNL     1      33.188 -13.178 -23.761  0.00  0.00    -0.014 C 
BRANCH  16  17
ATOM     17  C   UNL     1      33.702 -11.798 -24.141  0.00  0.00    +0.074 C 
BRANCH  17  21
ATOM     18  O   UNL     1      30.888 -10.482 -20.617  0.00  0.00    -0.209 OA
ATOM     19  N   UNL     1      33.676  -9.486 -23.320  0.00  0.00    -0.290 N 
ATOM     20  N   UNL     1      32.258 -11.130 -22.336  0.00  0.00    -0.322 NA
ATOM     21  C   UNL     1      33.162 -10.755 -23.194  0.00  0.00    +0.173 C 
ATOM     22  C   UNL     1      33.214  -8.479 -22.470  0.00  0.00    +0.058 C 
ATOM     23  C   UNL     1      32.240  -8.795 -21.513  0.00  0.00    +0.108 C 
ATOM     24  C   UNL     1      33.698  -7.170 -22.547  0.00  0.00    -0.008 C 
ATOM     25  C   UNL     1      31.742 -10.200 -21.450  0.00  0.00    +0.207 C 
ATOM     26  C   UNL     1      31.752  -7.817 -20.641  0.00  0.00    +0.014 C 
ATOM     27  C   UNL     1      33.212  -6.191 -21.679  0.00  0.00    -0.003 C 
ATOM     28  C   UNL     1      32.242  -6.514 -20.730  0.00  0.00    +0.001 C 
ATOM     29  C   UNL     1      34.736  -6.781 -23.549  0.00  0.00    +0.032 C 
ATOM     30  H   UNL     1      34.359  -9.290 -24.000  0.00  0.00    +0.154 HD
ENDBRANCH  17  21
ENDBRANCH  16  17
ENDBRANCH   1  16
TORSDOF 5
ENDMDL
MODEL 6
REMARK VINA RESULT:     -11.4      2.810      4.942
REMARK  Name = 448889
REMARK  5 active torsions:
REMARK  status: ('A' for Active; 'I' for Inactive)
REMARK    1  A    between atoms: C_1  and  N_2
REMARK    2  A    between atoms: C_1  and  C_16
REMARK    3  A    between atoms: C_6  and  C_10
REMARK    4  A    between atoms: C_16  and  C_17
REMARK    5  A    between atoms: C_17  and  C_21
REMARK                            x       y       z     vdW  Elec       q    Type
REMARK                         _______ _______ _______ _____ _____    ______ ____
ROOT
ATOM      1  C   UNL     1      35.994 -19.998 -20.847  0.00  0.00    -0.076 C 
ENDROOT
BRANCH   1   2
ATOM      2  N   UNL     1      35.360 -20.510 -19.635  0.00  0.00    +0.390 N 
ATOM      3  C   UNL     1      36.137 -21.610 -19.055  0.00  0.00    -0.072 C 
ATOM      4  C   UNL     1      35.539 -22.013 -17.699  0.00  0.00    +0.003 C 
ATOM      5  C   UNL     1      33.979 -20.938 -19.910  0.00  0.00    -0.051 C 
ATOM      6  C   UNL     1      34.038 -22.197 -17.745  0.00  0.00    -0.031 C 
ATOM      7  C   UNL     1      33.336 -21.694 -18.779  0.00  0.00    -0.053 C 
ATOM      8  H   UNL     1      35.332 -19.752 -18.953  0.00  0.00    -0.079 HD
BRANCH   6  10
ATOM      9  F   UNL     1      31.564 -24.969 -13.536  0.00  0.00    -0.204 F 
ATOM     10  C   UNL     1      33.385 -22.929 -16.635  0.00  0.00    -0.004 C 
ATOM     11  C   UNL     1      31.992 -22.999 -16.565  0.00  0.00    +0.002 C 
ATOM     12  C   UNL     1      34.160 -23.552 -15.655  0.00  0.00    +0.002 C 
ATOM     13  C   UNL     1      31.376 -23.688 -15.519  0.00  0.00    +0.030 C 
ATOM     14  C   UNL     1      33.545 -24.241 -14.609  0.00  0.00    +0.030 C 
ATOM     15  C   UNL     1      32.154 -24.309 -14.541  0.00  0.00    +0.140 C 
ENDBRANCH   6  10
ENDBRANCH   1   2
BRANCH   1  16
ATOM     16  C   UNL     1      34.960 -19.294 -21.728  0.00  0.00    -0.014 C 
BRANCH  16  17
ATOM     17  C   UNL     1      35.574 -18.691 -22.982  0.00  0.00    +0.074 C 
BRANCH  17  21
ATOM     18  O   UNL     1      33.357 -15.792 -25.940  0.00  0.00    -0.209 OA
ATOM     19  N   UNL     1      34.902 -16.433 -22.296  0.00  0.00    -0.290 N 
ATOM     20  N   UNL     1      34.439 -17.211 -24.502  0.00  0.00    -0.322 NA
ATOM     21  C   UNL     1      34.925 -17.369 -23.304  0.00  0.00    +0.173 C 
ATOM     22  C   UNL     1      34.313 -15.190 -22.537  0.00  0.00    +0.058 C 
ATOM     23  C   UNL     1      33.763 -14.935 -23.801  0.00  0.00    +0.108 C 
ATOM     24  C   UNL     1      34.257 -14.199 -21.554  0.00  0.00    -0.008 C 
ATOM     25  C   UNL     1      33.834 -16.011 -24.831  0.00  0.00    +0.207 C 
ATOM     26  C   UNL     1      33.163 -13.704 -24.082  0.00  0.00    +0.014 C 
ATOM     27  C   UNL     1      33.659 -12.968 -21.832  0.00  0.00    -0.003 C 
ATOM     28  C   UNL     1      33.115 -12.722 -23.093  0.00  0.00    +0.001 C 
ATOM     29  C   UNL     1      34.828 -14.420 -20.191  0.00  0.00    +0.032 C 
ATOM     30  H   UNL     1      35.296 -16.637 -21.418  0.00  0.00    +0.154 HD
ENDBRANCH  17  21
ENDBRANCH  16  17
ENDBRANCH   1  16
TORSDOF 5
ENDMDL
MODEL 7
REMARK VINA RESULT:     -11.4      5.916     10.858
REMARK  Name = 448889
REMARK  5 active torsions:
REMARK  status: ('A' for Active; 'I' for Inactive)
REMARK    1  A    between atoms: C_1  and  N_2
REMARK    2  A    between atoms: C_1  and  C_16
REMARK    3  A    between atoms: C_6  and  C_10
REMARK    4  A    between atoms: C_16  and  C_17
REMARK    5  A    between atoms: C_17  and  C_21
REMARK                            x       y       z     vdW  Elec       q    Type
REMARK                         _______ _______ _______ _____ _____    ______ ____
ROOT
ATOM      1  C   UNL     1      36.555 -21.657 -18.280  0.00  0.00    -0.076 C 
ENDROOT
BRANCH   1   2
ATOM      2  N   UNL     1      36.102 -20.536 -19.100  0.00  0.00    +0.390 N 
ATOM      3  C   UNL     1      35.049 -20.954 -20.031  0.00  0.00    -0.072 C 
ATOM      4  C   UNL     1      34.478 -19.726 -20.757  0.00  0.00    +0.003 C 
ATOM      5  C   UNL     1      37.230 -19.933 -19.827  0.00  0.00    -0.051 C 
ATOM      6  C   UNL     1      35.551 -18.817 -21.314  0.00  0.00    -0.031 C 
ATOM      7  C   UNL     1      36.819 -18.931 -20.872  0.00  0.00    -0.053 C 
ATOM      8  H   UNL     1      35.708 -19.832 -18.476  0.00  0.00    -0.079 HD
BRANCH   6  10
ATOM      9  F   UNL     1      34.083 -15.025 -25.185  0.00  0.00    -0.204 F 
ATOM     10  C   UNL     1      35.164 -17.815 -22.336  0.00  0.00    -0.004 C 
ATOM     11  C   UNL     1      35.263 -16.451 -22.054  0.00  0.00    +0.002 C 
ATOM     12  C   UNL     1      34.699 -18.233 -23.584  0.00  0.00    +0.002 C 
ATOM     13  C   UNL     1      34.899 -15.509 -23.015  0.00  0.00    +0.030 C 
ATOM     14  C   UNL     1      34.335 -17.291 -24.546  0.00  0.00    +0.030 C 
ATOM     15  C   UNL     1      34.434 -15.929 -24.262  0.00  0.00    +0.140 C 
ENDBRANCH   6  10
ENDBRANCH   1   2
BRANCH   1  16
ATOM     16  C   UNL     1      36.768 -21.203 -16.834  0.00  0.00    -0.014 C 
BRANCH  16  17
ATOM     17  C   UNL     1      37.263 -22.326 -15.936  0.00  0.00    +0.074 C 
BRANCH  17  21
ATOM     18  O   UNL     1      35.517 -24.671 -12.259  0.00  0.00    -0.209 OA
ATOM     19  N   UNL     1      34.870 -22.843 -15.767  0.00  0.00    -0.290 N 
ATOM     20  N   UNL     1      36.375 -23.528 -14.050  0.00  0.00    -0.322 NA
ATOM     21  C   UNL     1      36.111 -22.946 -15.184  0.00  0.00    +0.173 C 
ATOM     22  C   UNL     1      33.766 -23.398 -15.116  0.00  0.00    +0.058 C 
ATOM     23  C   UNL     1      33.959 -24.043 -13.887  0.00  0.00    +0.108 C 
ATOM     24  C   UNL     1      32.479 -23.324 -15.656  0.00  0.00    -0.008 C 
ATOM     25  C   UNL     1      35.342 -24.106 -13.333  0.00  0.00    +0.207 C 
ATOM     26  C   UNL     1      32.880 -24.610 -13.203  0.00  0.00    +0.014 C 
ATOM     27  C   UNL     1      31.400 -23.890 -14.975  0.00  0.00    -0.003 C 
ATOM     28  C   UNL     1      31.601 -24.532 -13.753  0.00  0.00    +0.001 C 
ATOM     29  C   UNL     1      32.219 -22.647 -16.963  0.00  0.00    +0.032 C 
ATOM     30  H   UNL     1      34.761 -22.384 -16.631  0.00  0.00    +0.154 HD
ENDBRANCH  17  21
ENDBRANCH  16  17
ENDBRANCH   1  16
TORSDOF 5
ENDMDL
MODEL 8
REMARK VINA RESULT:     -11.2      6.105     11.593
REMARK  Name = 448889
REMARK  5 active torsions:
REMARK  status: ('A' for Active; 'I' for Inactive)
REMARK    1  A    between atoms: C_1  and  N_2
REMARK    2  A    between atoms: C_1  and  C_16
REMARK    3  A    between atoms: C_6  and  C_10
REMARK    4  A    between atoms: C_16  and  C_17
REMARK    5  A    between atoms: C_17  and  C_21
REMARK                            x       y       z     vdW  Elec       q    Type
REMARK                         _______ _______ _______ _____ _____    ______ ____
ROOT
ATOM      1  C   UNL     1      36.626 -21.440 -19.272  0.00  0.00    -0.076 C 
ENDROOT
BRANCH   1   2
ATOM      2  N   UNL     1      36.113 -20.205 -19.860  0.00  0.00    +0.390 N 
ATOM      3  C   UNL     1      35.040 -20.482 -20.819  0.00  0.00    -0.072 C 
ATOM      4  C   UNL     1      34.410 -19.163 -21.292  0.00  0.00    +0.003 C 
ATOM      5  C   UNL     1      37.197 -19.443 -20.499  0.00  0.00    -0.051 C 
ATOM      6  C   UNL     1      35.436 -18.133 -21.707  0.00  0.00    -0.031 C 
ATOM      7  C   UNL     1      36.721 -18.282 -21.331  0.00  0.00    -0.053 C 
ATOM      8  H   UNL     1      35.722 -19.639 -19.106  0.00  0.00    -0.079 HD
BRANCH   6  10
ATOM      9  F   UNL     1      33.727 -13.755 -24.778  0.00  0.00    -0.204 F 
ATOM     10  C   UNL     1      34.986 -16.977 -22.517  0.00  0.00    -0.004 C 
ATOM     11  C   UNL     1      34.877 -15.712 -21.935  0.00  0.00    +0.002 C 
ATOM     12  C   UNL     1      34.668 -17.149 -23.866  0.00  0.00    +0.002 C 
ATOM     13  C   UNL     1      34.453 -14.624 -22.698  0.00  0.00    +0.030 C 
ATOM     14  C   UNL     1      34.244 -16.061 -24.629  0.00  0.00    +0.030 C 
ATOM     15  C   UNL     1      34.135 -14.799 -24.045  0.00  0.00    +0.140 C 
ENDBRANCH   6  10
ENDBRANCH   1   2
BRANCH   1  16
ATOM     16  C   UNL     1      36.060 -21.630 -17.862  0.00  0.00    -0.014 C 
BRANCH  16  17
ATOM     17  C   UNL     1      37.128 -21.519 -16.785  0.00  0.00    +0.074 C 
BRANCH  17  21
ATOM     18  O   UNL     1      34.343 -23.525 -13.578  0.00  0.00    -0.209 OA
ATOM     19  N   UNL     1      37.931 -23.346 -15.357  0.00  0.00    -0.290 N 
ATOM     20  N   UNL     1      35.696 -22.542 -15.144  0.00  0.00    -0.322 NA
ATOM     21  C   UNL     1      36.878 -22.526 -15.690  0.00  0.00    +0.173 C 
ATOM     22  C   UNL     1      37.757 -24.297 -14.349  0.00  0.00    +0.058 C 
ATOM     23  C   UNL     1      36.514 -24.386 -13.708  0.00  0.00    +0.108 C 
ATOM     24  C   UNL     1      38.788 -25.161 -13.967  0.00  0.00    -0.008 C 
ATOM     25  C   UNL     1      35.432 -23.454 -14.137  0.00  0.00    +0.207 C 
ATOM     26  C   UNL     1      36.299 -25.326 -12.696  0.00  0.00    +0.014 C 
ATOM     27  C   UNL     1      38.576 -26.100 -12.956  0.00  0.00    -0.003 C 
ATOM     28  C   UNL     1      37.336 -26.181 -12.322  0.00  0.00    +0.001 C 
ATOM     29  C   UNL     1      40.132 -25.108 -14.619  0.00  0.00    +0.032 C 
ATOM     30  H   UNL     1      38.794 -23.263 -15.822  0.00  0.00    +0.154 HD
ENDBRANCH  17  21
ENDBRANCH  16  17
ENDBRANCH   1  16
TORSDOF 5
ENDMDL
MODEL 9
REMARK VINA RESULT:     -11.2      1.560      2.469
REMARK  Name = 448889
REMARK  5 active torsions:
REMARK  status: ('A' for Active; 'I' for Inactive)
REMARK    1  A    between atoms: C_1  and  N_2
REMARK    2  A    between atoms: C_1  and  C_16
REMARK    3  A    between atoms: C_6  and  C_10
REMARK    4  A    between atoms: C_16  and  C_17
REMARK    5  A    between atoms: C_17  and  C_21
REMARK                            x       y       z     vdW  Elec       q    Type
REMARK                         _______ _______ _______ _____ _____    ______ ____
ROOT
ATOM      1  C   UNL     1      33.908 -14.485 -24.550  0.00  0.00    -0.076 C 
ENDROOT
BRANCH   1   2
ATOM      2  N   UNL     1      34.058 -15.589 -23.604  0.00  0.00    +0.390 N 
ATOM      3  C   UNL     1      34.946 -15.220 -22.497  0.00  0.00    -0.072 C 
ATOM      4  C   UNL     1      34.950 -16.334 -21.439  0.00  0.00    +0.003 C 
ATOM      5  C   UNL     1      34.551 -16.796 -24.286  0.00  0.00    -0.051 C 
ATOM      6  C   UNL     1      35.146 -17.712 -22.031  0.00  0.00    -0.031 C 
ATOM      7  C   UNL     1      34.959 -17.904 -23.352  0.00  0.00    -0.053 C 
ATOM      8  H   UNL     1      33.138 -15.794 -23.214  0.00  0.00    -0.079 HD
BRANCH   6  10
ATOM      9  F   UNL     1      36.620 -21.906 -18.602  0.00  0.00    -0.204 F 
ATOM     10  C   UNL     1      35.536 -18.818 -21.126  0.00  0.00    -0.004 C 
ATOM     11  C   UNL     1      36.859 -18.942 -20.698  0.00  0.00    +0.002 C 
ATOM     12  C   UNL     1      34.579 -19.742 -20.697  0.00  0.00    +0.002 C 
ATOM     13  C   UNL     1      37.226 -19.983 -19.846  0.00  0.00    +0.030 C 
ATOM     14  C   UNL     1      34.946 -20.783 -19.845  0.00  0.00    +0.030 C 
ATOM     15  C   UNL     1      36.269 -20.905 -19.420  0.00  0.00    +0.140 C 
ENDBRANCH   6  10
ENDBRANCH   1   2
BRANCH   1  16
ATOM     16  C   UNL     1      33.883 -13.149 -23.803  0.00  0.00    -0.014 C 
BRANCH  16  17
ATOM     17  C   UNL     1      32.511 -12.828 -23.230  0.00  0.00    +0.074 C 
BRANCH  17  21
ATOM     18  O   UNL     1      32.739  -8.228 -24.158  0.00  0.00    -0.209 OA
ATOM     19  N   UNL     1      32.196 -11.150 -21.468  0.00  0.00    -0.290 N 
ATOM     20  N   UNL     1      32.629 -10.473 -23.712  0.00  0.00    -0.322 NA
ATOM     21  C   UNL     1      32.445 -11.383 -22.800  0.00  0.00    +0.173 C 
ATOM     22  C   UNL     1      32.124  -9.832 -21.012  0.00  0.00    +0.058 C 
ATOM     23  C   UNL     1      32.308  -8.787 -21.927  0.00  0.00    +0.108 C 
ATOM     24  C   UNL     1      31.871  -9.530 -19.670  0.00  0.00    -0.008 C 
ATOM     25  C   UNL     1      32.574  -9.138 -23.352  0.00  0.00    +0.207 C 
ATOM     26  C   UNL     1      32.242  -7.455 -21.512  0.00  0.00    +0.014 C 
ATOM     27  C   UNL     1      31.805  -8.200 -19.252  0.00  0.00    -0.003 C 
ATOM     28  C   UNL     1      31.991  -7.166 -20.170  0.00  0.00    +0.001 C 
ATOM     29  C   UNL     1      31.667 -10.606 -18.654  0.00  0.00    +0.032 C 
ATOM     30  H   UNL     1      32.070 -11.901 -20.845  0.00  0.00    +0.154 HD
ENDBRANCH  17  21
ENDBRANCH  16  17
ENDBRANCH   1  16
TORSDOF 5
ENDMDL
