MODEL 1
REMARK VINA RESULT:     -10.9      0.000      0.000
REMARK  Name = 5287492
REMARK  6 active torsions:
REMARK  status: ('A' for Active; 'I' for Inactive)
REMARK    1  A    between atoms: N_2  and  C_12
REMARK    2  A    between atoms: C_8  and  C_24
REMARK    3  A    between atoms: C_12  and  C_15
REMARK    4  A    between atoms: C_15  and  C_17
REMARK    5  A    between atoms: C_24  and  C_25
REMARK    6  A    between atoms: C_26  and  N_31
REMARK                            x       y       z     vdW  Elec       q    Type
REMARK                         _______ _______ _______ _____ _____    ______ ____
ROOT
ATOM      1  O   UNL     1      35.004 -14.325 -23.183  0.00  0.00    -0.446 OA
ATOM      2  N   UNL     1      31.624 -12.234 -20.768  0.00  0.00    -0.312 N 
ATOM      3  N   UNL     1      32.470 -11.171 -22.738  0.00  0.00    -0.227 NA
ATOM      4  N   UNL     1      33.629 -14.422 -21.384  0.00  0.00    -0.369 NA
ATOM      5  C   UNL     1      32.484 -12.218 -21.854  0.00  0.00    +0.158 C 
ATOM      6  C   UNL     1      33.390 -13.264 -22.083  0.00  0.00    +0.187 C 
ATOM      7  C   UNL     1      34.229 -13.200 -23.184  0.00  0.00    +0.246 C 
ATOM      8  C   UNL     1      34.584 -15.001 -22.077  0.00  0.00    +0.257 C 
ATOM      9  C   UNL     1      34.245 -12.163 -24.098  0.00  0.00    +0.045 C 
ATOM     10  C   UNL     1      33.320 -11.171 -23.799  0.00  0.00    +0.100 C 
ATOM     11  H   UNL     1      31.666 -13.004 -20.155  0.00  0.00    +0.148 HD
ENDROOT
BRANCH   2  12
ATOM     12  C   UNL     1      30.673 -11.186 -20.483  0.00  0.00    +0.153 C 
BRANCH  12  15
ATOM     13  F   UNL     1      32.392 -10.777 -18.927  0.00  0.00    -0.205 F 
ATOM     14  F   UNL     1      30.360 -10.232 -18.353  0.00  0.00    -0.205 F 
ATOM     15  C   UNL     1      31.221 -10.286 -19.395  0.00  0.00    +0.265 C 
BRANCH  15  17
ATOM     16  N   UNL     1      31.424  -8.848 -21.358  0.00  0.00    +0.389 N 
ATOM     17  C   UNL     1      31.464  -8.861 -19.890  0.00  0.00    +0.003 C 
ATOM     18  C   UNL     1      32.813  -8.337 -19.378  0.00  0.00    -0.016 C 
ATOM     19  C   UNL     1      33.109  -6.944 -19.928  0.00  0.00    -0.004 C 
ATOM     20  C   UNL     1      32.979  -6.929 -21.446  0.00  0.00    -0.023 C 
ATOM     21  C   UNL     1      31.636  -7.504 -21.892  0.00  0.00    -0.081 C 
ATOM     22  H   UNL     1      30.513  -9.187 -21.667  0.00  0.00    -0.084 HD
ATOM     23  H   UNL     1      32.173  -9.449 -21.702  0.00  0.00    -0.084 HD
ENDBRANCH  15  17
ENDBRANCH  12  15
ENDBRANCH   2  12
BRANCH   8  24
ATOM     24  C   UNL     1      35.257 -16.281 -21.813  0.00  0.00    +0.127 C 
BRANCH  24  25
ATOM     25  C   UNL     1      34.886 -17.394 -22.788  0.00  0.00    +0.004 C 
ATOM     26  C   UNL     1      35.237 -18.700 -22.518  0.00  0.00    +0.072 C 
ATOM     27  C   UNL     1      34.196 -17.039 -23.929  0.00  0.00    -0.002 C 
ATOM     28  C   UNL     1      34.883 -19.696 -23.429  0.00  0.00    +0.016 C 
ATOM     29  C   UNL     1      33.842 -18.035 -24.840  0.00  0.00    -0.000 C 
ATOM     30  C   UNL     1      34.185 -19.363 -24.590  0.00  0.00    +0.001 C 
BRANCH  26  31
ATOM     31  N   UNL     1      35.929 -19.053 -21.371  0.00  0.00    -0.169 N 
ATOM     32  N   UNL     1      35.369 -19.799 -20.404  0.00  0.00    -0.150 NA
ATOM     33  N   UNL     1      37.525 -19.238 -19.883  0.00  0.00    -0.203 NA
ATOM     34  C   UNL     1      37.213 -18.725 -21.050  0.00  0.00    +0.190 C 
ATOM     35  C   UNL     1      36.374 -19.882 -19.528  0.00  0.00    +0.219 C 
ENDBRANCH  26  31
ENDBRANCH  24  25
ENDBRANCH   8  24
TORSDOF 6
ENDMDL
MODEL 2
REMARK VINA RESULT:     -10.9      7.272     11.952
REMARK  Name = 5287492
REMARK  6 active torsions:
REMARK  status: ('A' for Active; 'I' for Inactive)
REMARK    1  A    between atoms: N_2  and  C_12
REMARK    2  A    between atoms: C_8  and  C_24
REMARK    3  A    between atoms: C_12  and  C_15
REMARK    4  A    between atoms: C_15  and  C_17
REMARK    5  A    between atoms: C_24  and  C_25
REMARK    6  A    between atoms: C_26  and  N_31
REMARK                            x       y       z     vdW  Elec       q    Type
REMARK                         _______ _______ _______ _____ _____    ______ ____
ROOT
ATOM      1  O   UNL     1      33.591 -24.650 -14.382  0.00  0.00    -0.446 OA
ATOM      2  N   UNL     1      34.357 -22.283 -18.311  0.00  0.00    -0.312 N 
ATOM      3  N   UNL     1      32.143 -22.342 -17.405  0.00  0.00    -0.227 NA
ATOM      4  N   UNL     1      35.111 -24.006 -15.935  0.00  0.00    -0.369 NA
ATOM      5  C   UNL     1      33.463 -22.700 -17.338  0.00  0.00    +0.158 C 
ATOM      6  C   UNL     1      33.878 -23.499 -16.262  0.00  0.00    +0.187 C 
ATOM      7  C   UNL     1      32.944 -23.891 -15.315  0.00  0.00    +0.246 C 
ATOM      8  C   UNL     1      34.880 -24.671 -14.825  0.00  0.00    +0.257 C 
ATOM      9  C   UNL     1      31.605 -23.550 -15.347  0.00  0.00    +0.045 C 
ATOM     10  C   UNL     1      31.279 -22.760 -16.442  0.00  0.00    +0.100 C 
ATOM     11  H   UNL     1      35.297 -22.563 -18.228  0.00  0.00    +0.148 HD
ENDROOT
BRANCH   2  12
ATOM     12  C   UNL     1      33.987 -21.462 -19.440  0.00  0.00    +0.153 C 
BRANCH  12  15
ATOM     13  F   UNL     1      35.933 -21.648 -20.752  0.00  0.00    -0.205 F 
ATOM     14  F   UNL     1      36.023 -20.367 -18.989  0.00  0.00    -0.205 F 
ATOM     15  C   UNL     1      35.220 -20.781 -19.997  0.00  0.00    +0.265 C 
BRANCH  15  17
ATOM     16  N   UNL     1      34.702 -20.002 -22.252  0.00  0.00    +0.389 N 
ATOM     17  C   UNL     1      34.872 -19.569 -20.860  0.00  0.00    +0.003 C 
ATOM     18  C   UNL     1      35.969 -18.500 -20.753  0.00  0.00    -0.016 C 
ATOM     19  C   UNL     1      35.678 -17.316 -21.670  0.00  0.00    -0.004 C 
ATOM     20  C   UNL     1      35.419 -17.792 -23.094  0.00  0.00    -0.023 C 
ATOM     21  C   UNL     1      34.352 -18.884 -23.127  0.00  0.00    -0.081 C 
ATOM     22  H   UNL     1      33.958 -20.700 -22.293  0.00  0.00    -0.084 HD
ATOM     23  H   UNL     1      35.587 -20.393 -22.574  0.00  0.00    -0.084 HD
ENDBRANCH  15  17
ENDBRANCH  12  15
ENDBRANCH   2  12
BRANCH   8  24
ATOM     24  C   UNL     1      35.830 -25.433 -14.001  0.00  0.00    +0.127 C 
BRANCH  24  25
ATOM     25  C   UNL     1      36.301 -24.698 -12.751  0.00  0.00    +0.004 C 
ATOM     26  C   UNL     1      37.649 -24.549 -12.499  0.00  0.00    +0.072 C 
ATOM     27  C   UNL     1      35.335 -24.199 -11.901  0.00  0.00    -0.002 C 
ATOM     28  C   UNL     1      38.050 -23.871 -11.347  0.00  0.00    +0.016 C 
ATOM     29  C   UNL     1      35.736 -23.521 -10.749  0.00  0.00    -0.000 C 
ATOM     30  C   UNL     1      37.093 -23.357 -10.472  0.00  0.00    +0.001 C 
BRANCH  26  31
ATOM     31  N   UNL     1      38.616 -25.051 -13.354  0.00  0.00    -0.169 N 
ATOM     32  N   UNL     1      39.137 -24.314 -14.350  0.00  0.00    -0.150 NA
ATOM     33  N   UNL     1      40.051 -26.410 -14.297  0.00  0.00    -0.203 NA
ATOM     34  C   UNL     1      39.168 -26.298 -13.333  0.00  0.00    +0.190 C 
ATOM     35  C   UNL     1      39.998 -25.180 -14.889  0.00  0.00    +0.219 C 
ENDBRANCH  26  31
ENDBRANCH  24  25
ENDBRANCH   8  24
TORSDOF 6
ENDMDL
MODEL 3
REMARK VINA RESULT:     -10.8     10.521     12.955
REMARK  Name = 5287492
REMARK  6 active torsions:
REMARK  status: ('A' for Active; 'I' for Inactive)
REMARK    1  A    between atoms: N_2  and  C_12
REMARK    2  A    between atoms: C_8  and  C_24
REMARK    3  A    between atoms: C_12  and  C_15
REMARK    4  A    between atoms: C_15  and  C_17
REMARK    5  A    between atoms: C_24  and  C_25
REMARK    6  A    between atoms: C_26  and  N_31
REMARK                            x       y       z     vdW  Elec       q    Type
REMARK                         _______ _______ _______ _____ _____    ______ ____
ROOT
ATOM      1  O   UNL     1      36.510 -22.297 -16.188  0.00  0.00    -0.446 OA
ATOM      2  N   UNL     1      32.102 -23.694 -15.701  0.00  0.00    -0.312 N 
ATOM      3  N   UNL     1      32.837 -22.895 -17.834  0.00  0.00    -0.227 NA
ATOM      4  N   UNL     1      34.936 -23.133 -14.788  0.00  0.00    -0.369 NA
ATOM      5  C   UNL     1      33.096 -23.184 -16.520  0.00  0.00    +0.158 C 
ATOM      6  C   UNL     1      34.390 -22.946 -16.034  0.00  0.00    +0.187 C 
ATOM      7  C   UNL     1      35.350 -22.434 -16.894  0.00  0.00    +0.246 C 
ATOM      8  C   UNL     1      36.180 -22.735 -14.941  0.00  0.00    +0.257 C 
ATOM      9  C   UNL     1      35.128 -22.131 -18.225  0.00  0.00    +0.045 C 
ATOM     10  C   UNL     1      33.824 -22.395 -18.624  0.00  0.00    +0.100 C 
ATOM     11  H   UNL     1      32.328 -23.887 -14.763  0.00  0.00    +0.148 HD
ENDROOT
BRANCH   2  12
ATOM     12  C   UNL     1      30.753 -23.957 -16.146  0.00  0.00    +0.153 C 
BRANCH  12  15
ATOM     13  F   UNL     1      30.177 -22.531 -14.364  0.00  0.00    -0.205 F 
ATOM     14  F   UNL     1      29.743 -24.655 -14.137  0.00  0.00    -0.205 F 
ATOM     15  C   UNL     1      29.780 -23.640 -15.030  0.00  0.00    +0.265 C 
BRANCH  15  17
ATOM     16  N   UNL     1      28.424 -23.001 -16.957  0.00  0.00    +0.389 N 
ATOM     17  C   UNL     1      28.362 -23.405 -15.548  0.00  0.00    +0.003 C 
ATOM     18  C   UNL     1      27.652 -22.335 -14.706  0.00  0.00    -0.016 C 
ATOM     19  C   UNL     1      26.262 -22.031 -15.256  0.00  0.00    -0.004 C 
ATOM     20  C   UNL     1      26.336 -21.697 -16.742  0.00  0.00    -0.023 C 
ATOM     21  C   UNL     1      27.091 -22.776 -17.515  0.00  0.00    -0.081 C 
ATOM     22  H   UNL     1      28.887 -23.736 -17.492  0.00  0.00    -0.084 HD
ATOM     23  H   UNL     1      28.945 -22.125 -17.014  0.00  0.00    -0.084 HD
ENDBRANCH  15  17
ENDBRANCH  12  15
ENDBRANCH   2  12
BRANCH   8  24
ATOM     24  C   UNL     1      37.258 -22.701 -13.941  0.00  0.00    +0.127 C 
BRANCH  24  25
ATOM     25  C   UNL     1      38.107 -23.967 -13.897  0.00  0.00    +0.004 C 
ATOM     26  C   UNL     1      37.916 -24.897 -12.897  0.00  0.00    +0.072 C 
ATOM     27  C   UNL     1      39.058 -24.133 -14.884  0.00  0.00    -0.002 C 
ATOM     28  C   UNL     1      38.709 -26.046 -12.883  0.00  0.00    +0.016 C 
ATOM     29  C   UNL     1      39.850 -25.282 -14.870  0.00  0.00    -0.000 C 
ATOM     30  C   UNL     1      39.676 -26.237 -13.870  0.00  0.00    +0.001 C 
BRANCH  26  31
ATOM     31  N   UNL     1      36.962 -24.727 -11.908  0.00  0.00    -0.169 N 
ATOM     32  N   UNL     1      37.271 -24.221 -10.701  0.00  0.00    -0.150 NA
ATOM     33  N   UNL     1      35.045 -24.725 -10.849  0.00  0.00    -0.203 NA
ATOM     34  C   UNL     1      35.633 -25.024 -11.984  0.00  0.00    +0.190 C 
ATOM     35  C   UNL     1      36.079 -24.241 -10.100  0.00  0.00    +0.219 C 
ENDBRANCH  26  31
ENDBRANCH  24  25
ENDBRANCH   8  24
TORSDOF 6
ENDMDL
MODEL 4
REMARK VINA RESULT:     -10.8      3.543     10.349
REMARK  Name = 5287492
REMARK  6 active torsions:
REMARK  status: ('A' for Active; 'I' for Inactive)
REMARK    1  A    between atoms: N_2  and  C_12
REMARK    2  A    between atoms: C_8  and  C_24
REMARK    3  A    between atoms: C_12  and  C_15
REMARK    4  A    between atoms: C_15  and  C_17
REMARK    5  A    between atoms: C_24  and  C_25
REMARK    6  A    between atoms: C_26  and  N_31
REMARK                            x       y       z     vdW  Elec       q    Type
REMARK                         _______ _______ _______ _____ _____    ______ ____
ROOT
ATOM      1  O   UNL     1      32.073  -7.361 -20.095  0.00  0.00    -0.446 OA
ATOM      2  N   UNL     1      32.095 -11.397 -22.406  0.00  0.00    -0.312 N 
ATOM      3  N   UNL     1      31.739 -11.417 -20.040  0.00  0.00    -0.227 NA
ATOM      4  N   UNL     1      32.292  -8.388 -22.104  0.00  0.00    -0.369 NA
ATOM      5  C   UNL     1      31.967 -10.726 -21.200  0.00  0.00    +0.158 C 
ATOM      6  C   UNL     1      32.070  -9.329 -21.129  0.00  0.00    +0.187 C 
ATOM      7  C   UNL     1      31.936  -8.705 -19.898  0.00  0.00    +0.246 C 
ATOM      8  C   UNL     1      32.283  -7.255 -21.438  0.00  0.00    +0.257 C 
ATOM      9  C   UNL     1      31.704  -9.366 -18.706  0.00  0.00    +0.045 C 
ATOM     10  C   UNL     1      31.616 -10.743 -18.866  0.00  0.00    +0.100 C 
ATOM     11  H   UNL     1      32.260 -10.865 -23.218  0.00  0.00    +0.148 HD
ENDROOT
BRANCH   2  12
ATOM     12  C   UNL     1      31.999 -12.832 -22.539  0.00  0.00    +0.153 C 
BRANCH  12  15
ATOM     13  F   UNL     1      33.790 -12.305 -23.973  0.00  0.00    -0.205 F 
ATOM     14  F   UNL     1      32.691 -14.146 -24.367  0.00  0.00    -0.205 F 
ATOM     15  C   UNL     1      33.150 -13.340 -23.382  0.00  0.00    +0.265 C 
BRANCH  15  17
ATOM     16  N   UNL     1      34.358 -15.450 -23.161  0.00  0.00    +0.389 N 
ATOM     17  C   UNL     1      34.170 -14.125 -22.558  0.00  0.00    +0.003 C 
ATOM     18  C   UNL     1      33.700 -14.253 -21.101  0.00  0.00    -0.016 C 
ATOM     19  C   UNL     1      34.667 -15.102 -20.281  0.00  0.00    -0.004 C 
ATOM     20  C   UNL     1      34.918 -16.439 -20.967  0.00  0.00    -0.023 C 
ATOM     21  C   UNL     1      35.338 -16.246 -22.422  0.00  0.00    -0.081 C 
ATOM     22  H   UNL     1      34.683 -15.333 -24.121  0.00  0.00    -0.084 HD
ATOM     23  H   UNL     1      33.465 -15.942 -23.135  0.00  0.00    -0.084 HD
ENDBRANCH  15  17
ENDBRANCH  12  15
ENDBRANCH   2  12
BRANCH   8  24
ATOM     24  C   UNL     1      32.471  -5.890 -21.953  0.00  0.00    +0.127 C 
BRANCH  24  25
ATOM     25  C   UNL     1      33.378  -5.804 -23.175  0.00  0.00    +0.004 C 
ATOM     26  C   UNL     1      33.075  -4.939 -24.206  0.00  0.00    +0.072 C 
ATOM     27  C   UNL     1      34.493  -6.617 -23.202  0.00  0.00    -0.002 C 
ATOM     28  C   UNL     1      33.925  -4.882 -25.311  0.00  0.00    +0.016 C 
ATOM     29  C   UNL     1      35.343  -6.560 -24.307  0.00  0.00    -0.000 C 
ATOM     30  C   UNL     1      35.058  -5.693 -25.362  0.00  0.00    +0.001 C 
BRANCH  26  31
ATOM     31  N   UNL     1      31.955  -4.125 -24.176  0.00  0.00    -0.169 N 
ATOM     32  N   UNL     1      31.990  -2.886 -23.655  0.00  0.00    -0.150 NA
ATOM     33  N   UNL     1      29.904  -3.403 -24.441  0.00  0.00    -0.203 NA
ATOM     34  C   UNL     1      30.708  -4.422 -24.640  0.00  0.00    +0.190 C 
ATOM     35  C   UNL     1      30.727  -2.494 -23.839  0.00  0.00    +0.219 C 
ENDBRANCH  26  31
ENDBRANCH  24  25
ENDBRANCH   8  24
TORSDOF 6
ENDMDL
MODEL 5
REMARK VINA RESULT:     -10.7      1.913      2.721
REMARK  Name = 5287492
REMARK  6 active torsions:
REMARK  status: ('A' for Active; 'I' for Inactive)
REMARK    1  A    between atoms: N_2  and  C_12
REMARK    2  A    between atoms: C_8  and  C_24
REMARK    3  A    between atoms: C_12  and  C_15
REMARK    4  A    between atoms: C_15  and  C_17
REMARK    5  A    between atoms: C_24  and  C_25
REMARK    6  A    between atoms: C_26  and  N_31
REMARK                            x       y       z     vdW  Elec       q    Type
REMARK                         _______ _______ _______ _____ _____    ______ ____
ROOT
ATOM      1  O   UNL     1      33.776 -14.984 -21.068  0.00  0.00    -0.446 OA
ATOM      2  N   UNL     1      33.374 -11.025 -23.475  0.00  0.00    -0.312 N 
ATOM      3  N   UNL     1      31.951 -11.384 -21.585  0.00  0.00    -0.227 NA
ATOM      4  N   UNL     1      34.523 -13.752 -22.818  0.00  0.00    -0.369 NA
ATOM      5  C   UNL     1      32.950 -11.814 -22.417  0.00  0.00    +0.158 C 
ATOM      6  C   UNL     1      33.524 -13.069 -22.168  0.00  0.00    +0.187 C 
ATOM      7  C   UNL     1      33.064 -13.820 -21.097  0.00  0.00    +0.246 C 
ATOM      8  C   UNL     1      34.625 -14.866 -22.128  0.00  0.00    +0.257 C 
ATOM      9  C   UNL     1      32.060 -13.421 -20.234  0.00  0.00    +0.045 C 
ATOM     10  C   UNL     1      31.547 -12.170 -20.552  0.00  0.00    +0.100 C 
ATOM     11  H   UNL     1      34.094 -11.371 -24.051  0.00  0.00    +0.148 HD
ENDROOT
BRANCH   2  12
ATOM     12  C   UNL     1      32.819  -9.727 -23.780  0.00  0.00    +0.153 C 
BRANCH  12  15
ATOM     13  F   UNL     1      33.976  -7.808 -24.501  0.00  0.00    -0.205 F 
ATOM     14  F   UNL     1      35.047  -9.208 -23.217  0.00  0.00    -0.205 F 
ATOM     15  C   UNL     1      33.835  -8.653 -23.453  0.00  0.00    +0.265 C 
BRANCH  15  17
ATOM     16  N   UNL     1      32.277  -8.461 -21.584  0.00  0.00    +0.389 N 
ATOM     17  C   UNL     1      33.437  -7.832 -22.227  0.00  0.00    +0.003 C 
ATOM     18  C   UNL     1      33.119  -6.385 -22.629  0.00  0.00    -0.016 C 
ATOM     19  C   UNL     1      32.643  -5.571 -21.429  0.00  0.00    -0.004 C 
ATOM     20  C   UNL     1      31.494  -6.280 -20.723  0.00  0.00    -0.023 C 
ATOM     21  C   UNL     1      31.857  -7.726 -20.391  0.00  0.00    -0.081 C 
ATOM     22  H   UNL     1      32.522  -9.414 -21.317  0.00  0.00    -0.084 HD
ATOM     23  H   UNL     1      31.503  -8.456 -22.249  0.00  0.00    -0.084 HD
ENDBRANCH  15  17
ENDBRANCH  12  15
ENDBRANCH   2  12
BRANCH   8  24
ATOM     24  C   UNL     1      35.535 -15.999 -22.351  0.00  0.00    +0.127 C 
BRANCH  24  25
ATOM     25  C   UNL     1      34.926 -17.138 -23.162  0.00  0.00    +0.004 C 
ATOM     26  C   UNL     1      35.137 -18.449 -22.787  0.00  0.00    +0.072 C 
ATOM     27  C   UNL     1      34.169 -16.802 -24.267  0.00  0.00    -0.002 C 
ATOM     28  C   UNL     1      34.566 -19.469 -23.549  0.00  0.00    +0.016 C 
ATOM     29  C   UNL     1      33.598 -17.823 -25.028  0.00  0.00    -0.000 C 
ATOM     30  C   UNL     1      33.797 -19.155 -24.669  0.00  0.00    +0.001 C 
BRANCH  26  31
ATOM     31  N   UNL     1      35.897 -18.782 -21.679  0.00  0.00    -0.169 N 
ATOM     32  N   UNL     1      35.362 -19.390 -20.606  0.00  0.00    -0.150 NA
ATOM     33  N   UNL     1      37.601 -19.017 -20.323  0.00  0.00    -0.203 NA
ATOM     34  C   UNL     1      37.231 -18.565 -21.498  0.00  0.00    +0.190 C 
ATOM     35  C   UNL     1      36.432 -19.509 -19.817  0.00  0.00    +0.219 C 
ENDBRANCH  26  31
ENDBRANCH  24  25
ENDBRANCH   8  24
TORSDOF 6
ENDMDL
MODEL 6
REMARK VINA RESULT:     -10.5      6.539     11.224
REMARK  Name = 5287492
REMARK  6 active torsions:
REMARK  status: ('A' for Active; 'I' for Inactive)
REMARK    1  A    between atoms: N_2  and  C_12
REMARK    2  A    between atoms: C_8  and  C_24
REMARK    3  A    between atoms: C_12  and  C_15
REMARK    4  A    between atoms: C_15  and  C_17
REMARK    5  A    between atoms: C_24  and  C_25
REMARK    6  A    between atoms: C_26  and  N_31
REMARK                            x       y       z     vdW  Elec       q    Type
REMARK                         _______ _______ _______ _____ _____    ______ ____
ROOT
ATOM      1  O   UNL     1      35.138 -23.062 -15.261  0.00  0.00    -0.446 OA
ATOM      2  N   UNL     1      36.247 -21.160 -19.358  0.00  0.00    -0.312 N 
ATOM      3  N   UNL     1      34.080 -22.139 -19.081  0.00  0.00    -0.227 NA
ATOM      4  N   UNL     1      36.718 -21.989 -16.481  0.00  0.00    -0.369 NA
ATOM      5  C   UNL     1      35.311 -21.817 -18.574  0.00  0.00    +0.158 C 
ATOM      6  C   UNL     1      35.594 -22.174 -17.247  0.00  0.00    +0.187 C 
ATOM      7  C   UNL     1      34.624 -22.830 -16.505  0.00  0.00    +0.246 C 
ATOM      8  C   UNL     1      36.391 -22.530 -15.328  0.00  0.00    +0.257 C 
ATOM      9  C   UNL     1      33.371 -23.171 -16.979  0.00  0.00    +0.045 C 
ATOM     10  C   UNL     1      33.174 -22.783 -18.298  0.00  0.00    +0.100 C 
ATOM     11  H   UNL     1      37.121 -20.949 -18.957  0.00  0.00    +0.148 HD
ENDROOT
BRANCH   2  12
ATOM     12  C   UNL     1      36.012 -20.771 -20.728  0.00  0.00    +0.153 C 
BRANCH  12  15
ATOM     13  F   UNL     1      36.540 -18.565 -20.095  0.00  0.00    -0.205 F 
ATOM     14  F   UNL     1      34.431 -19.107 -20.200  0.00  0.00    -0.205 F 
ATOM     15  C   UNL     1      35.637 -19.304 -20.781  0.00  0.00    +0.265 C 
BRANCH  15  17
ATOM     16  N   UNL     1      35.365 -17.320 -22.177  0.00  0.00    +0.389 N 
ATOM     17  C   UNL     1      35.572 -18.773 -22.212  0.00  0.00    +0.003 C 
ATOM     18  C   UNL     1      34.444 -19.465 -22.991  0.00  0.00    -0.016 C 
ATOM     19  C   UNL     1      34.312 -18.891 -24.399  0.00  0.00    -0.004 C 
ATOM     20  C   UNL     1      34.185 -17.373 -24.348  0.00  0.00    -0.023 C 
ATOM     21  C   UNL     1      35.309 -16.750 -23.523  0.00  0.00    -0.081 C 
ATOM     22  H   UNL     1      36.135 -16.888 -21.667  0.00  0.00    -0.084 HD
ATOM     23  H   UNL     1      34.473 -17.137 -21.717  0.00  0.00    -0.084 HD
ENDBRANCH  15  17
ENDBRANCH  12  15
ENDBRANCH   2  12
BRANCH   8  24
ATOM     24  C   UNL     1      37.200 -22.635 -14.105  0.00  0.00    +0.127 C 
BRANCH  24  25
ATOM     25  C   UNL     1      38.047 -23.901 -14.025  0.00  0.00    +0.004 C 
ATOM     26  C   UNL     1      37.845 -24.808 -13.005  0.00  0.00    +0.072 C 
ATOM     27  C   UNL     1      39.005 -24.092 -15.000  0.00  0.00    -0.002 C 
ATOM     28  C   UNL     1      38.635 -25.957 -12.958  0.00  0.00    +0.016 C 
ATOM     29  C   UNL     1      39.795 -25.242 -14.953  0.00  0.00    -0.000 C 
ATOM     30  C   UNL     1      39.610 -26.174 -13.932  0.00  0.00    +0.001 C 
BRANCH  26  31
ATOM     31  N   UNL     1      36.883 -24.613 -12.028  0.00  0.00    -0.169 N 
ATOM     32  N   UNL     1      37.208 -24.270 -10.769  0.00  0.00    -0.150 NA
ATOM     33  N   UNL     1      34.943 -24.467 -11.023  0.00  0.00    -0.203 NA
ATOM     34  C   UNL     1      35.532 -24.728 -12.167  0.00  0.00    +0.190 C 
ATOM     35  C   UNL     1      36.001 -24.195 -10.204  0.00  0.00    +0.219 C 
ENDBRANCH  26  31
ENDBRANCH  24  25
ENDBRANCH   8  24
TORSDOF 6
ENDMDL
MODEL 7
REMARK VINA RESULT:     -10.4      7.514     12.197
REMARK  Name = 5287492
REMARK  6 active torsions:
REMARK  status: ('A' for Active; 'I' for Inactive)
REMARK    1  A    between atoms: N_2  and  C_12
REMARK    2  A    between atoms: C_8  and  C_24
REMARK    3  A    between atoms: C_12  and  C_15
REMARK    4  A    between atoms: C_15  and  C_17
REMARK    5  A    between atoms: C_24  and  C_25
REMARK    6  A    between atoms: C_26  and  N_31
REMARK                            x       y       z     vdW  Elec       q    Type
REMARK                         _______ _______ _______ _____ _____    ______ ____
ROOT
ATOM      1  O   UNL     1      33.121 -24.521 -14.048  0.00  0.00    -0.446 OA
ATOM      2  N   UNL     1      34.814 -22.503 -17.880  0.00  0.00    -0.312 N 
ATOM      3  N   UNL     1      32.460 -22.405 -17.460  0.00  0.00    -0.227 NA
ATOM      4  N   UNL     1      34.964 -24.061 -15.286  0.00  0.00    -0.369 NA
ATOM      5  C   UNL     1      33.716 -22.808 -17.092  0.00  0.00    +0.158 C 
ATOM      6  C   UNL     1      33.854 -23.534 -15.899  0.00  0.00    +0.187 C 
ATOM      7  C   UNL     1      32.725 -23.814 -15.146  0.00  0.00    +0.246 C 
ATOM      8  C   UNL     1      34.471 -24.627 -14.206  0.00  0.00    +0.257 C 
ATOM      9  C   UNL     1      31.441 -23.425 -15.483  0.00  0.00    +0.045 C 
ATOM     10  C   UNL     1      31.394 -22.713 -16.674  0.00  0.00    +0.100 C 
ATOM     11  H   UNL     1      35.699 -22.812 -17.581  0.00  0.00    +0.148 HD
ENDROOT
BRANCH   2  12
ATOM     12  C   UNL     1      34.731 -21.761 -19.116  0.00  0.00    +0.153 C 
BRANCH  12  15
ATOM     13  F   UNL     1      37.002 -22.127 -19.617  0.00  0.00    -0.205 F 
ATOM     14  F   UNL     1      36.505 -20.386 -18.401  0.00  0.00    -0.205 F 
ATOM     15  C   UNL     1      36.081 -21.152 -19.433  0.00  0.00    +0.265 C 
BRANCH  15  17
ATOM     16  N   UNL     1      36.798 -19.049 -20.444  0.00  0.00    +0.389 N 
ATOM     17  C   UNL     1      36.045 -20.285 -20.690  0.00  0.00    +0.003 C 
ATOM     18  C   UNL     1      34.595 -19.969 -21.085  0.00  0.00    -0.016 C 
ATOM     19  C   UNL     1      34.541 -19.039 -22.292  0.00  0.00    -0.004 C 
ATOM     20  C   UNL     1      35.398 -17.801 -22.053  0.00  0.00    -0.023 C 
ATOM     21  C   UNL     1      36.812 -18.181 -21.621  0.00  0.00    -0.081 C 
ATOM     22  H   UNL     1      37.758 -19.290 -20.198  0.00  0.00    -0.084 HD
ATOM     23  H   UNL     1      36.342 -18.545 -19.683  0.00  0.00    -0.084 HD
ENDBRANCH  15  17
ENDBRANCH  12  15
ENDBRANCH   2  12
BRANCH   8  24
ATOM     24  C   UNL     1      35.187 -25.358 -13.149  0.00  0.00    +0.127 C 
BRANCH  24  25
ATOM     25  C   UNL     1      36.657 -25.619 -13.458  0.00  0.00    +0.004 C 
ATOM     26  C   UNL     1      37.643 -25.026 -12.696  0.00  0.00    +0.072 C 
ATOM     27  C   UNL     1      36.950 -26.458 -14.513  0.00  0.00    -0.002 C 
ATOM     28  C   UNL     1      38.979 -25.284 -13.002  0.00  0.00    +0.016 C 
ATOM     29  C   UNL     1      38.286 -26.716 -14.820  0.00  0.00    -0.000 C 
ATOM     30  C   UNL     1      39.301 -26.129 -14.064  0.00  0.00    +0.001 C 
BRANCH  26  31
ATOM     31  N   UNL     1      37.346 -24.184 -11.638  0.00  0.00    -0.169 N 
ATOM     32  N   UNL     1      36.867 -24.649 -10.471  0.00  0.00    -0.150 NA
ATOM     33  N   UNL     1      37.100 -22.374 -10.429  0.00  0.00    -0.203 NA
ATOM     34  C   UNL     1      37.479 -22.827 -11.600  0.00  0.00    +0.190 C 
ATOM     35  C   UNL     1      36.735 -23.517  -9.776  0.00  0.00    +0.219 C 
ENDBRANCH  26  31
ENDBRANCH  24  25
ENDBRANCH   8  24
TORSDOF 6
ENDMDL
MODEL 8
REMARK VINA RESULT:     -10.4     10.338     13.713
REMARK  Name = 5287492
REMARK  6 active torsions:
REMARK  status: ('A' for Active; 'I' for Inactive)
REMARK    1  A    between atoms: N_2  and  C_12
REMARK    2  A    between atoms: C_8  and  C_24
REMARK    3  A    between atoms: C_12  and  C_15
REMARK    4  A    between atoms: C_15  and  C_17
REMARK    5  A    between atoms: C_24  and  C_25
REMARK    6  A    between atoms: C_26  and  N_31
REMARK                            x       y       z     vdW  Elec       q    Type
REMARK                         _______ _______ _______ _____ _____    ______ ____
ROOT
ATOM      1  O   UNL     1      32.672 -22.092 -18.210  0.00  0.00    -0.446 OA
ATOM      2  N   UNL     1      36.254 -23.073 -15.412  0.00  0.00    -0.312 N 
ATOM      3  N   UNL     1      36.694 -22.218 -17.604  0.00  0.00    -0.227 NA
ATOM      4  N   UNL     1      33.331 -22.856 -16.180  0.00  0.00    -0.369 NA
ATOM      5  C   UNL     1      35.805 -22.613 -16.640  0.00  0.00    +0.158 C 
ATOM      6  C   UNL     1      34.435 -22.537 -16.932  0.00  0.00    +0.187 C 
ATOM      7  C   UNL     1      34.036 -22.069 -18.175  0.00  0.00    +0.246 C 
ATOM      8  C   UNL     1      32.328 -22.573 -16.982  0.00  0.00    +0.257 C 
ATOM      9  C   UNL     1      34.902 -21.662 -19.173  0.00  0.00    +0.045 C 
ATOM     10  C   UNL     1      36.235 -21.769 -18.802  0.00  0.00    +0.100 C 
ATOM     11  H   UNL     1      35.584 -23.349 -14.746  0.00  0.00    +0.148 HD
ENDROOT
BRANCH   2  12
ATOM     12  C   UNL     1      37.650 -23.174 -15.057  0.00  0.00    +0.153 C 
BRANCH  12  15
ATOM     13  F   UNL     1      39.205 -24.873 -14.568  0.00  0.00    -0.205 F 
ATOM     14  F   UNL     1      37.148 -25.473 -14.973  0.00  0.00    -0.205 F 
ATOM     15  C   UNL     1      37.911 -24.513 -14.400  0.00  0.00    +0.265 C 
BRANCH  15  17
ATOM     16  N   UNL     1      36.392 -25.272 -12.646  0.00  0.00    +0.389 N 
ATOM     17  C   UNL     1      37.610 -24.493 -12.903  0.00  0.00    +0.003 C 
ATOM     18  C   UNL     1      37.447 -23.049 -12.406  0.00  0.00    -0.016 C 
ATOM     19  C   UNL     1      37.067 -23.012 -10.929  0.00  0.00    -0.004 C 
ATOM     20  C   UNL     1      35.853 -23.895 -10.666  0.00  0.00    -0.023 C 
ATOM     21  C   UNL     1      36.060 -25.302 -11.222  0.00  0.00    -0.081 C 
ATOM     22  H   UNL     1      36.535 -26.228 -12.973  0.00  0.00    -0.084 HD
ATOM     23  H   UNL     1      35.620 -24.828 -13.144  0.00  0.00    -0.084 HD
ENDBRANCH  15  17
ENDBRANCH  12  15
ENDBRANCH   2  12
BRANCH   8  24
ATOM     24  C   UNL     1      30.887 -22.711 -16.726  0.00  0.00    +0.127 C 
BRANCH  24  25
ATOM     25  C   UNL     1      30.542 -23.685 -15.605  0.00  0.00    +0.004 C 
ATOM     26  C   UNL     1      29.226 -23.911 -15.260  0.00  0.00    +0.072 C 
ATOM     27  C   UNL     1      31.589 -24.317 -14.964  0.00  0.00    -0.002 C 
ATOM     28  C   UNL     1      28.943 -24.809 -14.230  0.00  0.00    +0.016 C 
ATOM     29  C   UNL     1      31.305 -25.215 -13.934  0.00  0.00    -0.000 C 
ATOM     30  C   UNL     1      29.983 -25.460 -13.567  0.00  0.00    +0.001 C 
BRANCH  26  31
ATOM     31  N   UNL     1      28.178 -23.275 -15.905  0.00  0.00    -0.169 N 
ATOM     32  N   UNL     1      27.912 -23.483 -17.206  0.00  0.00    -0.150 NA
ATOM     33  N   UNL     1      26.441 -21.996 -16.281  0.00  0.00    -0.203 NA
ATOM     34  C   UNL     1      27.295 -22.387 -15.365  0.00  0.00    +0.190 C 
ATOM     35  C   UNL     1      26.855 -22.688 -17.384  0.00  0.00    +0.219 C 
ENDBRANCH  26  31
ENDBRANCH  24  25
ENDBRANCH   8  24
TORSDOF 6
ENDMDL
MODEL 9
REMARK VINA RESULT:     -10.4     10.171     12.831
REMARK  Name = 5287492
REMARK  6 active torsions:
REMARK  status: ('A' for Active; 'I' for Inactive)
REMARK    1  A    between atoms: N_2  and  C_12
REMARK    2  A    between atoms: C_8  and  C_24
REMARK    3  A    between atoms: C_12  and  C_15
REMARK    4  A    between atoms: C_15  and  C_17
REMARK    5  A    between atoms: C_24  and  C_25
REMARK    6  A    between atoms: C_26  and  N_31
REMARK                            x       y       z     vdW  Elec       q    Type
REMARK                         _______ _______ _______ _____ _____    ______ ____
ROOT
ATOM      1  O   UNL     1      36.661 -22.469 -16.652  0.00  0.00    -0.446 OA
ATOM      2  N   UNL     1      32.089 -23.179 -16.180  0.00  0.00    -0.312 N 
ATOM      3  N   UNL     1      32.933 -22.409 -18.283  0.00  0.00    -0.227 NA
ATOM      4  N   UNL     1      34.980 -23.111 -15.273  0.00  0.00    -0.369 NA
ATOM      5  C   UNL     1      33.148 -22.794 -16.986  0.00  0.00    +0.158 C 
ATOM      6  C   UNL     1      34.466 -22.785 -16.504  0.00  0.00    +0.187 C 
ATOM      7  C   UNL     1      35.490 -22.391 -17.350  0.00  0.00    +0.246 C 
ATOM      8  C   UNL     1      36.270 -22.907 -15.421  0.00  0.00    +0.257 C 
ATOM      9  C   UNL     1      35.314 -21.996 -18.664  0.00  0.00    +0.045 C 
ATOM     10  C   UNL     1      33.984 -22.035 -19.060  0.00  0.00    +0.100 C 
ATOM     11  H   UNL     1      32.285 -23.447 -15.253  0.00  0.00    +0.148 HD
ENDROOT
BRANCH   2  12
ATOM     12  C   UNL     1      30.715 -23.207 -16.622  0.00  0.00    +0.153 C 
BRANCH  12  15
ATOM     13  F   UNL     1      30.152 -22.993 -14.346  0.00  0.00    -0.205 F 
ATOM     14  F   UNL     1      29.994 -24.975 -15.243  0.00  0.00    -0.205 F 
ATOM     15  C   UNL     1      29.824 -23.653 -15.481  0.00  0.00    +0.265 C 
BRANCH  15  17
ATOM     16  N   UNL     1      28.197 -22.926 -17.149  0.00  0.00    +0.389 N 
ATOM     17  C   UNL     1      28.345 -23.405 -15.769  0.00  0.00    +0.003 C 
ATOM     18  C   UNL     1      27.766 -22.387 -14.775  0.00  0.00    -0.016 C 
ATOM     19  C   UNL     1      26.310 -22.067 -15.097  0.00  0.00    -0.004 C 
ATOM     20  C   UNL     1      26.162 -21.655 -16.557  0.00  0.00    -0.023 C 
ATOM     21  C   UNL     1      26.796 -22.684 -17.490  0.00  0.00    -0.081 C 
ATOM     22  H   UNL     1      28.576 -23.628 -17.785  0.00  0.00    -0.084 HD
ATOM     23  H   UNL     1      28.702 -22.044 -17.235  0.00  0.00    -0.084 HD
ENDBRANCH  15  17
ENDBRANCH  12  15
ENDBRANCH   2  12
BRANCH   8  24
ATOM     24  C   UNL     1      37.344 -23.088 -14.433  0.00  0.00    +0.127 C 
BRANCH  24  25
ATOM     25  C   UNL     1      36.895 -23.761 -13.141  0.00  0.00    +0.004 C 
ATOM     26  C   UNL     1      37.577 -24.857 -12.655  0.00  0.00    +0.072 C 
ATOM     27  C   UNL     1      35.795 -23.234 -12.494  0.00  0.00    -0.002 C 
ATOM     28  C   UNL     1      37.142 -25.452 -11.470  0.00  0.00    +0.016 C 
ATOM     29  C   UNL     1      35.361 -23.828 -11.309  0.00  0.00    -0.000 C 
ATOM     30  C   UNL     1      36.034 -24.937 -10.797  0.00  0.00    +0.001 C 
BRANCH  26  31
ATOM     31  N   UNL     1      38.679 -25.384 -13.306  0.00  0.00    -0.169 N 
ATOM     32  N   UNL     1      39.914 -24.882 -13.135  0.00  0.00    -0.150 NA
ATOM     33  N   UNL     1      39.926 -26.646 -14.591  0.00  0.00    -0.203 NA
ATOM     34  C   UNL     1      38.699 -26.434 -14.176  0.00  0.00    +0.190 C 
ATOM     35  C   UNL     1      40.630 -25.678 -13.933  0.00  0.00    +0.219 C 
ENDBRANCH  26  31
ENDBRANCH  24  25
ENDBRANCH   8  24
TORSDOF 6
ENDMDL
