MODEL 1
REMARK VINA RESULT:     -11.4      0.000      0.000
REMARK  Name = 6450551
REMARK  5 active torsions:
REMARK  status: ('A' for Active; 'I' for Inactive)
REMARK    1  A    between atoms: C_5  and  C_11
REMARK    2  A    between atoms: C_7  and  S_19
REMARK    3  A    between atoms: C_12  and  C_14
REMARK    4  A    between atoms: S_19  and  C_20
REMARK    5  A    between atoms: C_21  and  C_28
REMARK                            x       y       z     vdW  Elec       q    Type
REMARK                         _______ _______ _______ _____ _____    ______ ____
ROOT
ATOM      1  N   UNL     1      37.074 -20.017 -19.705  0.00  0.00    -0.276 N 
ATOM      2  N   UNL     1      36.940 -18.850 -20.358  0.00  0.00    -0.173 NA
ATOM      3  C   UNL     1      34.928 -19.922 -20.147  0.00  0.00    +0.036 A 
ATOM      4  C   UNL     1      35.903 -20.709 -19.545  0.00  0.00    +0.076 A 
ATOM      5  C   UNL     1      35.632 -18.796 -20.625  0.00  0.00    +0.102 A 
ATOM      6  C   UNL     1      35.624 -21.933 -18.935  0.00  0.00    +0.025 C 
ATOM      7  C   UNL     1      34.292 -22.359 -18.948  0.00  0.00    +0.031 C 
ATOM      8  C   UNL     1      33.594 -20.362 -20.151  0.00  0.00    +0.004 C 
ATOM      9  C   UNL     1      33.292 -21.588 -19.545  0.00  0.00    +0.007 C 
ATOM     10  H   UNL     1      37.939 -20.346 -19.370  0.00  0.00    +0.189 HD
ENDROOT
BRANCH   5  11
ATOM     11  C   UNL     1      35.033 -17.712 -21.318  0.00  0.00    +0.022 C 
ATOM     12  C   UNL     1      35.368 -17.212 -22.537  0.00  0.00    +0.021 C 
BRANCH  12  14
ATOM     13  N   UNL     1      34.228 -16.323 -24.428  0.00  0.00    -0.244 NA
ATOM     14  C   UNL     1      34.711 -16.071 -23.200  0.00  0.00    +0.081 C 
ATOM     15  C   UNL     1      34.637 -14.864 -22.545  0.00  0.00    +0.019 C 
ATOM     16  C   UNL     1      34.009 -13.816 -23.210  0.00  0.00    +0.003 C 
ATOM     17  C   UNL     1      33.625 -15.282 -25.044  0.00  0.00    +0.099 C 
ATOM     18  C   UNL     1      33.491 -14.021 -24.484  0.00  0.00    +0.021 C 
ENDBRANCH  12  14
ENDBRANCH   5  11
BRANCH   7  19
ATOM     19  S   UNL     1      33.865 -23.916 -18.185  0.00  0.00    -0.087 S 
BRANCH  19  20
ATOM     20  C   UNL     1      33.139 -23.362 -16.650  0.00  0.00    +0.034 C 
ATOM     21  C   UNL     1      33.894 -23.221 -15.483  0.00  0.00    +0.059 C 
ATOM     22  C   UNL     1      31.775 -23.066 -16.633  0.00  0.00    +0.007 C 
ATOM     23  C   UNL     1      33.286 -22.785 -14.306  0.00  0.00    +0.005 C 
ATOM     24  C   UNL     1      31.167 -22.629 -15.455  0.00  0.00    +0.001 C 
ATOM     25  C   UNL     1      31.923 -22.489 -14.292  0.00  0.00    +0.000 C 
BRANCH  21  28
ATOM     26  O   UNL     1      35.717 -24.686 -15.331  0.00  0.00    -0.270 OA
ATOM     27  N   UNL     1      36.193 -22.429 -15.553  0.00  0.00    -0.299 N 
ATOM     28  C   UNL     1      35.321 -23.515 -15.441  0.00  0.00    +0.246 C 
ATOM     29  C   UNL     1      37.633 -22.559 -15.552  0.00  0.00    +0.111 C 
ATOM     30  H   UNL     1      35.806 -21.527 -15.637  0.00  0.00    +0.150 HD
ENDBRANCH  21  28
ENDBRANCH  19  20
ENDBRANCH   7  19
TORSDOF 5
ENDMDL
MODEL 2
REMARK VINA RESULT:     -10.8      3.349      9.372
REMARK  Name = 6450551
REMARK  5 active torsions:
REMARK  status: ('A' for Active; 'I' for Inactive)
REMARK    1  A    between atoms: C_5  and  C_11
REMARK    2  A    between atoms: C_7  and  S_19
REMARK    3  A    between atoms: C_12  and  C_14
REMARK    4  A    between atoms: S_19  and  C_20
REMARK    5  A    between atoms: C_21  and  C_28
REMARK                            x       y       z     vdW  Elec       q    Type
REMARK                         _______ _______ _______ _____ _____    ______ ____
ROOT
ATOM      1  N   UNL     1      36.119 -21.644 -18.745  0.00  0.00    -0.276 N 
ATOM      2  N   UNL     1      35.331 -22.381 -17.944  0.00  0.00    -0.173 NA
ATOM      3  C   UNL     1      34.093 -21.135 -19.413  0.00  0.00    +0.036 A 
ATOM      4  C   UNL     1      35.438 -20.873 -19.649  0.00  0.00    +0.076 A 
ATOM      5  C   UNL     1      34.099 -22.069 -18.354  0.00  0.00    +0.102 A 
ATOM      6  C   UNL     1      35.880 -19.988 -20.635  0.00  0.00    +0.025 C 
ATOM      7  C   UNL     1      34.899 -19.352 -21.401  0.00  0.00    +0.031 C 
ATOM      8  C   UNL     1      33.119 -20.489 -20.192  0.00  0.00    +0.004 C 
ATOM      9  C   UNL     1      33.541 -19.596 -21.186  0.00  0.00    +0.007 C 
ATOM     10  H   UNL     1      37.102 -21.656 -18.686  0.00  0.00    +0.189 HD
ENDROOT
BRANCH   5  11
ATOM     11  C   UNL     1      32.930 -22.628 -17.774  0.00  0.00    +0.022 C 
ATOM     12  C   UNL     1      32.554 -22.606 -16.468  0.00  0.00    +0.021 C 
BRANCH  12  14
ATOM     13  N   UNL     1      30.180 -22.788 -16.476  0.00  0.00    -0.244 NA
ATOM     14  C   UNL     1      31.328 -23.218 -15.924  0.00  0.00    +0.081 C 
ATOM     15  C   UNL     1      31.430 -24.155 -14.923  0.00  0.00    +0.019 C 
ATOM     16  C   UNL     1      30.247 -24.704 -14.442  0.00  0.00    +0.003 C 
ATOM     17  C   UNL     1      29.051 -23.343 -15.983  0.00  0.00    +0.099 C 
ATOM     18  C   UNL     1      29.030 -24.295 -14.976  0.00  0.00    +0.021 C 
ENDBRANCH  12  14
ENDBRANCH   5  11
BRANCH   7  19
ATOM     19  S   UNL     1      35.394 -18.206 -22.679  0.00  0.00    -0.087 S 
BRANCH  19  20
ATOM     20  C   UNL     1      34.983 -16.642 -21.918  0.00  0.00    +0.034 C 
ATOM     21  C   UNL     1      34.533 -15.552 -22.666  0.00  0.00    +0.059 C 
ATOM     22  C   UNL     1      35.123 -16.523 -20.534  0.00  0.00    +0.007 C 
ATOM     23  C   UNL     1      34.223 -14.349 -22.031  0.00  0.00    +0.005 C 
ATOM     24  C   UNL     1      34.814 -15.321 -19.899  0.00  0.00    +0.001 C 
ATOM     25  C   UNL     1      34.363 -14.233 -20.649  0.00  0.00    +0.000 C 
BRANCH  21  28
ATOM     26  O   UNL     1      35.041 -16.413 -24.786  0.00  0.00    -0.270 OA
ATOM     27  N   UNL     1      33.411 -14.769 -24.678  0.00  0.00    -0.299 N 
ATOM     28  C   UNL     1      34.367 -15.617 -24.114  0.00  0.00    +0.246 C 
ATOM     29  C   UNL     1      33.114 -14.733 -26.093  0.00  0.00    +0.111 C 
ATOM     30  H   UNL     1      32.914 -14.163 -24.081  0.00  0.00    +0.150 HD
ENDBRANCH  21  28
ENDBRANCH  19  20
ENDBRANCH   7  19
TORSDOF 5
ENDMDL
MODEL 3
REMARK VINA RESULT:     -10.7      1.689      2.750
REMARK  Name = 6450551
REMARK  5 active torsions:
REMARK  status: ('A' for Active; 'I' for Inactive)
REMARK    1  A    between atoms: C_5  and  C_11
REMARK    2  A    between atoms: C_7  and  S_19
REMARK    3  A    between atoms: C_12  and  C_14
REMARK    4  A    between atoms: S_19  and  C_20
REMARK    5  A    between atoms: C_21  and  C_28
REMARK                            x       y       z     vdW  Elec       q    Type
REMARK                         _______ _______ _______ _____ _____    ______ ____
ROOT
ATOM      1  N   UNL     1      37.018 -19.908 -19.969  0.00  0.00    -0.276 N 
ATOM      2  N   UNL     1      36.917 -18.729 -20.606  0.00  0.00    -0.173 NA
ATOM      3  C   UNL     1      34.862 -19.692 -20.307  0.00  0.00    +0.036 A 
ATOM      4  C   UNL     1      35.820 -20.537 -19.759  0.00  0.00    +0.076 A 
ATOM      5  C   UNL     1      35.603 -18.601 -20.810  0.00  0.00    +0.102 A 
ATOM      6  C   UNL     1      35.503 -21.751 -19.146  0.00  0.00    +0.025 C 
ATOM      7  C   UNL     1      34.151 -22.103 -19.098  0.00  0.00    +0.031 C 
ATOM      8  C   UNL     1      33.507 -20.059 -20.250  0.00  0.00    +0.004 C 
ATOM      9  C   UNL     1      33.168 -21.273 -19.640  0.00  0.00    +0.007 C 
ATOM     10  H   UNL     1      37.879 -20.288 -19.680  0.00  0.00    +0.189 HD
ENDROOT
BRANCH   5  11
ATOM     11  C   UNL     1      35.032 -17.478 -21.464  0.00  0.00    +0.022 C 
ATOM     12  C   UNL     1      35.240 -17.061 -22.741  0.00  0.00    +0.021 C 
BRANCH  12  14
ATOM     13  N   UNL     1      34.664 -14.755 -22.619  0.00  0.00    -0.244 NA
ATOM     14  C   UNL     1      34.622 -15.875 -23.361  0.00  0.00    +0.081 C 
ATOM     15  C   UNL     1      34.061 -15.983 -24.611  0.00  0.00    +0.019 C 
ATOM     16  C   UNL     1      33.490 -14.837 -25.154  0.00  0.00    +0.003 C 
ATOM     17  C   UNL     1      34.100 -13.662 -23.178  0.00  0.00    +0.099 C 
ATOM     18  C   UNL     1      33.505 -13.651 -24.430  0.00  0.00    +0.021 C 
ENDBRANCH  12  14
ENDBRANCH   5  11
BRANCH   7  19
ATOM     19  S   UNL     1      33.675 -23.644 -18.329  0.00  0.00    -0.087 S 
BRANCH  19  20
ATOM     20  C   UNL     1      34.060 -23.307 -16.617  0.00  0.00    +0.034 C 
ATOM     21  C   UNL     1      33.062 -23.160 -15.650  0.00  0.00    +0.059 C 
ATOM     22  C   UNL     1      35.402 -23.189 -16.251  0.00  0.00    +0.007 C 
ATOM     23  C   UNL     1      33.407 -22.898 -14.324  0.00  0.00    +0.005 C 
ATOM     24  C   UNL     1      35.747 -22.927 -14.926  0.00  0.00    +0.001 C 
ATOM     25  C   UNL     1      34.749 -22.782 -13.962  0.00  0.00    +0.000 C 
BRANCH  21  28
ATOM     26  O   UNL     1      31.126 -22.504 -16.797  0.00  0.00    -0.270 OA
ATOM     27  N   UNL     1      30.930 -24.288 -15.330  0.00  0.00    -0.299 N 
ATOM     28  C   UNL     1      31.644 -23.273 -15.972  0.00  0.00    +0.246 C 
ATOM     29  C   UNL     1      29.525 -24.543 -15.562  0.00  0.00    +0.111 C 
ATOM     30  H   UNL     1      31.408 -24.860 -14.687  0.00  0.00    +0.150 HD
ENDBRANCH  21  28
ENDBRANCH  19  20
ENDBRANCH   7  19
TORSDOF 5
ENDMDL
MODEL 4
REMARK VINA RESULT:     -10.6      3.515      9.725
REMARK  Name = 6450551
REMARK  5 active torsions:
REMARK  status: ('A' for Active; 'I' for Inactive)
REMARK    1  A    between atoms: C_5  and  C_11
REMARK    2  A    between atoms: C_7  and  S_19
REMARK    3  A    between atoms: C_12  and  C_14
REMARK    4  A    between atoms: S_19  and  C_20
REMARK    5  A    between atoms: C_21  and  C_28
REMARK                            x       y       z     vdW  Elec       q    Type
REMARK                         _______ _______ _______ _____ _____    ______ ____
ROOT
ATOM      1  N   UNL     1      32.694 -21.182 -19.656  0.00  0.00    -0.276 N 
ATOM      2  N   UNL     1      32.998 -22.017 -18.649  0.00  0.00    -0.173 NA
ATOM      3  C   UNL     1      34.874 -21.009 -19.489  0.00  0.00    +0.036 A 
ATOM      4  C   UNL     1      33.776 -20.546 -20.205  0.00  0.00    +0.076 A 
ATOM      5  C   UNL     1      34.326 -21.909 -18.549  0.00  0.00    +0.102 A 
ATOM      6  C   UNL     1      33.881 -19.621 -21.246  0.00  0.00    +0.025 C 
ATOM      7  C   UNL     1      35.163 -19.160 -21.558  0.00  0.00    +0.031 C 
ATOM      8  C   UNL     1      36.157 -20.537 -19.814  0.00  0.00    +0.004 C 
ATOM      9  C   UNL     1      36.284 -19.609 -20.855  0.00  0.00    +0.007 C 
ATOM     10  H   UNL     1      31.773 -21.040 -19.974  0.00  0.00    +0.189 HD
ENDROOT
BRANCH   5  11
ATOM     11  C   UNL     1      35.087 -22.631 -17.594  0.00  0.00    +0.022 C 
ATOM     12  C   UNL     1      34.855 -22.753 -16.260  0.00  0.00    +0.021 C 
BRANCH  12  14
ATOM     13  N   UNL     1      35.281 -24.764 -15.059  0.00  0.00    -0.244 NA
ATOM     14  C   UNL     1      35.694 -23.511 -15.315  0.00  0.00    +0.081 C 
ATOM     15  C   UNL     1      36.806 -22.911 -14.772  0.00  0.00    +0.019 C 
ATOM     16  C   UNL     1      37.567 -23.664 -13.885  0.00  0.00    +0.003 C 
ATOM     17  C   UNL     1      36.044 -25.466 -14.192  0.00  0.00    +0.099 C 
ATOM     18  C   UNL     1      37.186 -24.967 -13.584  0.00  0.00    +0.021 C 
ENDBRANCH  12  14
ENDBRANCH   5  11
BRANCH   7  19
ATOM     19  S   UNL     1      35.370 -17.977 -22.879  0.00  0.00    -0.087 S 
BRANCH  19  20
ATOM     20  C   UNL     1      34.927 -16.456 -22.052  0.00  0.00    +0.034 C 
ATOM     21  C   UNL     1      34.433 -15.351 -22.750  0.00  0.00    +0.059 C 
ATOM     22  C   UNL     1      35.088 -16.385 -20.667  0.00  0.00    +0.007 C 
ATOM     23  C   UNL     1      34.100 -14.183 -22.064  0.00  0.00    +0.005 C 
ATOM     24  C   UNL     1      34.756 -15.217 -19.981  0.00  0.00    +0.001 C 
ATOM     25  C   UNL     1      34.261 -14.116 -20.680  0.00  0.00    +0.000 C 
BRANCH  21  28
ATOM     26  O   UNL     1      34.904 -16.140 -24.906  0.00  0.00    -0.270 OA
ATOM     27  N   UNL     1      33.281 -14.496 -24.715  0.00  0.00    -0.299 N 
ATOM     28  C   UNL     1      34.244 -15.366 -24.196  0.00  0.00    +0.246 C 
ATOM     29  C   UNL     1      32.961 -14.411 -26.123  0.00  0.00    +0.111 C 
ATOM     30  H   UNL     1      32.795 -13.911 -24.090  0.00  0.00    +0.150 HD
ENDBRANCH  21  28
ENDBRANCH  19  20
ENDBRANCH   7  19
TORSDOF 5
ENDMDL
MODEL 5
REMARK VINA RESULT:     -10.6      5.335     10.828
REMARK  Name = 6450551
REMARK  5 active torsions:
REMARK  status: ('A' for Active; 'I' for Inactive)
REMARK    1  A    between atoms: C_5  and  C_11
REMARK    2  A    between atoms: C_7  and  S_19
REMARK    3  A    between atoms: C_12  and  C_14
REMARK    4  A    between atoms: S_19  and  C_20
REMARK    5  A    between atoms: C_21  and  C_28
REMARK                            x       y       z     vdW  Elec       q    Type
REMARK                         _______ _______ _______ _____ _____    ______ ____
ROOT
ATOM      1  N   UNL     1      33.901 -16.819 -25.121  0.00  0.00    -0.276 N 
ATOM      2  N   UNL     1      34.293 -17.943 -24.498  0.00  0.00    -0.173 NA
ATOM      3  C   UNL     1      34.563 -16.109 -23.155  0.00  0.00    +0.036 A 
ATOM      4  C   UNL     1      34.038 -15.683 -24.369  0.00  0.00    +0.076 A 
ATOM      5  C   UNL     1      34.695 -17.507 -23.302  0.00  0.00    +0.102 A 
ATOM      6  C   UNL     1      33.749 -14.345 -24.647  0.00  0.00    +0.025 C 
ATOM      7  C   UNL     1      34.014 -13.417 -23.636  0.00  0.00    +0.031 C 
ATOM      8  C   UNL     1      34.823 -15.164 -22.148  0.00  0.00    +0.004 C 
ATOM      9  C   UNL     1      34.542 -13.817 -22.406  0.00  0.00    +0.007 C 
ATOM     10  H   UNL     1      33.546 -16.813 -26.040  0.00  0.00    +0.189 HD
ENDROOT
BRANCH   5  11
ATOM     11  C   UNL     1      35.200 -18.373 -22.296  0.00  0.00    +0.022 C 
ATOM     12  C   UNL     1      34.495 -19.177 -21.457  0.00  0.00    +0.021 C 
BRANCH  12  14
ATOM     13  N   UNL     1      36.363 -19.789 -20.113  0.00  0.00    -0.244 NA
ATOM     14  C   UNL     1      35.080 -20.048 -20.421  0.00  0.00    +0.081 C 
ATOM     15  C   UNL     1      34.308 -21.034 -19.856  0.00  0.00    +0.019 C 
ATOM     16  C   UNL     1      34.903 -21.831 -18.883  0.00  0.00    +0.003 C 
ATOM     17  C   UNL     1      36.908 -20.583 -19.165  0.00  0.00    +0.099 C 
ATOM     18  C   UNL     1      36.228 -21.608 -18.526  0.00  0.00    +0.021 C 
ENDBRANCH  12  14
ENDBRANCH   5  11
BRANCH   7  19
ATOM     19  S   UNL     1      33.669 -11.688 -23.924  0.00  0.00    -0.087 S 
BRANCH  19  20
ATOM     20  C   UNL     1      32.623 -11.307 -22.526  0.00  0.00    +0.034 C 
ATOM     21  C   UNL     1      32.260  -9.996 -22.209  0.00  0.00    +0.059 C 
ATOM     22  C   UNL     1      32.165 -12.363 -21.736  0.00  0.00    +0.007 C 
ATOM     23  C   UNL     1      31.442  -9.744 -21.109  0.00  0.00    +0.005 C 
ATOM     24  C   UNL     1      31.346 -12.111 -20.635  0.00  0.00    +0.001 C 
ATOM     25  C   UNL     1      30.985 -10.800 -20.322  0.00  0.00    +0.000 C 
BRANCH  21  28
ATOM     26  O   UNL     1      32.099  -8.524 -24.027  0.00  0.00    -0.270 OA
ATOM     27  N   UNL     1      33.822  -8.157 -22.520  0.00  0.00    -0.299 N 
ATOM     28  C   UNL     1      32.709  -8.853 -22.997  0.00  0.00    +0.246 C 
ATOM     29  C   UNL     1      34.372  -6.990 -23.175  0.00  0.00    +0.111 C 
ATOM     30  H   UNL     1      34.255  -8.477 -21.696  0.00  0.00    +0.150 HD
ENDBRANCH  21  28
ENDBRANCH  19  20
ENDBRANCH   7  19
TORSDOF 5
ENDMDL
MODEL 6
REMARK VINA RESULT:     -10.5      5.769     11.209
REMARK  Name = 6450551
REMARK  5 active torsions:
REMARK  status: ('A' for Active; 'I' for Inactive)
REMARK    1  A    between atoms: C_5  and  C_11
REMARK    2  A    between atoms: C_7  and  S_19
REMARK    3  A    between atoms: C_12  and  C_14
REMARK    4  A    between atoms: S_19  and  C_20
REMARK    5  A    between atoms: C_21  and  C_28
REMARK                            x       y       z     vdW  Elec       q    Type
REMARK                         _______ _______ _______ _____ _____    ______ ____
ROOT
ATOM      1  N   UNL     1      34.567 -13.872 -23.654  0.00  0.00    -0.276 N 
ATOM      2  N   UNL     1      35.164 -15.015 -23.275  0.00  0.00    -0.173 NA
ATOM      3  C   UNL     1      33.634 -14.321 -21.721  0.00  0.00    +0.036 A 
ATOM      4  C   UNL     1      33.638 -13.402 -22.764  0.00  0.00    +0.076 A 
ATOM      5  C   UNL     1      34.593 -15.285 -22.099  0.00  0.00    +0.102 A 
ATOM      6  C   UNL     1      32.817 -12.273 -22.788  0.00  0.00    +0.025 C 
ATOM      7  C   UNL     1      31.965 -12.086 -21.696  0.00  0.00    +0.031 C 
ATOM      8  C   UNL     1      32.770 -14.120 -20.631  0.00  0.00    +0.004 C 
ATOM      9  C   UNL     1      31.940 -12.993 -20.634  0.00  0.00    +0.007 C 
ATOM     10  H   UNL     1      34.780 -13.412 -24.498  0.00  0.00    +0.189 HD
ENDROOT
BRANCH   5  11
ATOM     11  C   UNL     1      34.929 -16.426 -21.324  0.00  0.00    +0.022 C 
ATOM     12  C   UNL     1      35.259 -17.669 -21.767  0.00  0.00    +0.021 C 
BRANCH  12  14
ATOM     13  N   UNL     1      36.847 -18.845 -20.439  0.00  0.00    -0.244 NA
ATOM     14  C   UNL     1      35.587 -18.820 -20.906  0.00  0.00    +0.081 C 
ATOM     15  C   UNL     1      34.620 -19.762 -20.646  0.00  0.00    +0.019 C 
ATOM     16  C   UNL     1      34.976 -20.831 -19.830  0.00  0.00    +0.003 C 
ATOM     17  C   UNL     1      37.157 -19.897 -19.651  0.00  0.00    +0.099 C 
ATOM     18  C   UNL     1      36.267 -20.908 -19.320  0.00  0.00    +0.021 C 
ENDBRANCH  12  14
ENDBRANCH   5  11
BRANCH   7  19
ATOM     19  S   UNL     1      30.889 -10.661 -21.661  0.00  0.00    -0.087 S 
BRANCH  19  20
ATOM     20  C   UNL     1      32.066  -9.334 -21.879  0.00  0.00    +0.034 C 
ATOM     21  C   UNL     1      32.523  -8.567 -20.804  0.00  0.00    +0.059 C 
ATOM     22  C   UNL     1      32.531  -9.068 -23.167  0.00  0.00    +0.007 C 
ATOM     23  C   UNL     1      33.442  -7.541 -21.019  0.00  0.00    +0.005 C 
ATOM     24  C   UNL     1      33.451  -8.042 -23.383  0.00  0.00    +0.001 C 
ATOM     25  C   UNL     1      33.906  -7.278 -22.308  0.00  0.00    +0.000 C 
BRANCH  21  28
ATOM     26  O   UNL     1      31.520  -7.890 -18.796  0.00  0.00    -0.270 OA
ATOM     27  N   UNL     1      32.272 -10.080 -18.915  0.00  0.00    -0.299 N 
ATOM     28  C   UNL     1      32.072  -8.799 -19.437  0.00  0.00    +0.246 C 
ATOM     29  C   UNL     1      31.859 -10.471 -17.585  0.00  0.00    +0.111 C 
ATOM     30  H   UNL     1      32.717 -10.751 -19.482  0.00  0.00    +0.150 HD
ENDBRANCH  21  28
ENDBRANCH  19  20
ENDBRANCH   7  19
TORSDOF 5
ENDMDL
MODEL 7
REMARK VINA RESULT:     -10.5      5.791     11.270
REMARK  Name = 6450551
REMARK  5 active torsions:
REMARK  status: ('A' for Active; 'I' for Inactive)
REMARK    1  A    between atoms: C_5  and  C_11
REMARK    2  A    between atoms: C_7  and  S_19
REMARK    3  A    between atoms: C_12  and  C_14
REMARK    4  A    between atoms: S_19  and  C_20
REMARK    5  A    between atoms: C_21  and  C_28
REMARK                            x       y       z     vdW  Elec       q    Type
REMARK                         _______ _______ _______ _____ _____    ______ ____
ROOT
ATOM      1  N   UNL     1      34.648 -14.080 -23.767  0.00  0.00    -0.276 N 
ATOM      2  N   UNL     1      35.275 -15.186 -23.332  0.00  0.00    -0.173 NA
ATOM      3  C   UNL     1      33.659 -14.510 -21.858  0.00  0.00    +0.036 A 
ATOM      4  C   UNL     1      33.667 -13.623 -22.928  0.00  0.00    +0.076 A 
ATOM      5  C   UNL     1      34.670 -15.445 -22.170  0.00  0.00    +0.102 A 
ATOM      6  C   UNL     1      32.804 -12.529 -23.016  0.00  0.00    +0.025 C 
ATOM      7  C   UNL     1      31.903 -12.346 -21.963  0.00  0.00    +0.031 C 
ATOM      8  C   UNL     1      32.747 -14.313 -20.807  0.00  0.00    +0.004 C 
ATOM      9  C   UNL     1      31.873 -13.221 -20.876  0.00  0.00    +0.007 C 
ATOM     10  H   UNL     1      34.874 -13.636 -24.616  0.00  0.00    +0.189 HD
ENDROOT
BRANCH   5  11
ATOM     11  C   UNL     1      35.021 -16.548 -21.348  0.00  0.00    +0.022 C 
ATOM     12  C   UNL     1      35.269 -17.829 -21.732  0.00  0.00    +0.021 C 
BRANCH  12  14
ATOM     13  N   UNL     1      36.872 -18.907 -20.340  0.00  0.00    -0.244 NA
ATOM     14  C   UNL     1      35.618 -18.937 -20.824  0.00  0.00    +0.081 C 
ATOM     15  C   UNL     1      34.676 -19.897 -20.540  0.00  0.00    +0.019 C 
ATOM     16  C   UNL     1      35.051 -20.923 -19.680  0.00  0.00    +0.003 C 
ATOM     17  C   UNL     1      37.201 -19.919 -19.508  0.00  0.00    +0.099 C 
ATOM     18  C   UNL     1      36.336 -20.942 -19.150  0.00  0.00    +0.021 C 
ENDBRANCH  12  14
ENDBRANCH   5  11
BRANCH   7  19
ATOM     19  S   UNL     1      30.770 -10.965 -22.012  0.00  0.00    -0.087 S 
BRANCH  19  20
ATOM     20  C   UNL     1      31.547  -9.840 -20.862  0.00  0.00    +0.034 C 
ATOM     21  C   UNL     1      32.390  -8.811 -21.289  0.00  0.00    +0.059 C 
ATOM     22  C   UNL     1      31.296 -10.010 -19.499  0.00  0.00    +0.007 C 
ATOM     23  C   UNL     1      32.975  -7.955 -20.356  0.00  0.00    +0.005 C 
ATOM     24  C   UNL     1      31.882  -9.154 -18.566  0.00  0.00    +0.001 C 
ATOM     25  C   UNL     1      32.722  -8.127 -18.995  0.00  0.00    +0.000 C 
BRANCH  21  28
ATOM     26  O   UNL     1      33.643  -9.168 -23.237  0.00  0.00    -0.270 OA
ATOM     27  N   UNL     1      31.844  -7.715 -23.391  0.00  0.00    -0.299 N 
ATOM     28  C   UNL     1      32.689  -8.585 -22.698  0.00  0.00    +0.246 C 
ATOM     29  C   UNL     1      31.995  -7.408 -24.796  0.00  0.00    +0.111 C 
ATOM     30  H   UNL     1      31.107  -7.288 -22.897  0.00  0.00    +0.150 HD
ENDBRANCH  21  28
ENDBRANCH  19  20
ENDBRANCH   7  19
TORSDOF 5
ENDMDL
MODEL 8
REMARK VINA RESULT:     -10.2      2.685      5.073
REMARK  Name = 6450551
REMARK  5 active torsions:
REMARK  status: ('A' for Active; 'I' for Inactive)
REMARK    1  A    between atoms: C_5  and  C_11
REMARK    2  A    between atoms: C_7  and  S_19
REMARK    3  A    between atoms: C_12  and  C_14
REMARK    4  A    between atoms: S_19  and  C_20
REMARK    5  A    between atoms: C_21  and  C_28
REMARK                            x       y       z     vdW  Elec       q    Type
REMARK                         _______ _______ _______ _____ _____    ______ ____
ROOT
ATOM      1  N   UNL     1      34.430 -17.028 -24.880  0.00  0.00    -0.276 N 
ATOM      2  N   UNL     1      33.920 -15.823 -25.186  0.00  0.00    -0.173 NA
ATOM      3  C   UNL     1      34.583 -15.917 -22.996  0.00  0.00    +0.036 A 
ATOM      4  C   UNL     1      34.845 -17.150 -23.581  0.00  0.00    +0.076 A 
ATOM      5  C   UNL     1      34.015 -15.149 -24.037  0.00  0.00    +0.102 A 
ATOM      6  C   UNL     1      35.419 -18.216 -22.885  0.00  0.00    +0.025 C 
ATOM      7  C   UNL     1      35.731 -18.000 -21.540  0.00  0.00    +0.031 C 
ATOM      8  C   UNL     1      34.902 -15.715 -21.643  0.00  0.00    +0.004 C 
ATOM      9  C   UNL     1      35.478 -16.771 -20.927  0.00  0.00    +0.007 C 
ATOM     10  H   UNL     1      34.497 -17.761 -25.534  0.00  0.00    +0.189 HD
ENDROOT
BRANCH   5  11
ATOM     11  C   UNL     1      33.586 -13.803 -23.895  0.00  0.00    +0.022 C 
ATOM     12  C   UNL     1      32.839 -13.266 -22.895  0.00  0.00    +0.021 C 
BRANCH  12  14
ATOM     13  N   UNL     1      31.462 -11.598 -21.900  0.00  0.00    -0.244 NA
ATOM     14  C   UNL     1      32.414 -11.857 -22.813  0.00  0.00    +0.081 C 
ATOM     15  C   UNL     1      32.994 -10.929 -23.645  0.00  0.00    +0.019 C 
ATOM     16  C   UNL     1      32.561  -9.613 -23.531  0.00  0.00    +0.003 C 
ATOM     17  C   UNL     1      31.064 -10.309 -21.818  0.00  0.00    +0.099 C 
ATOM     18  C   UNL     1      31.577  -9.288 -22.604  0.00  0.00    +0.021 C 
ENDBRANCH  12  14
ENDBRANCH   5  11
BRANCH   7  19
ATOM     19  S   UNL     1      36.466 -19.322 -20.590  0.00  0.00    -0.087 S 
BRANCH  19  20
ATOM     20  C   UNL     1      35.012 -20.203 -20.041  0.00  0.00    +0.034 C 
ATOM     21  C   UNL     1      35.081 -21.227 -19.093  0.00  0.00    +0.059 C 
ATOM     22  C   UNL     1      33.777 -19.845 -20.586  0.00  0.00    +0.007 C 
ATOM     23  C   UNL     1      33.920 -21.888 -18.693  0.00  0.00    +0.005 C 
ATOM     24  C   UNL     1      32.616 -20.507 -20.186  0.00  0.00    +0.001 C 
ATOM     25  C   UNL     1      32.689 -21.529 -19.239  0.00  0.00    +0.000 C 
BRANCH  21  28
ATOM     26  O   UNL     1      37.316 -21.925 -19.205  0.00  0.00    -0.270 OA
ATOM     27  N   UNL     1      36.391 -21.682 -17.094  0.00  0.00    -0.299 N 
ATOM     28  C   UNL     1      36.342 -21.644 -18.490  0.00  0.00    +0.246 C 
ATOM     29  C   UNL     1      37.573 -22.050 -16.348  0.00  0.00    +0.111 C 
ATOM     30  H   UNL     1      35.577 -21.445 -16.592  0.00  0.00    +0.150 HD
ENDBRANCH  21  28
ENDBRANCH  19  20
ENDBRANCH   7  19
TORSDOF 5
ENDMDL
MODEL 9
REMARK VINA RESULT:      -9.8      3.503      9.533
REMARK  Name = 6450551
REMARK  5 active torsions:
REMARK  status: ('A' for Active; 'I' for Inactive)
REMARK    1  A    between atoms: C_5  and  C_11
REMARK    2  A    between atoms: C_7  and  S_19
REMARK    3  A    between atoms: C_12  and  C_14
REMARK    4  A    between atoms: S_19  and  C_20
REMARK    5  A    between atoms: C_21  and  C_28
REMARK                            x       y       z     vdW  Elec       q    Type
REMARK                         _______ _______ _______ _____ _____    ______ ____
ROOT
ATOM      1  N   UNL     1      32.956 -21.613 -19.353  0.00  0.00    -0.276 N 
ATOM      2  N   UNL     1      32.873 -22.512 -18.358  0.00  0.00    -0.173 NA
ATOM      3  C   UNL     1      34.987 -21.650 -18.525  0.00  0.00    +0.036 A 
ATOM      4  C   UNL     1      34.199 -21.058 -19.506  0.00  0.00    +0.076 A 
ATOM      5  C   UNL     1      34.110 -22.532 -17.857  0.00  0.00    +0.102 A 
ATOM      6  C   UNL     1      34.688 -20.106 -20.404  0.00  0.00    +0.025 C 
ATOM      7  C   UNL     1      36.035 -19.754 -20.283  0.00  0.00    +0.031 C 
ATOM      8  C   UNL     1      36.339 -21.285 -18.416  0.00  0.00    +0.004 C 
ATOM      9  C   UNL     1      36.849 -20.333 -19.307  0.00  0.00    +0.007 C 
ATOM     10  H   UNL     1      32.191 -21.374 -19.924  0.00  0.00    +0.189 HD
ENDROOT
BRANCH   5  11
ATOM     11  C   UNL     1      34.486 -23.359 -16.766  0.00  0.00    +0.022 C 
ATOM     12  C   UNL     1      35.308 -23.050 -15.728  0.00  0.00    +0.021 C 
BRANCH  12  14
ATOM     13  N   UNL     1      36.466 -24.988 -14.973  0.00  0.00    -0.244 NA
ATOM     14  C   UNL     1      35.670 -23.962 -14.628  0.00  0.00    +0.081 C 
ATOM     15  C   UNL     1      35.187 -23.717 -13.364  0.00  0.00    +0.019 C 
ATOM     16  C   UNL     1      35.555 -24.604 -12.359  0.00  0.00    +0.003 C 
ATOM     17  C   UNL     1      36.802 -25.830 -13.972  0.00  0.00    +0.099 C 
ATOM     18  C   UNL     1      36.376 -25.684 -12.660  0.00  0.00    +0.021 C 
ENDBRANCH  12  14
ENDBRANCH   5  11
BRANCH   7  19
ATOM     19  S   UNL     1      36.725 -18.543 -21.400  0.00  0.00    -0.087 S 
BRANCH  19  20
ATOM     20  C   UNL     1      35.529 -18.576 -22.727  0.00  0.00    +0.034 C 
ATOM     21  C   UNL     1      34.832 -17.432 -23.123  0.00  0.00    +0.059 C 
ATOM     22  C   UNL     1      35.296 -19.790 -23.377  0.00  0.00    +0.007 C 
ATOM     23  C   UNL     1      33.907 -17.504 -24.164  0.00  0.00    +0.005 C 
ATOM     24  C   UNL     1      34.371 -19.861 -24.418  0.00  0.00    +0.001 C 
ATOM     25  C   UNL     1      33.676 -18.717 -24.812  0.00  0.00    +0.000 C 
BRANCH  21  28
ATOM     26  O   UNL     1      35.518 -15.191 -23.120  0.00  0.00    -0.270 OA
ATOM     27  N   UNL     1      34.635 -16.027 -21.147  0.00  0.00    -0.299 N 
ATOM     28  C   UNL     1      35.033 -16.138 -22.481  0.00  0.00    +0.246 C 
ATOM     29  C   UNL     1      34.747 -14.805 -20.381  0.00  0.00    +0.111 C 
ATOM     30  H   UNL     1      34.258 -16.822 -20.704  0.00  0.00    +0.150 HD
ENDBRANCH  21  28
ENDBRANCH  19  20
ENDBRANCH   7  19
TORSDOF 5
ENDMDL
