MODEL 1
REMARK VINA RESULT:     -12.7      0.000      0.000
REMARK  Name = 446286
REMARK  4 active torsions:
REMARK  status: ('A' for Active; 'I' for Inactive)
REMARK    1  A    between atoms: C_9  and  C_17
REMARK    2  A    between atoms: C_11  and  C_22
REMARK    3  A    between atoms: C_25  and  O_28
REMARK    4  A    between atoms: C_27  and  O_30
REMARK                            x       y       z     vdW  Elec       q    Type
REMARK                         _______ _______ _______ _____ _____    ______ ____
ROOT
ATOM      1  O   UNL     1      37.169 -19.233 -19.871  0.00  0.00    -0.270 OA
ATOM      2  N   UNL     1      35.201 -20.536 -19.758  0.00  0.00    -0.255 N 
ATOM      3  C   UNL     1      32.789 -20.977 -19.364  0.00  0.00    +0.027 C 
ATOM      4  C   UNL     1      33.109 -22.115 -18.415  0.00  0.00    +0.029 C 
ATOM      5  C   UNL     1      33.903 -20.846 -20.388  0.00  0.00    +0.099 C 
ATOM      6  C   UNL     1      34.513 -22.006 -17.881  0.00  0.00    -0.008 C 
ATOM      7  C   UNL     1      35.511 -21.248 -18.536  0.00  0.00    +0.050 C 
ATOM      8  C   UNL     1      34.821 -22.722 -16.710  0.00  0.00    -0.002 C 
ATOM      9  C   UNL     1      36.102 -22.690 -16.172  0.00  0.00    +0.016 C 
ATOM     10  C   UNL     1      36.802 -21.250 -17.981  0.00  0.00    +0.015 C 
ATOM     11  C   UNL     1      36.071 -19.572 -20.308  0.00  0.00    +0.253 C 
ATOM     12  C   UNL     1      37.093 -21.957 -16.810  0.00  0.00    +0.003 C 
ENDROOT
BRANCH   9  17
ATOM     13  S   UNL     1      35.251 -24.420 -12.684  0.00  0.00    -0.051 S 
ATOM     14  O   UNL     1      37.295 -24.790 -11.130  0.00  0.00    -0.261 OA
ATOM     15  N   UNL     1      37.484 -23.097 -14.256  0.00  0.00    -0.182 NA
ATOM     16  N   UNL     1      37.787 -23.687 -13.077  0.00  0.00    -0.198 N 
ATOM     17  C   UNL     1      36.408 -23.428 -14.904  0.00  0.00    +0.086 C 
ATOM     18  C   UNL     1      35.477 -24.544 -14.470  0.00  0.00    +0.098 C 
ATOM     19  C   UNL     1      36.019 -25.915 -14.865  0.00  0.00    +0.019 C 
ATOM     20  C   UNL     1      36.932 -24.326 -12.207  0.00  0.00    +0.292 C 
ATOM     21  H   UNL     1      38.733 -23.654 -12.808  0.00  0.00    +0.178 HD
ENDBRANCH   9  17
BRANCH  11  22
ATOM     22  C   UNL     1      35.638 -18.869 -21.531  0.00  0.00    +0.057 C 
ATOM     23  C   UNL     1      35.698 -17.479 -21.587  0.00  0.00    +0.045 C 
ATOM     24  C   UNL     1      35.170 -19.599 -22.619  0.00  0.00    +0.008 C 
ATOM     25  C   UNL     1      35.287 -16.814 -22.743  0.00  0.00    +0.173 C 
ATOM     26  C   UNL     1      34.759 -18.935 -23.775  0.00  0.00    +0.040 C 
ATOM     27  C   UNL     1      34.817 -17.543 -23.836  0.00  0.00    +0.172 C 
BRANCH  25  28
ATOM     28  O   UNL     1      35.348 -15.455 -22.791  0.00  0.00    -0.468 OA
ATOM     29  C   UNL     1      34.671 -14.738 -21.761  0.00  0.00    +0.253 C 
ENDBRANCH  25  28
BRANCH  27  30
ATOM     30  O   UNL     1      34.413 -16.905 -24.971  0.00  0.00    -0.468 OA
ATOM     31  C   UNL     1      33.315 -16.004 -24.852  0.00  0.00    +0.253 C 
ENDBRANCH  27  30
ENDBRANCH  11  22
TORSDOF 4
ENDMDL
MODEL 2
REMARK VINA RESULT:     -11.8      1.366      2.136
REMARK  Name = 446286
REMARK  4 active torsions:
REMARK  status: ('A' for Active; 'I' for Inactive)
REMARK    1  A    between atoms: C_9  and  C_17
REMARK    2  A    between atoms: C_11  and  C_22
REMARK    3  A    between atoms: C_25  and  O_28
REMARK    4  A    between atoms: C_27  and  O_30
REMARK                            x       y       z     vdW  Elec       q    Type
REMARK                         _______ _______ _______ _____ _____    ______ ____
ROOT
ATOM      1  O   UNL     1      37.120 -19.066 -19.978  0.00  0.00    -0.270 OA
ATOM      2  N   UNL     1      35.088 -20.271 -19.937  0.00  0.00    -0.255 N 
ATOM      3  C   UNL     1      32.665 -20.622 -19.525  0.00  0.00    +0.027 C 
ATOM      4  C   UNL     1      32.942 -21.860 -18.694  0.00  0.00    +0.029 C 
ATOM      5  C   UNL     1      33.763 -20.453 -20.560  0.00  0.00    +0.099 C 
ATOM      6  C   UNL     1      34.360 -21.874 -18.188  0.00  0.00    -0.008 C 
ATOM      7  C   UNL     1      35.383 -21.109 -18.794  0.00  0.00    +0.050 C 
ATOM      8  C   UNL     1      34.653 -22.712 -17.096  0.00  0.00    -0.002 C 
ATOM      9  C   UNL     1      35.945 -22.797 -16.590  0.00  0.00    +0.016 C 
ATOM     10  C   UNL     1      36.684 -21.230 -18.275  0.00  0.00    +0.015 C 
ATOM     11  C   UNL     1      35.997 -19.305 -20.416  0.00  0.00    +0.253 C 
ATOM     12  C   UNL     1      36.960 -22.058 -17.182  0.00  0.00    +0.003 C 
ENDROOT
BRANCH   9  17
ATOM     13  S   UNL     1      38.248 -24.923 -14.129  0.00  0.00    -0.051 S 
ATOM     14  O   UNL     1      36.965 -26.597 -12.619  0.00  0.00    -0.261 OA
ATOM     15  N   UNL     1      35.401 -24.621 -15.133  0.00  0.00    -0.182 NA
ATOM     16  N   UNL     1      35.636 -25.473 -14.110  0.00  0.00    -0.198 N 
ATOM     17  C   UNL     1      36.237 -23.665 -15.404  0.00  0.00    +0.086 C 
ATOM     18  C   UNL     1      37.461 -23.357 -14.563  0.00  0.00    +0.098 C 
ATOM     19  C   UNL     1      37.101 -22.555 -13.316  0.00  0.00    +0.019 C 
ATOM     20  C   UNL     1      36.844 -25.767 -13.515  0.00  0.00    +0.292 C 
ATOM     21  H   UNL     1      34.850 -25.941 -13.747  0.00  0.00    +0.178 HD
ENDBRANCH   9  17
BRANCH  11  22
ATOM     22  C   UNL     1      35.577 -18.469 -21.558  0.00  0.00    +0.057 C 
ATOM     23  C   UNL     1      35.091 -19.073 -22.714  0.00  0.00    +0.045 C 
ATOM     24  C   UNL     1      35.672 -17.083 -21.472  0.00  0.00    +0.008 C 
ATOM     25  C   UNL     1      34.696 -18.283 -23.794  0.00  0.00    +0.173 C 
ATOM     26  C   UNL     1      35.277 -16.293 -22.551  0.00  0.00    +0.040 C 
ATOM     27  C   UNL     1      34.789 -16.893 -23.712  0.00  0.00    +0.172 C 
BRANCH  25  28
ATOM     28  O   UNL     1      34.221 -18.879 -24.922  0.00  0.00    -0.468 OA
ATOM     29  C   UNL     1      32.820 -19.141 -24.977  0.00  0.00    +0.253 C 
ENDBRANCH  25  28
BRANCH  27  30
ATOM     30  O   UNL     1      34.405 -16.111 -24.760  0.00  0.00    -0.468 OA
ATOM     31  C   UNL     1      33.528 -15.026 -24.471  0.00  0.00    +0.253 C 
ENDBRANCH  27  30
ENDBRANCH  11  22
TORSDOF 4
ENDMDL
MODEL 3
REMARK VINA RESULT:     -11.2      2.958     10.095
REMARK  Name = 446286
REMARK  4 active torsions:
REMARK  status: ('A' for Active; 'I' for Inactive)
REMARK    1  A    between atoms: C_9  and  C_17
REMARK    2  A    between atoms: C_11  and  C_22
REMARK    3  A    between atoms: C_25  and  O_28
REMARK    4  A    between atoms: C_27  and  O_30
REMARK                            x       y       z     vdW  Elec       q    Type
REMARK                         _______ _______ _______ _____ _____    ______ ____
ROOT
ATOM      1  O   UNL     1      37.869 -22.391 -15.968  0.00  0.00    -0.270 OA
ATOM      2  N   UNL     1      35.539 -22.495 -16.350  0.00  0.00    -0.255 N 
ATOM      3  C   UNL     1      33.386 -23.564 -16.969  0.00  0.00    +0.027 C 
ATOM      4  C   UNL     1      33.091 -22.480 -17.988  0.00  0.00    +0.029 C 
ATOM      5  C   UNL     1      34.240 -22.989 -15.853  0.00  0.00    +0.099 C 
ATOM      6  C   UNL     1      34.348 -21.757 -18.398  0.00  0.00    -0.008 C 
ATOM      7  C   UNL     1      35.516 -21.769 -17.602  0.00  0.00    +0.050 C 
ATOM      8  C   UNL     1      34.315 -21.028 -19.601  0.00  0.00    -0.002 C 
ATOM      9  C   UNL     1      35.428 -20.315 -20.031  0.00  0.00    +0.016 C 
ATOM     10  C   UNL     1      36.620 -21.023 -18.052  0.00  0.00    +0.015 C 
ATOM     11  C   UNL     1      36.737 -22.750 -15.650  0.00  0.00    +0.253 C 
ATOM     12  C   UNL     1      36.579 -20.311 -19.255  0.00  0.00    +0.003 C 
ENDROOT
BRANCH   9  17
ATOM     13  S   UNL     1      35.278 -17.086 -22.362  0.00  0.00    -0.051 S 
ATOM     14  O   UNL     1      34.577 -17.551 -24.815  0.00  0.00    -0.261 OA
ATOM     15  N   UNL     1      34.657 -20.055 -22.286  0.00  0.00    -0.182 NA
ATOM     16  N   UNL     1      34.540 -19.402 -23.465  0.00  0.00    -0.198 N 
ATOM     17  C   UNL     1      35.393 -19.571 -21.332  0.00  0.00    +0.086 C 
ATOM     18  C   UNL     1      36.247 -18.327 -21.479  0.00  0.00    +0.098 C 
ATOM     19  C   UNL     1      37.556 -18.625 -22.205  0.00  0.00    +0.019 C 
ATOM     20  C   UNL     1      34.759 -18.065 -23.715  0.00  0.00    +0.292 C 
ATOM     21  H   UNL     1      34.264 -19.947 -24.236  0.00  0.00    +0.178 HD
ENDBRANCH   9  17
BRANCH  11  22
ATOM     22  C   UNL     1      36.654 -23.541 -14.407  0.00  0.00    +0.057 C 
ATOM     23  C   UNL     1      36.988 -24.892 -14.425  0.00  0.00    +0.045 C 
ATOM     24  C   UNL     1      36.242 -22.932 -13.226  0.00  0.00    +0.008 C 
ATOM     25  C   UNL     1      36.909 -25.641 -13.251  0.00  0.00    +0.173 C 
ATOM     26  C   UNL     1      36.162 -23.680 -12.051  0.00  0.00    +0.040 C 
ATOM     27  C   UNL     1      36.495 -25.035 -12.064  0.00  0.00    +0.172 C 
BRANCH  25  28
ATOM     28  O   UNL     1      37.236 -26.963 -13.275  0.00  0.00    -0.468 OA
ATOM     29  C   UNL     1      37.296 -27.593 -14.553  0.00  0.00    +0.253 C 
ENDBRANCH  25  28
BRANCH  27  30
ATOM     30  O   UNL     1      36.415 -25.756 -10.910  0.00  0.00    -0.468 OA
ATOM     31  C   UNL     1      35.658 -25.189  -9.843  0.00  0.00    +0.253 C 
ENDBRANCH  27  30
ENDBRANCH  11  22
TORSDOF 4
ENDMDL
MODEL 4
REMARK VINA RESULT:     -10.9      5.402      9.210
REMARK  Name = 446286
REMARK  4 active torsions:
REMARK  status: ('A' for Active; 'I' for Inactive)
REMARK    1  A    between atoms: C_9  and  C_17
REMARK    2  A    between atoms: C_11  and  C_22
REMARK    3  A    between atoms: C_25  and  O_28
REMARK    4  A    between atoms: C_27  and  O_30
REMARK                            x       y       z     vdW  Elec       q    Type
REMARK                         _______ _______ _______ _____ _____    ______ ____
ROOT
ATOM      1  O   UNL     1      34.562 -11.715 -24.014  0.00  0.00    -0.270 OA
ATOM      2  N   UNL     1      33.151 -12.272 -22.202  0.00  0.00    -0.255 N 
ATOM      3  C   UNL     1      32.324 -12.198 -19.862  0.00  0.00    +0.027 C 
ATOM      4  C   UNL     1      32.384 -13.709 -19.748  0.00  0.00    +0.029 C 
ATOM      5  C   UNL     1      32.071 -11.811 -21.308  0.00  0.00    +0.099 C 
ATOM      6  C   UNL     1      33.306 -14.301 -20.782  0.00  0.00    -0.008 C 
ATOM      7  C   UNL     1      33.665 -13.603 -21.958  0.00  0.00    +0.050 C 
ATOM      8  C   UNL     1      33.783 -15.606 -20.558  0.00  0.00    -0.002 C 
ATOM      9  C   UNL     1      34.617 -16.226 -21.480  0.00  0.00    +0.016 C 
ATOM     10  C   UNL     1      34.494 -14.263 -22.882  0.00  0.00    +0.015 C 
ATOM     11  C   UNL     1      33.668 -11.440 -23.216  0.00  0.00    +0.253 C 
ATOM     12  C   UNL     1      34.970 -15.556 -22.643  0.00  0.00    +0.003 C 
ENDROOT
BRANCH   9  17
ATOM     13  S   UNL     1      34.374 -20.081 -20.498  0.00  0.00    -0.051 S 
ATOM     14  O   UNL     1      36.622 -21.164 -19.789  0.00  0.00    -0.261 OA
ATOM     15  N   UNL     1      36.260 -17.706 -20.553  0.00  0.00    -0.182 NA
ATOM     16  N   UNL     1      36.762 -18.920 -20.233  0.00  0.00    -0.198 N 
ATOM     17  C   UNL     1      35.147 -17.603 -21.213  0.00  0.00    +0.086 C 
ATOM     18  C   UNL     1      34.384 -18.793 -21.763  0.00  0.00    +0.098 C 
ATOM     19  C   UNL     1      34.995 -19.302 -23.065  0.00  0.00    +0.019 C 
ATOM     20  C   UNL     1      36.085 -20.116 -20.137  0.00  0.00    +0.292 C 
ATOM     21  H   UNL     1      37.728 -18.953 -20.044  0.00  0.00    +0.178 HD
ENDBRANCH   9  17
BRANCH  11  22
ATOM     22  C   UNL     1      33.104 -10.082 -23.350  0.00  0.00    +0.057 C 
ATOM     23  C   UNL     1      33.409  -9.112 -22.399  0.00  0.00    +0.045 C 
ATOM     24  C   UNL     1      32.270  -9.782 -24.423  0.00  0.00    +0.008 C 
ATOM     25  C   UNL     1      32.875  -7.829 -22.524  0.00  0.00    +0.173 C 
ATOM     26  C   UNL     1      31.736  -8.499 -24.548  0.00  0.00    +0.040 C 
ATOM     27  C   UNL     1      32.038  -7.523 -23.598  0.00  0.00    +0.172 C 
BRANCH  25  28
ATOM     28  O   UNL     1      33.177  -6.884 -21.591  0.00  0.00    -0.468 OA
ATOM     29  C   UNL     1      33.114  -7.280 -20.223  0.00  0.00    +0.253 C 
ENDBRANCH  25  28
BRANCH  27  30
ATOM     30  O   UNL     1      31.511  -6.273 -23.731  0.00  0.00    -0.468 OA
ATOM     31  C   UNL     1      31.913  -5.519 -24.871  0.00  0.00    +0.253 C 
ENDBRANCH  27  30
ENDBRANCH  11  22
TORSDOF 4
ENDMDL
MODEL 5
REMARK VINA RESULT:     -10.9      4.999      8.824
REMARK  Name = 446286
REMARK  4 active torsions:
REMARK  status: ('A' for Active; 'I' for Inactive)
REMARK    1  A    between atoms: C_9  and  C_17
REMARK    2  A    between atoms: C_11  and  C_22
REMARK    3  A    between atoms: C_25  and  O_28
REMARK    4  A    between atoms: C_27  and  O_30
REMARK                            x       y       z     vdW  Elec       q    Type
REMARK                         _______ _______ _______ _____ _____    ______ ____
ROOT
ATOM      1  O   UNL     1      32.959 -12.078 -20.660  0.00  0.00    -0.270 OA
ATOM      2  N   UNL     1      33.558 -12.906 -22.790  0.00  0.00    -0.255 N 
ATOM      3  C   UNL     1      33.162 -13.815 -25.067  0.00  0.00    +0.027 C 
ATOM      4  C   UNL     1      34.080 -14.993 -24.803  0.00  0.00    +0.029 C 
ATOM      5  C   UNL     1      33.616 -12.626 -24.238  0.00  0.00    +0.099 C 
ATOM      6  C   UNL     1      34.262 -15.225 -23.325  0.00  0.00    -0.008 C 
ATOM      7  C   UNL     1      34.012 -14.215 -22.368  0.00  0.00    +0.050 C 
ATOM      8  C   UNL     1      34.732 -16.487 -22.918  0.00  0.00    -0.002 C 
ATOM      9  C   UNL     1      34.949 -16.766 -21.574  0.00  0.00    +0.016 C 
ATOM     10  C   UNL     1      34.260 -14.518 -21.018  0.00  0.00    +0.015 C 
ATOM     11  C   UNL     1      33.055 -11.955 -21.879  0.00  0.00    +0.253 C 
ATOM     12  C   UNL     1      34.716 -15.780 -20.625  0.00  0.00    +0.003 C 
ENDROOT
BRANCH   9  17
ATOM     13  S   UNL     1      34.522 -20.484 -20.202  0.00  0.00    -0.051 S 
ATOM     14  O   UNL     1      36.706 -21.571 -19.319  0.00  0.00    -0.261 OA
ATOM     15  N   UNL     1      36.506 -18.201 -20.450  0.00  0.00    -0.182 NA
ATOM     16  N   UNL     1      36.950 -19.393 -19.990  0.00  0.00    -0.198 N 
ATOM     17  C   UNL     1      35.415 -18.126 -21.150  0.00  0.00    +0.086 C 
ATOM     18  C   UNL     1      34.618 -19.338 -21.594  0.00  0.00    +0.098 C 
ATOM     19  C   UNL     1      35.240 -20.004 -22.817  0.00  0.00    +0.019 C 
ATOM     20  C   UNL     1      36.222 -20.545 -19.790  0.00  0.00    +0.292 C 
ATOM     21  H   UNL     1      37.908 -19.443 -19.771  0.00  0.00    +0.178 HD
ENDBRANCH   9  17
BRANCH  11  22
ATOM     22  C   UNL     1      32.573 -10.668 -22.420  0.00  0.00    +0.057 C 
ATOM     23  C   UNL     1      33.484  -9.755 -22.944  0.00  0.00    +0.045 C 
ATOM     24  C   UNL     1      31.213 -10.377 -22.401  0.00  0.00    +0.008 C 
ATOM     25  C   UNL     1      33.030  -8.539 -23.454  0.00  0.00    +0.173 C 
ATOM     26  C   UNL     1      30.758  -9.160 -22.911  0.00  0.00    +0.040 C 
ATOM     27  C   UNL     1      31.666  -8.242 -23.436  0.00  0.00    +0.172 C 
BRANCH  25  28
ATOM     28  O   UNL     1      33.925  -7.649 -23.964  0.00  0.00    -0.468 OA
ATOM     29  C   UNL     1      35.106  -7.407 -23.202  0.00  0.00    +0.253 C 
ENDBRANCH  25  28
BRANCH  27  30
ATOM     30  O   UNL     1      31.210  -7.057 -23.933  0.00  0.00    -0.468 OA
ATOM     31  C   UNL     1      30.858  -6.051 -22.987  0.00  0.00    +0.253 C 
ENDBRANCH  27  30
ENDBRANCH  11  22
TORSDOF 4
ENDMDL
MODEL 6
REMARK VINA RESULT:     -10.6      9.076     14.944
REMARK  Name = 446286
REMARK  4 active torsions:
REMARK  status: ('A' for Active; 'I' for Inactive)
REMARK    1  A    between atoms: C_9  and  C_17
REMARK    2  A    between atoms: C_11  and  C_22
REMARK    3  A    between atoms: C_25  and  O_28
REMARK    4  A    between atoms: C_27  and  O_30
REMARK                            x       y       z     vdW  Elec       q    Type
REMARK                         _______ _______ _______ _____ _____    ______ ____
ROOT
ATOM      1  O   UNL     1      31.444 -11.998 -22.556  0.00  0.00    -0.270 OA
ATOM      2  N   UNL     1      33.223 -10.783 -23.528  0.00  0.00    -0.255 N 
ATOM      3  C   UNL     1      35.504  -9.812 -23.660  0.00  0.00    +0.027 C 
ATOM      4  C   UNL     1      34.947  -8.431 -23.943  0.00  0.00    +0.029 C 
ATOM      5  C   UNL     1      34.541 -10.862 -24.186  0.00  0.00    +0.099 C 
ATOM      6  C   UNL     1      33.511  -8.318 -23.501  0.00  0.00    -0.008 C 
ATOM      7  C   UNL     1      32.692  -9.454 -23.308  0.00  0.00    +0.050 C 
ATOM      8  C   UNL     1      32.988  -7.025 -23.316  0.00  0.00    -0.002 C 
ATOM      9  C   UNL     1      31.664  -6.842 -22.933  0.00  0.00    +0.016 C 
ATOM     10  C   UNL     1      31.352  -9.238 -22.941  0.00  0.00    +0.015 C 
ATOM     11  C   UNL     1      32.540 -11.944 -23.111  0.00  0.00    +0.253 C 
ATOM     12  C   UNL     1      30.846  -7.948 -22.749  0.00  0.00    +0.003 C 
ENDROOT
BRANCH   9  17
ATOM     13  S   UNL     1      31.879  -2.878 -22.573  0.00  0.00    -0.051 S 
ATOM     14  O   UNL     1      29.848  -1.786 -21.386  0.00  0.00    -0.261 OA
ATOM     15  N   UNL     1      30.243  -5.303 -21.767  0.00  0.00    -0.182 NA
ATOM     16  N   UNL     1      29.760  -4.074 -21.475  0.00  0.00    -0.198 N 
ATOM     17  C   UNL     1      31.128  -5.461 -22.705  0.00  0.00    +0.086 C 
ATOM     18  C   UNL     1      31.610  -4.337 -23.602  0.00  0.00    +0.098 C 
ATOM     19  C   UNL     1      30.617  -4.047 -24.724  0.00  0.00    +0.019 C 
ATOM     20  C   UNL     1      30.343  -2.853 -21.737  0.00  0.00    +0.292 C 
ATOM     21  H   UNL     1      28.889  -4.049 -21.019  0.00  0.00    +0.178 HD
ENDBRANCH   9  17
BRANCH  11  22
ATOM     22  C   UNL     1      33.192 -13.248 -23.341  0.00  0.00    +0.057 C 
ATOM     23  C   UNL     1      33.896 -13.859 -22.307  0.00  0.00    +0.045 C 
ATOM     24  C   UNL     1      33.101 -13.856 -24.589  0.00  0.00    +0.008 C 
ATOM     25  C   UNL     1      34.514 -15.091 -22.524  0.00  0.00    +0.173 C 
ATOM     26  C   UNL     1      33.720 -15.087 -24.807  0.00  0.00    +0.040 C 
ATOM     27  C   UNL     1      34.426 -15.704 -23.774  0.00  0.00    +0.172 C 
BRANCH  25  28
ATOM     28  O   UNL     1      35.201 -15.685 -21.509  0.00  0.00    -0.468 OA
ATOM     29  C   UNL     1      34.685 -15.514 -20.191  0.00  0.00    +0.253 C 
ENDBRANCH  25  28
BRANCH  27  30
ATOM     30  O   UNL     1      35.025 -16.908 -23.999  0.00  0.00    -0.468 OA
ATOM     31  C   UNL     1      34.182 -17.987 -24.394  0.00  0.00    +0.253 C 
ENDBRANCH  27  30
ENDBRANCH  11  22
TORSDOF 4
ENDMDL
MODEL 7
REMARK VINA RESULT:     -10.4      7.526     13.233
REMARK  Name = 446286
REMARK  4 active torsions:
REMARK  status: ('A' for Active; 'I' for Inactive)
REMARK    1  A    between atoms: C_9  and  C_17
REMARK    2  A    between atoms: C_11  and  C_22
REMARK    3  A    between atoms: C_25  and  O_28
REMARK    4  A    between atoms: C_27  and  O_30
REMARK                            x       y       z     vdW  Elec       q    Type
REMARK                         _______ _______ _______ _____ _____    ______ ____
ROOT
ATOM      1  O   UNL     1      34.341 -13.250 -24.423  0.00  0.00    -0.270 OA
ATOM      2  N   UNL     1      33.551 -13.004 -22.210  0.00  0.00    -0.255 N 
ATOM      3  C   UNL     1      31.980 -13.315 -20.312  0.00  0.00    +0.027 C 
ATOM      4  C   UNL     1      31.911 -11.820 -20.067  0.00  0.00    +0.029 C 
ATOM      5  C   UNL     1      33.331 -13.667 -20.909  0.00  0.00    +0.099 C 
ATOM      6  C   UNL     1      32.337 -11.046 -21.287  0.00  0.00    -0.008 C 
ATOM      7  C   UNL     1      33.127 -11.623 -22.308  0.00  0.00    +0.050 C 
ATOM      8  C   UNL     1      31.949  -9.696 -21.368  0.00  0.00    -0.002 C 
ATOM      9  C   UNL     1      32.326  -8.911 -22.451  0.00  0.00    +0.016 C 
ATOM     10  C   UNL     1      33.510 -10.800 -23.382  0.00  0.00    +0.015 C 
ATOM     11  C   UNL     1      34.114 -13.697 -23.300  0.00  0.00    +0.253 C 
ATOM     12  C   UNL     1      33.109  -9.463 -23.456  0.00  0.00    +0.003 C 
ENDROOT
BRANCH   9  17
ATOM     13  S   UNL     1      32.106  -5.095 -21.322  0.00  0.00    -0.051 S 
ATOM     14  O   UNL     1      30.119  -3.775 -22.342  0.00  0.00    -0.261 OA
ATOM     15  N   UNL     1      30.638  -7.259 -22.862  0.00  0.00    -0.182 NA
ATOM     16  N   UNL     1      30.157  -5.995 -22.908  0.00  0.00    -0.198 N 
ATOM     17  C   UNL     1      31.877  -7.484 -22.544  0.00  0.00    +0.086 C 
ATOM     18  C   UNL     1      32.896  -6.385 -22.307  0.00  0.00    +0.098 C 
ATOM     19  C   UNL     1      33.437  -5.826 -23.619  0.00  0.00    +0.019 C 
ATOM     20  C   UNL     1      30.658  -4.877 -22.279  0.00  0.00    +0.292 C 
ATOM     21  H   UNL     1      29.352  -5.859 -23.457  0.00  0.00    +0.178 HD
ENDBRANCH   9  17
BRANCH  11  22
ATOM     22  C   UNL     1      34.468 -15.118 -23.107  0.00  0.00    +0.057 C 
ATOM     23  C   UNL     1      34.238 -16.032 -24.131  0.00  0.00    +0.045 C 
ATOM     24  C   UNL     1      35.027 -15.533 -21.902  0.00  0.00    +0.008 C 
ATOM     25  C   UNL     1      34.570 -17.374 -23.948  0.00  0.00    +0.173 C 
ATOM     26  C   UNL     1      35.360 -16.875 -21.719  0.00  0.00    +0.040 C 
ATOM     27  C   UNL     1      35.131 -17.795 -22.742  0.00  0.00    +0.172 C 
BRANCH  25  28
ATOM     28  O   UNL     1      34.342 -18.264 -24.953  0.00  0.00    -0.468 OA
ATOM     29  C   UNL     1      33.169 -19.068 -24.854  0.00  0.00    +0.253 C 
ENDBRANCH  25  28
BRANCH  27  30
ATOM     30  O   UNL     1      35.461 -19.104 -22.551  0.00  0.00    -0.468 OA
ATOM     31  C   UNL     1      34.974 -19.730 -21.367  0.00  0.00    +0.253 C 
ENDBRANCH  27  30
ENDBRANCH  11  22
TORSDOF 4
ENDMDL
MODEL 8
REMARK VINA RESULT:     -10.3      8.850     14.400
REMARK  Name = 446286
REMARK  4 active torsions:
REMARK  status: ('A' for Active; 'I' for Inactive)
REMARK    1  A    between atoms: C_9  and  C_17
REMARK    2  A    between atoms: C_11  and  C_22
REMARK    3  A    between atoms: C_25  and  O_28
REMARK    4  A    between atoms: C_27  and  O_30
REMARK                            x       y       z     vdW  Elec       q    Type
REMARK                         _______ _______ _______ _____ _____    ______ ____
ROOT
ATOM      1  O   UNL     1      33.615 -11.450 -24.830  0.00  0.00    -0.270 OA
ATOM      2  N   UNL     1      32.816 -11.413 -22.607  0.00  0.00    -0.255 N 
ATOM      3  C   UNL     1      31.239 -11.904 -20.752  0.00  0.00    +0.027 C 
ATOM      4  C   UNL     1      31.163 -10.439 -20.371  0.00  0.00    +0.029 C 
ATOM      5  C   UNL     1      32.594 -12.194 -21.374  0.00  0.00    +0.099 C 
ATOM      6  C   UNL     1      31.590  -9.553 -21.512  0.00  0.00    -0.008 C 
ATOM      7  C   UNL     1      32.386 -10.030 -22.579  0.00  0.00    +0.050 C 
ATOM      8  C   UNL     1      31.197  -8.203 -21.470  0.00  0.00    -0.002 C 
ATOM      9  C   UNL     1      31.574  -7.320 -22.474  0.00  0.00    +0.016 C 
ATOM     10  C   UNL     1      32.770  -9.110 -23.570  0.00  0.00    +0.015 C 
ATOM     11  C   UNL     1      33.386 -12.000 -23.755  0.00  0.00    +0.253 C 
ATOM     12  C   UNL     1      32.363  -7.773 -23.522  0.00  0.00    +0.003 C 
ENDROOT
BRANCH   9  17
ATOM     13  S   UNL     1      32.031  -3.361 -22.567  0.00  0.00    -0.051 S 
ATOM     14  O   UNL     1      30.024  -2.016 -21.624  0.00  0.00    -0.261 OA
ATOM     15  N   UNL     1      30.205  -5.571 -21.572  0.00  0.00    -0.182 NA
ATOM     16  N   UNL     1      29.791  -4.289 -21.450  0.00  0.00    -0.198 N 
ATOM     17  C   UNL     1      31.119  -5.892 -22.436  0.00  0.00    +0.086 C 
ATOM     18  C   UNL     1      31.714  -4.914 -23.432  0.00  0.00    +0.098 C 
ATOM     19  C   UNL     1      30.795  -4.701 -24.631  0.00  0.00    +0.019 C 
ATOM     20  C   UNL     1      30.463  -3.145 -21.822  0.00  0.00    +0.292 C 
ATOM     21  H   UNL     1      28.903  -4.158 -21.047  0.00  0.00    +0.178 HD
ENDBRANCH   9  17
BRANCH  11  22
ATOM     22  C   UNL     1      33.746 -13.431 -23.692  0.00  0.00    +0.057 C 
ATOM     23  C   UNL     1      34.303 -13.952 -22.528  0.00  0.00    +0.045 C 
ATOM     24  C   UNL     1      33.526 -14.247 -24.797  0.00  0.00    +0.008 C 
ATOM     25  C   UNL     1      34.645 -15.303 -22.469  0.00  0.00    +0.173 C 
ATOM     26  C   UNL     1      33.868 -15.599 -24.739  0.00  0.00    +0.040 C 
ATOM     27  C   UNL     1      34.427 -16.126 -23.574  0.00  0.00    +0.172 C 
BRANCH  25  28
ATOM     28  O   UNL     1      35.190 -15.808 -21.327  0.00  0.00    -0.468 OA
ATOM     29  C   UNL     1      34.696 -15.296 -20.092  0.00  0.00    +0.253 C 
ENDBRANCH  25  28
BRANCH  27  30
ATOM     30  O   UNL     1      34.755 -17.448 -23.529  0.00  0.00    -0.468 OA
ATOM     31  C   UNL     1      34.063 -18.319 -24.420  0.00  0.00    +0.253 C 
ENDBRANCH  27  30
ENDBRANCH  11  22
TORSDOF 4
ENDMDL
MODEL 9
REMARK VINA RESULT:     -10.1      2.947      9.989
REMARK  Name = 446286
REMARK  4 active torsions:
REMARK  status: ('A' for Active; 'I' for Inactive)
REMARK    1  A    between atoms: C_9  and  C_17
REMARK    2  A    between atoms: C_11  and  C_22
REMARK    3  A    between atoms: C_25  and  O_28
REMARK    4  A    between atoms: C_27  and  O_30
REMARK                            x       y       z     vdW  Elec       q    Type
REMARK                         _______ _______ _______ _____ _____    ______ ____
ROOT
ATOM      1  O   UNL     1      37.879 -22.453 -16.255  0.00  0.00    -0.270 OA
ATOM      2  N   UNL     1      35.544 -22.534 -16.609  0.00  0.00    -0.255 N 
ATOM      3  C   UNL     1      33.379 -23.567 -17.248  0.00  0.00    +0.027 C 
ATOM      4  C   UNL     1      33.074 -22.437 -18.211  0.00  0.00    +0.029 C 
ATOM      5  C   UNL     1      34.250 -23.047 -16.118  0.00  0.00    +0.099 C 
ATOM      6  C   UNL     1      34.327 -21.700 -18.605  0.00  0.00    -0.008 C 
ATOM      7  C   UNL     1      35.507 -21.751 -17.827  0.00  0.00    +0.050 C 
ATOM      8  C   UNL     1      34.281 -20.916 -19.773  0.00  0.00    -0.002 C 
ATOM      9  C   UNL     1      35.391 -20.187 -20.185  0.00  0.00    +0.016 C 
ATOM     10  C   UNL     1      36.607 -20.988 -18.257  0.00  0.00    +0.015 C 
ATOM     11  C   UNL     1      36.750 -22.823 -15.938  0.00  0.00    +0.253 C 
ATOM     12  C   UNL     1      36.552 -20.221 -19.425  0.00  0.00    +0.003 C 
ENDROOT
BRANCH   9  17
ATOM     13  S   UNL     1      35.198 -16.855 -22.363  0.00  0.00    -0.051 S 
ATOM     14  O   UNL     1      34.484 -17.212 -24.831  0.00  0.00    -0.261 OA
ATOM     15  N   UNL     1      34.601 -19.829 -22.420  0.00  0.00    -0.182 NA
ATOM     16  N   UNL     1      34.471 -19.124 -23.567  0.00  0.00    -0.198 N 
ATOM     17  C   UNL     1      35.341 -19.385 -21.450  0.00  0.00    +0.086 C 
ATOM     18  C   UNL     1      36.184 -18.127 -21.545  0.00  0.00    +0.098 C 
ATOM     19  C   UNL     1      37.490 -18.380 -22.292  0.00  0.00    +0.019 C 
ATOM     20  C   UNL     1      34.677 -17.775 -23.757  0.00  0.00    +0.292 C 
ATOM     21  H   UNL     1      34.194 -19.635 -24.360  0.00  0.00    +0.178 HD
ENDBRANCH   9  17
BRANCH  11  22
ATOM     22  C   UNL     1      36.682 -23.671 -14.731  0.00  0.00    +0.057 C 
ATOM     23  C   UNL     1      36.312 -23.109 -13.513  0.00  0.00    +0.045 C 
ATOM     24  C   UNL     1      36.990 -25.025 -14.819  0.00  0.00    +0.008 C 
ATOM     25  C   UNL     1      36.249 -23.909 -12.372  0.00  0.00    +0.173 C 
ATOM     26  C   UNL     1      36.928 -25.825 -13.678  0.00  0.00    +0.040 C 
ATOM     27  C   UNL     1      36.557 -25.267 -12.455  0.00  0.00    +0.172 C 
BRANCH  25  28
ATOM     28  O   UNL     1      35.885 -23.353 -11.183  0.00  0.00    -0.468 OA
ATOM     29  C   UNL     1      36.924 -22.787 -10.387  0.00  0.00    +0.253 C 
ENDBRANCH  25  28
BRANCH  27  30
ATOM     30  O   UNL     1      36.499 -26.059 -11.348  0.00  0.00    -0.468 OA
ATOM     31  C   UNL     1      37.681 -26.776 -11.000  0.00  0.00    +0.253 C 
ENDBRANCH  27  30
ENDBRANCH  11  22
TORSDOF 4
ENDMDL
