MODEL 1
REMARK VINA RESULT:     -11.4      0.000      0.000
REMARK  Name = 5288527
REMARK  4 active torsions:
REMARK  status: ('A' for Active; 'I' for Inactive)
REMARK    1  A    between atoms: N_1  and  C_18
REMARK    2  A    between atoms: C_4  and  C_11
REMARK    3  A    between atoms: C_19  and  S_24
REMARK    4  A    between atoms: S_24  and  N_27
REMARK                            x       y       z     vdW  Elec       q    Type
REMARK                         _______ _______ _______ _____ _____    ______ ____
ROOT
ATOM      1  N   UNL     1      34.898 -24.948 -12.628  0.00  0.00    -0.247 N 
ATOM      2  N   UNL     1      34.025 -23.922 -14.549  0.00  0.00    -0.336 NA
ATOM      3  N   UNL     1      32.628 -24.356 -12.635  0.00  0.00    -0.170 NA
ATOM      4  C   UNL     1      32.950 -23.387 -15.160  0.00  0.00    +0.161 C 
ATOM      5  C   UNL     1      33.796 -24.381 -13.304  0.00  0.00    +0.149 C 
ATOM      6  C   UNL     1      31.700 -23.300 -14.588  0.00  0.00    +0.056 C 
ATOM      7  C   UNL     1      31.597 -23.806 -13.309  0.00  0.00    +0.114 C 
ATOM      8  H   UNL     1      34.685 -25.270 -11.723  0.00  0.00    +0.165 HD
ENDROOT
BRANCH   4  11
ATOM      9  N   UNL     1      34.424 -22.498 -16.970  0.00  0.00    -0.246 N 
ATOM     10  N   UNL     1      32.973 -22.231 -18.652  0.00  0.00    -0.227 NA
ATOM     11  C   UNL     1      33.200 -22.897 -16.495  0.00  0.00    +0.107 C 
ATOM     12  C   UNL     1      34.233 -22.100 -18.291  0.00  0.00    +0.139 C 
ATOM     13  C   UNL     1      32.330 -22.724 -17.545  0.00  0.00    +0.118 C 
ATOM     14  C   UNL     1      35.657 -22.465 -16.325  0.00  0.00    +0.071 C 
ATOM     15  C   UNL     1      35.381 -21.639 -18.999  0.00  0.00    +0.035 C 
ATOM     16  C   UNL     1      36.733 -22.029 -16.999  0.00  0.00    +0.017 C 
ATOM     17  C   UNL     1      36.577 -21.604 -18.382  0.00  0.00    +0.004 C 
ENDBRANCH   4  11
BRANCH   1  18
ATOM     18  C   UNL     1      36.243 -25.144 -12.995  0.00  0.00    +0.058 C 
ATOM     19  C   UNL     1      38.910 -25.532 -13.725  0.00  0.00    +0.122 C 
ATOM     20  C   UNL     1      37.267 -24.592 -12.223  0.00  0.00    +0.017 C 
ATOM     21  C   UNL     1      36.557 -25.891 -14.133  0.00  0.00    +0.017 C 
ATOM     22  C   UNL     1      38.599 -24.786 -12.588  0.00  0.00    +0.021 C 
ATOM     23  C   UNL     1      37.888 -26.084 -14.497  0.00  0.00    +0.021 C 
BRANCH  19  24
ATOM     24  S   UNL     1      40.578 -25.775 -14.182  0.00  0.00    +0.057 S 
ATOM     25  O   UNL     1      41.279 -24.505 -14.050  0.00  0.00    -0.153 OA
ATOM     26  O   UNL     1      41.081 -26.953 -13.491  0.00  0.00    -0.153 OA
BRANCH  24  27
ATOM     27  N   UNL     1      40.411 -26.143 -15.842  0.00  0.00    -0.203 NA
ATOM     28  H   UNL     1      39.439 -26.014 -16.122  0.00  0.00    +0.144 HD
ATOM     29  H   UNL     1      40.688 -27.111 -16.005  0.00  0.00    +0.144 HD
ENDBRANCH  24  27
ENDBRANCH  19  24
ENDBRANCH   1  18
TORSDOF 4
ENDMDL
MODEL 2
REMARK VINA RESULT:     -11.3      4.966      6.960
REMARK  Name = 5288527
REMARK  4 active torsions:
REMARK  status: ('A' for Active; 'I' for Inactive)
REMARK    1  A    between atoms: N_1  and  C_18
REMARK    2  A    between atoms: C_4  and  C_11
REMARK    3  A    between atoms: C_19  and  S_24
REMARK    4  A    between atoms: S_24  and  N_27
REMARK                            x       y       z     vdW  Elec       q    Type
REMARK                         _______ _______ _______ _____ _____    ______ ____
ROOT
ATOM      1  N   UNL     1      32.727 -24.654 -12.705  0.00  0.00    -0.247 N 
ATOM      2  N   UNL     1      34.486 -23.773 -13.983  0.00  0.00    -0.336 NA
ATOM      3  N   UNL     1      34.921 -24.951 -11.927  0.00  0.00    -0.170 NA
ATOM      4  C   UNL     1      35.816 -23.598 -14.116  0.00  0.00    +0.161 C 
ATOM      5  C   UNL     1      34.113 -24.449 -12.881  0.00  0.00    +0.149 C 
ATOM      6  C   UNL     1      36.749 -24.060 -13.215  0.00  0.00    +0.056 C 
ATOM      7  C   UNL     1      36.238 -24.737 -12.127  0.00  0.00    +0.114 C 
ATOM      8  H   UNL     1      32.501 -25.153 -11.887  0.00  0.00    +0.165 HD
ENDROOT
BRANCH   4  11
ATOM      9  N   UNL     1      35.430 -22.700 -16.414  0.00  0.00    -0.246 N 
ATOM     10  N   UNL     1      37.362 -21.649 -16.825  0.00  0.00    -0.227 NA
ATOM     11  C   UNL     1      36.211 -22.871 -15.299  0.00  0.00    +0.107 C 
ATOM     12  C   UNL     1      36.177 -21.947 -17.317  0.00  0.00    +0.139 C 
ATOM     13  C   UNL     1      37.388 -22.218 -15.577  0.00  0.00    +0.118 C 
ATOM     14  C   UNL     1      34.140 -23.154 -16.671  0.00  0.00    +0.071 C 
ATOM     15  C   UNL     1      35.562 -21.639 -18.566  0.00  0.00    +0.035 C 
ATOM     16  C   UNL     1      33.568 -22.860 -17.849  0.00  0.00    +0.017 C 
ATOM     17  C   UNL     1      34.314 -22.076 -18.822  0.00  0.00    +0.004 C 
ENDBRANCH   4  11
BRANCH   1  18
ATOM     18  C   UNL     1      31.605 -24.287 -13.472  0.00  0.00    +0.058 C 
ATOM     19  C   UNL     1      29.380 -23.557 -14.992  0.00  0.00    +0.122 C 
ATOM     20  C   UNL     1      30.682 -25.255 -13.871  0.00  0.00    +0.017 C 
ATOM     21  C   UNL     1      31.412 -22.952 -13.834  0.00  0.00    +0.017 C 
ATOM     22  C   UNL     1      29.571 -24.891 -14.631  0.00  0.00    +0.021 C 
ATOM     23  C   UNL     1      30.301 -22.588 -14.594  0.00  0.00    +0.021 C 
BRANCH  19  24
ATOM     24  S   UNL     1      27.989 -23.100 -15.943  0.00  0.00    +0.057 S 
ATOM     25  O   UNL     1      26.851 -22.945 -15.048  0.00  0.00    -0.153 OA
ATOM     26  O   UNL     1      28.370 -22.005 -16.824  0.00  0.00    -0.153 OA
BRANCH  24  27
ATOM     27  N   UNL     1      27.761 -24.508 -16.885  0.00  0.00    -0.203 NA
ATOM     28  H   UNL     1      26.973 -24.370 -17.517  0.00  0.00    +0.144 HD
ATOM     29  H   UNL     1      27.572 -25.300 -16.271  0.00  0.00    +0.144 HD
ENDBRANCH  24  27
ENDBRANCH  19  24
ENDBRANCH   1  18
TORSDOF 4
ENDMDL
MODEL 3
REMARK VINA RESULT:     -10.8      4.170      7.097
REMARK  Name = 5288527
REMARK  4 active torsions:
REMARK  status: ('A' for Active; 'I' for Inactive)
REMARK    1  A    between atoms: N_1  and  C_18
REMARK    2  A    between atoms: C_4  and  C_11
REMARK    3  A    between atoms: C_19  and  S_24
REMARK    4  A    between atoms: S_24  and  N_27
REMARK                            x       y       z     vdW  Elec       q    Type
REMARK                         _______ _______ _______ _____ _____    ______ ____
ROOT
ATOM      1  N   UNL     1      32.512 -22.377 -17.860  0.00  0.00    -0.247 N 
ATOM      2  N   UNL     1      34.045 -23.022 -16.205  0.00  0.00    -0.336 NA
ATOM      3  N   UNL     1      31.746 -23.736 -16.107  0.00  0.00    -0.170 NA
ATOM      4  C   UNL     1      34.262 -23.705 -15.064  0.00  0.00    +0.161 C 
ATOM      5  C   UNL     1      32.781 -23.080 -16.665  0.00  0.00    +0.149 C 
ATOM      6  C   UNL     1      33.292 -24.417 -14.393  0.00  0.00    +0.056 C 
ATOM      7  C   UNL     1      32.038 -24.397 -14.968  0.00  0.00    +0.114 C 
ATOM      8  H   UNL     1      31.576 -22.447 -18.158  0.00  0.00    +0.165 HD
ENDROOT
BRANCH   4  11
ATOM      9  N   UNL     1      36.462 -24.715 -14.447  0.00  0.00    -0.246 N 
ATOM     10  N   UNL     1      37.609 -22.923 -13.757  0.00  0.00    -0.227 NA
ATOM     11  C   UNL     1      35.618 -23.640 -14.574  0.00  0.00    +0.107 C 
ATOM     12  C   UNL     1      37.665 -24.225 -13.944  0.00  0.00    +0.139 C 
ATOM     13  C   UNL     1      36.346 -22.555 -14.145  0.00  0.00    +0.118 C 
ATOM     14  C   UNL     1      36.237 -26.057 -14.739  0.00  0.00    +0.071 C 
ATOM     15  C   UNL     1      38.707 -25.173 -13.726  0.00  0.00    +0.035 C 
ATOM     16  C   UNL     1      37.224 -26.943 -14.531  0.00  0.00    +0.017 C 
ATOM     17  C   UNL     1      38.497 -26.474 -14.007  0.00  0.00    +0.004 C 
ENDBRANCH   4  11
BRANCH   1  18
ATOM     18  C   UNL     1      33.319 -21.597 -18.708  0.00  0.00    +0.058 C 
ATOM     19  C   UNL     1      34.920 -20.048 -20.392  0.00  0.00    +0.122 C 
ATOM     20  C   UNL     1      34.698 -21.813 -18.758  0.00  0.00    +0.017 C 
ATOM     21  C   UNL     1      32.744 -20.603 -19.503  0.00  0.00    +0.017 C 
ATOM     22  C   UNL     1      35.497 -21.040 -19.599  0.00  0.00    +0.021 C 
ATOM     23  C   UNL     1      33.543 -19.830 -20.344  0.00  0.00    +0.021 C 
BRANCH  19  24
ATOM     24  S   UNL     1      35.920 -19.078 -21.445  0.00  0.00    +0.057 S 
ATOM     25  O   UNL     1      37.309 -19.245 -21.039  0.00  0.00    -0.153 OA
ATOM     26  O   UNL     1      35.533 -19.341 -22.823  0.00  0.00    -0.153 OA
BRANCH  24  27
ATOM     27  N   UNL     1      35.408 -17.503 -21.022  0.00  0.00    -0.203 NA
ATOM     28  H   UNL     1      34.455 -17.356 -21.354  0.00  0.00    +0.144 HD
ATOM     29  H   UNL     1      36.029 -16.817 -21.452  0.00  0.00    +0.144 HD
ENDBRANCH  24  27
ENDBRANCH  19  24
ENDBRANCH   1  18
TORSDOF 4
ENDMDL
MODEL 4
REMARK VINA RESULT:      -9.8      8.426     11.642
REMARK  Name = 5288527
REMARK  4 active torsions:
REMARK  status: ('A' for Active; 'I' for Inactive)
REMARK    1  A    between atoms: N_1  and  C_18
REMARK    2  A    between atoms: C_4  and  C_11
REMARK    3  A    between atoms: C_19  and  S_24
REMARK    4  A    between atoms: S_24  and  N_27
REMARK                            x       y       z     vdW  Elec       q    Type
REMARK                         _______ _______ _______ _____ _____    ______ ____
ROOT
ATOM      1  N   UNL     1      34.866 -17.253 -24.019  0.00  0.00    -0.247 N 
ATOM      2  N   UNL     1      33.874 -15.431 -22.924  0.00  0.00    -0.336 NA
ATOM      3  N   UNL     1      34.114 -15.452 -25.321  0.00  0.00    -0.170 NA
ATOM      4  C   UNL     1      33.294 -14.220 -23.034  0.00  0.00    +0.161 C 
ATOM      5  C   UNL     1      34.254 -15.983 -24.092  0.00  0.00    +0.149 C 
ATOM      6  C   UNL     1      33.090 -13.567 -24.230  0.00  0.00    +0.056 C 
ATOM      7  C   UNL     1      33.525 -14.239 -25.354  0.00  0.00    +0.114 C 
ATOM      8  H   UNL     1      35.127 -17.618 -24.896  0.00  0.00    +0.165 HD
ENDROOT
BRANCH   4  11
ATOM      9  N   UNL     1      32.412 -12.354 -21.627  0.00  0.00    -0.246 N 
ATOM     10  N   UNL     1      32.418 -13.277 -19.589  0.00  0.00    -0.227 NA
ATOM     11  C   UNL     1      32.888 -13.632 -21.780  0.00  0.00    +0.107 C 
ATOM     12  C   UNL     1      32.139 -12.185 -20.272  0.00  0.00    +0.139 C 
ATOM     13  C   UNL     1      32.881 -14.175 -20.517  0.00  0.00    +0.118 C 
ATOM     14  C   UNL     1      32.212 -11.363 -22.583  0.00  0.00    +0.071 C 
ATOM     15  C   UNL     1      31.627 -10.917 -19.869  0.00  0.00    +0.035 C 
ATOM     16  C   UNL     1      31.730 -10.171 -22.196  0.00  0.00    +0.017 C 
ATOM     17  C   UNL     1      31.431  -9.953 -20.789  0.00  0.00    +0.004 C 
ENDBRANCH   4  11
BRANCH   1  18
ATOM     18  C   UNL     1      35.175 -18.102 -22.939  0.00  0.00    +0.058 C 
ATOM     19  C   UNL     1      35.787 -19.786 -20.798  0.00  0.00    +0.122 C 
ATOM     20  C   UNL     1      36.261 -17.814 -22.111  0.00  0.00    +0.017 C 
ATOM     21  C   UNL     1      34.395 -19.234 -22.693  0.00  0.00    +0.017 C 
ATOM     22  C   UNL     1      36.567 -18.655 -21.041  0.00  0.00    +0.021 C 
ATOM     23  C   UNL     1      34.701 -20.075 -21.624  0.00  0.00    +0.021 C 
BRANCH  19  24
ATOM     24  S   UNL     1      36.169 -20.839 -19.459  0.00  0.00    +0.057 S 
ATOM     25  O   UNL     1      36.792 -22.045 -19.988  0.00  0.00    -0.153 OA
ATOM     26  O   UNL     1      36.853 -20.060 -18.437  0.00  0.00    -0.153 OA
BRANCH  24  27
ATOM     27  N   UNL     1      34.604 -21.230 -18.894  0.00  0.00    -0.203 NA
ATOM     28  H   UNL     1      34.646 -21.441 -17.897  0.00  0.00    +0.144 HD
ATOM     29  H   UNL     1      34.253 -22.044 -19.400  0.00  0.00    +0.144 HD
ENDBRANCH  24  27
ENDBRANCH  19  24
ENDBRANCH   1  18
TORSDOF 4
ENDMDL
MODEL 5
REMARK VINA RESULT:      -9.7     12.925     15.541
REMARK  Name = 5288527
REMARK  4 active torsions:
REMARK  status: ('A' for Active; 'I' for Inactive)
REMARK    1  A    between atoms: N_1  and  C_18
REMARK    2  A    between atoms: C_4  and  C_11
REMARK    3  A    between atoms: C_19  and  S_24
REMARK    4  A    between atoms: S_24  and  N_27
REMARK                            x       y       z     vdW  Elec       q    Type
REMARK                         _______ _______ _______ _____ _____    ______ ____
ROOT
ATOM      1  N   UNL     1      32.582 -12.445 -20.084  0.00  0.00    -0.247 N 
ATOM      2  N   UNL     1      32.272 -10.405 -21.200  0.00  0.00    -0.336 NA
ATOM      3  N   UNL     1      31.869 -10.593 -18.832  0.00  0.00    -0.170 NA
ATOM      4  C   UNL     1      31.924  -9.105 -21.114  0.00  0.00    +0.161 C 
ATOM      5  C   UNL     1      32.223 -11.080 -20.037  0.00  0.00    +0.149 C 
ATOM      6  C   UNL     1      31.543  -8.484 -19.945  0.00  0.00    +0.056 C 
ATOM      7  C   UNL     1      31.533  -9.286 -18.823  0.00  0.00    +0.114 C 
ATOM      8  H   UNL     1      32.531 -12.899 -19.212  0.00  0.00    +0.165 HD
ENDROOT
BRANCH   4  11
ATOM      9  N   UNL     1      33.089  -7.752 -22.860  0.00  0.00    -0.246 N 
ATOM     10  N   UNL     1      31.456  -7.431 -24.355  0.00  0.00    -0.227 NA
ATOM     11  C   UNL     1      31.978  -8.385 -22.364  0.00  0.00    +0.107 C 
ATOM     12  C   UNL     1      32.719  -7.185 -24.077  0.00  0.00    +0.139 C 
ATOM     13  C   UNL     1      30.992  -8.174 -23.299  0.00  0.00    +0.118 C 
ATOM     14  C   UNL     1      34.367  -7.650 -22.318  0.00  0.00    +0.071 C 
ATOM     15  C   UNL     1      33.725  -6.466 -24.787  0.00  0.00    +0.035 C 
ATOM     16  C   UNL     1      35.308  -6.971 -22.993  0.00  0.00    +0.017 C 
ATOM     17  C   UNL     1      34.964  -6.363 -24.269  0.00  0.00    +0.004 C 
ENDBRANCH   4  11
BRANCH   1  18
ATOM     18  C   UNL     1      32.998 -13.284 -21.135  0.00  0.00    +0.058 C 
ATOM     19  C   UNL     1      33.824 -14.951 -23.218  0.00  0.00    +0.122 C 
ATOM     20  C   UNL     1      32.450 -13.135 -22.411  0.00  0.00    +0.017 C 
ATOM     21  C   UNL     1      33.961 -14.270 -20.904  0.00  0.00    +0.017 C 
ATOM     22  C   UNL     1      32.862 -13.967 -23.451  0.00  0.00    +0.021 C 
ATOM     23  C   UNL     1      34.373 -15.102 -21.944  0.00  0.00    +0.021 C 
BRANCH  19  24
ATOM     24  S   UNL     1      34.341 -15.993 -24.520  0.00  0.00    +0.057 S 
ATOM     25  O   UNL     1      35.574 -15.455 -25.077  0.00  0.00    -0.153 OA
ATOM     26  O   UNL     1      34.299 -17.372 -24.053  0.00  0.00    -0.153 OA
BRANCH  24  27
ATOM     27  N   UNL     1      33.077 -15.758 -25.647  0.00  0.00    -0.203 NA
ATOM     28  H   UNL     1      32.188 -16.008 -25.217  0.00  0.00    +0.144 HD
ATOM     29  H   UNL     1      33.238 -16.346 -26.465  0.00  0.00    +0.144 HD
ENDBRANCH  24  27
ENDBRANCH  19  24
ENDBRANCH   1  18
TORSDOF 4
ENDMDL
MODEL 6
REMARK VINA RESULT:      -9.4      5.123      6.988
REMARK  Name = 5288527
REMARK  4 active torsions:
REMARK  status: ('A' for Active; 'I' for Inactive)
REMARK    1  A    between atoms: N_1  and  C_18
REMARK    2  A    between atoms: C_4  and  C_11
REMARK    3  A    between atoms: C_19  and  S_24
REMARK    4  A    between atoms: S_24  and  N_27
REMARK                            x       y       z     vdW  Elec       q    Type
REMARK                         _______ _______ _______ _____ _____    ______ ____
ROOT
ATOM      1  N   UNL     1      34.349 -23.441 -15.230  0.00  0.00    -0.247 N 
ATOM      2  N   UNL     1      34.643 -22.230 -17.217  0.00  0.00    -0.336 NA
ATOM      3  N   UNL     1      36.530 -22.838 -15.849  0.00  0.00    -0.170 NA
ATOM      4  C   UNL     1      35.503 -21.635 -18.067  0.00  0.00    +0.161 C 
ATOM      5  C   UNL     1      35.217 -22.805 -16.144  0.00  0.00    +0.149 C 
ATOM      6  C   UNL     1      36.868 -21.597 -17.883  0.00  0.00    +0.056 C 
ATOM      7  C   UNL     1      37.331 -22.222 -16.744  0.00  0.00    +0.114 C 
ATOM      8  H   UNL     1      34.812 -23.847 -14.461  0.00  0.00    +0.165 HD
ENDROOT
BRANCH   4  11
ATOM      9  N   UNL     1      35.516 -20.179 -20.096  0.00  0.00    -0.246 N 
ATOM     10  N   UNL     1      33.405 -20.372 -20.811  0.00  0.00    -0.227 NA
ATOM     11  C   UNL     1      34.883 -21.019 -19.216  0.00  0.00    +0.107 C 
ATOM     12  C   UNL     1      34.572 -19.810 -21.052  0.00  0.00    +0.139 C 
ATOM     13  C   UNL     1      33.592 -21.121 -19.677  0.00  0.00    +0.118 C 
ATOM     14  C   UNL     1      36.835 -19.733 -20.103  0.00  0.00    +0.071 C 
ATOM     15  C   UNL     1      35.007 -18.927 -22.083  0.00  0.00    +0.035 C 
ATOM     16  C   UNL     1      37.237 -18.902 -21.078  0.00  0.00    +0.017 C 
ATOM     17  C   UNL     1      36.282 -18.492 -22.096  0.00  0.00    +0.004 C 
ENDBRANCH   4  11
BRANCH   1  18
ATOM     18  C   UNL     1      32.952 -23.609 -15.201  0.00  0.00    +0.058 C 
ATOM     19  C   UNL     1      30.180 -23.943 -15.147  0.00  0.00    +0.122 C 
ATOM     20  C   UNL     1      32.357 -24.361 -14.186  0.00  0.00    +0.017 C 
ATOM     21  C   UNL     1      32.156 -23.024 -16.189  0.00  0.00    +0.017 C 
ATOM     22  C   UNL     1      30.973 -24.528 -14.159  0.00  0.00    +0.021 C 
ATOM     23  C   UNL     1      30.773 -23.191 -16.162  0.00  0.00    +0.021 C 
BRANCH  19  24
ATOM     24  S   UNL     1      28.447 -24.151 -15.114  0.00  0.00    +0.057 S 
ATOM     25  O   UNL     1      28.143 -25.340 -14.329  0.00  0.00    -0.153 OA
ATOM     26  O   UNL     1      27.834 -22.878 -14.766  0.00  0.00    -0.153 OA
BRANCH  24  27
ATOM     27  N   UNL     1      28.127 -24.482 -16.760  0.00  0.00    -0.203 NA
ATOM     28  H   UNL     1      28.924 -24.191 -17.326  0.00  0.00    +0.144 HD
ATOM     29  H   UNL     1      27.295 -23.969 -17.054  0.00  0.00    +0.144 HD
ENDBRANCH  24  27
ENDBRANCH  19  24
ENDBRANCH   1  18
TORSDOF 4
ENDMDL
MODEL 7
REMARK VINA RESULT:      -9.4      4.788      7.363
REMARK  Name = 5288527
REMARK  4 active torsions:
REMARK  status: ('A' for Active; 'I' for Inactive)
REMARK    1  A    between atoms: N_1  and  C_18
REMARK    2  A    between atoms: C_4  and  C_11
REMARK    3  A    between atoms: C_19  and  S_24
REMARK    4  A    between atoms: S_24  and  N_27
REMARK                            x       y       z     vdW  Elec       q    Type
REMARK                         _______ _______ _______ _____ _____    ______ ____
ROOT
ATOM      1  N   UNL     1      36.493 -22.175 -17.256  0.00  0.00    -0.247 N 
ATOM      2  N   UNL     1      34.330 -22.740 -16.545  0.00  0.00    -0.336 NA
ATOM      3  N   UNL     1      36.271 -23.588 -15.397  0.00  0.00    -0.170 NA
ATOM      4  C   UNL     1      33.565 -23.416 -15.665  0.00  0.00    +0.161 C 
ATOM      5  C   UNL     1      35.657 -22.869 -16.355  0.00  0.00    +0.149 C 
ATOM      6  C   UNL     1      34.066 -24.187 -14.640  0.00  0.00    +0.056 C 
ATOM      7  C   UNL     1      35.442 -24.238 -14.553  0.00  0.00    +0.114 C 
ATOM      8  H   UNL     1      37.454 -22.298 -17.079  0.00  0.00    +0.165 HD
ENDROOT
BRANCH   4  11
ATOM      9  N   UNL     1      31.177 -23.981 -15.203  0.00  0.00    -0.246 N 
ATOM     10  N   UNL     1      30.103 -22.627 -16.624  0.00  0.00    -0.227 NA
ATOM     11  C   UNL     1      32.144 -23.275 -15.873  0.00  0.00    +0.107 C 
ATOM     12  C   UNL     1      29.948 -23.549 -15.697  0.00  0.00    +0.139 C 
ATOM     13  C   UNL     1      31.459 -22.453 -16.737  0.00  0.00    +0.118 C 
ATOM     14  C   UNL     1      31.313 -24.951 -14.214  0.00  0.00    +0.071 C 
ATOM     15  C   UNL     1      28.781 -24.151 -15.141  0.00  0.00    +0.035 C 
ATOM     16  C   UNL     1      30.209 -25.512 -13.696  0.00  0.00    +0.017 C 
ATOM     17  C   UNL     1      28.905 -25.091 -14.184  0.00  0.00    +0.004 C 
ENDBRANCH   4  11
BRANCH   1  18
ATOM     18  C   UNL     1      36.223 -21.341 -18.357  0.00  0.00    +0.058 C 
ATOM     19  C   UNL     1      35.689 -19.686 -20.542  0.00  0.00    +0.122 C 
ATOM     20  C   UNL     1      35.000 -21.435 -19.024  0.00  0.00    +0.017 C 
ATOM     21  C   UNL     1      37.178 -20.417 -18.787  0.00  0.00    +0.017 C 
ATOM     22  C   UNL     1      34.733 -20.609 -20.115  0.00  0.00    +0.021 C 
ATOM     23  C   UNL     1      36.912 -19.591 -19.878  0.00  0.00    +0.021 C 
BRANCH  19  24
ATOM     24  S   UNL     1      35.355 -18.652 -21.909  0.00  0.00    +0.057 S 
ATOM     25  O   UNL     1      34.590 -19.415 -22.885  0.00  0.00    -0.153 OA
ATOM     26  O   UNL     1      34.838 -17.384 -21.415  0.00  0.00    -0.153 OA
BRANCH  24  27
ATOM     27  N   UNL     1      36.932 -18.400 -22.519  0.00  0.00    -0.203 NA
ATOM     28  H   UNL     1      36.931 -18.539 -23.529  0.00  0.00    +0.144 HD
ATOM     29  H   UNL     1      37.575 -19.063 -22.085  0.00  0.00    +0.144 HD
ENDBRANCH  24  27
ENDBRANCH  19  24
ENDBRANCH   1  18
TORSDOF 4
ENDMDL
MODEL 8
REMARK VINA RESULT:      -9.3      1.760      2.916
REMARK  Name = 5288527
REMARK  4 active torsions:
REMARK  status: ('A' for Active; 'I' for Inactive)
REMARK    1  A    between atoms: N_1  and  C_18
REMARK    2  A    between atoms: C_4  and  C_11
REMARK    3  A    between atoms: C_19  and  S_24
REMARK    4  A    between atoms: S_24  and  N_27
REMARK                            x       y       z     vdW  Elec       q    Type
REMARK                         _______ _______ _______ _____ _____    ______ ____
ROOT
ATOM      1  N   UNL     1      34.597 -24.659 -14.687  0.00  0.00    -0.247 N 
ATOM      2  N   UNL     1      34.629 -23.240 -16.555  0.00  0.00    -0.336 NA
ATOM      3  N   UNL     1      32.555 -23.809 -15.468  0.00  0.00    -0.170 NA
ATOM      4  C   UNL     1      33.920 -22.490 -17.422  0.00  0.00    +0.161 C 
ATOM      5  C   UNL     1      33.892 -23.863 -15.616  0.00  0.00    +0.149 C 
ATOM      6  C   UNL     1      32.551 -22.349 -17.382  0.00  0.00    +0.056 C 
ATOM      7  C   UNL     1      31.913 -23.039 -16.372  0.00  0.00    +0.114 C 
ATOM      8  H   UNL     1      34.019 -25.095 -14.020  0.00  0.00    +0.165 HD
ENDROOT
BRANCH   4  11
ATOM      9  N   UNL     1      34.210 -21.065 -19.453  0.00  0.00    -0.246 N 
ATOM     10  N   UNL     1      36.435 -21.038 -19.679  0.00  0.00    -0.227 NA
ATOM     11  C   UNL     1      34.714 -21.824 -18.427  0.00  0.00    +0.107 C 
ATOM     12  C   UNL     1      35.300 -20.608 -20.189  0.00  0.00    +0.139 C 
ATOM     13  C   UNL     1      36.079 -21.790 -18.589  0.00  0.00    +0.118 C 
ATOM     14  C   UNL     1      32.887 -20.764 -19.765  0.00  0.00    +0.071 C 
ATOM     15  C   UNL     1      35.017 -19.787 -21.320  0.00  0.00    +0.035 C 
ATOM     16  C   UNL     1      32.629 -19.992 -20.832  0.00  0.00    +0.017 C 
ATOM     17  C   UNL     1      33.739 -19.493 -21.629  0.00  0.00    +0.004 C 
ENDBRANCH   4  11
BRANCH   1  18
ATOM     18  C   UNL     1      35.965 -24.951 -14.527  0.00  0.00    +0.058 C 
ATOM     19  C   UNL     1      38.678 -25.528 -14.209  0.00  0.00    +0.122 C 
ATOM     20  C   UNL     1      36.424 -26.261 -14.676  0.00  0.00    +0.017 C 
ATOM     21  C   UNL     1      36.867 -23.930 -14.218  0.00  0.00    +0.017 C 
ATOM     22  C   UNL     1      37.779 -26.549 -14.517  0.00  0.00    +0.021 C 
ATOM     23  C   UNL     1      38.222 -24.218 -14.059  0.00  0.00    +0.021 C 
BRANCH  19  24
ATOM     24  S   UNL     1      40.375 -25.888 -14.009  0.00  0.00    +0.057 S 
ATOM     25  O   UNL     1      41.054 -24.675 -13.576  0.00  0.00    -0.153 OA
ATOM     26  O   UNL     1      40.500 -27.107 -13.223  0.00  0.00    -0.153 OA
BRANCH  24  27
ATOM     27  N   UNL     1      40.828 -26.227 -15.622  0.00  0.00    -0.203 NA
ATOM     28  H   UNL     1      41.412 -27.062 -15.642  0.00  0.00    +0.144 HD
ATOM     29  H   UNL     1      41.351 -25.437 -16.001  0.00  0.00    +0.144 HD
ENDBRANCH  24  27
ENDBRANCH  19  24
ENDBRANCH   1  18
TORSDOF 4
ENDMDL
MODEL 9
REMARK VINA RESULT:      -9.2     14.319     17.422
REMARK  Name = 5288527
REMARK  4 active torsions:
REMARK  status: ('A' for Active; 'I' for Inactive)
REMARK    1  A    between atoms: N_1  and  C_18
REMARK    2  A    between atoms: C_4  and  C_11
REMARK    3  A    between atoms: C_19  and  S_24
REMARK    4  A    between atoms: S_24  and  N_27
REMARK                            x       y       z     vdW  Elec       q    Type
REMARK                         _______ _______ _______ _____ _____    ______ ____
ROOT
ATOM      1  N   UNL     1      32.076  -8.037 -21.746  0.00  0.00    -0.247 N 
ATOM      2  N   UNL     1      32.517 -10.306 -22.142  0.00  0.00    -0.336 NA
ATOM      3  N   UNL     1      31.307  -9.606 -20.180  0.00  0.00    -0.170 NA
ATOM      4  C   UNL     1      32.386 -11.579 -21.718  0.00  0.00    +0.161 C 
ATOM      5  C   UNL     1      31.961  -9.383 -21.336  0.00  0.00    +0.149 C 
ATOM      6  C   UNL     1      31.741 -11.943 -20.557  0.00  0.00    +0.056 C 
ATOM      7  C   UNL     1      31.215 -10.902 -19.819  0.00  0.00    +0.114 C 
ATOM      8  H   UNL     1      31.655  -7.397 -21.127  0.00  0.00    +0.165 HD
ENDROOT
BRANCH   4  11
ATOM      9  N   UNL     1      33.668 -13.676 -22.159  0.00  0.00    -0.246 N 
ATOM     10  N   UNL     1      33.688 -13.738 -24.395  0.00  0.00    -0.227 NA
ATOM     11  C   UNL     1      32.984 -12.566 -22.585  0.00  0.00    +0.107 C 
ATOM     12  C   UNL     1      34.078 -14.360 -23.302  0.00  0.00    +0.139 C 
ATOM     13  C   UNL     1      33.011 -12.628 -23.958  0.00  0.00    +0.118 C 
ATOM     14  C   UNL     1      33.941 -14.106 -20.864  0.00  0.00    +0.071 C 
ATOM     15  C   UNL     1      34.816 -15.563 -23.105  0.00  0.00    +0.035 C 
ATOM     16  C   UNL     1      34.637 -15.240 -20.687  0.00  0.00    +0.017 C 
ATOM     17  C   UNL     1      35.085 -15.985 -21.854  0.00  0.00    +0.004 C 
ENDBRANCH   4  11
BRANCH   1  18
ATOM     18  C   UNL     1      32.673  -7.430 -22.867  0.00  0.00    +0.058 C 
ATOM     19  C   UNL     1      33.857  -6.226 -25.091  0.00  0.00    +0.122 C 
ATOM     20  C   UNL     1      34.010  -7.031 -22.819  0.00  0.00    +0.017 C 
ATOM     21  C   UNL     1      31.930  -7.225 -24.032  0.00  0.00    +0.017 C 
ATOM     22  C   UNL     1      34.601  -6.430 -23.929  0.00  0.00    +0.021 C 
ATOM     23  C   UNL     1      32.521  -6.624 -25.142  0.00  0.00    +0.021 C 
BRANCH  19  24
ATOM     24  S   UNL     1      34.596  -5.473 -26.482  0.00  0.00    +0.057 S 
ATOM     25  O   UNL     1      34.668  -4.038 -26.243  0.00  0.00    -0.153 OA
ATOM     26  O   UNL     1      35.804  -6.211 -26.821  0.00  0.00    -0.153 OA
BRANCH  24  27
ATOM     27  N   UNL     1      33.416  -5.773 -27.681  0.00  0.00    -0.203 NA
ATOM     28  H   UNL     1      32.690  -5.059 -27.629  0.00  0.00    +0.144 HD
ATOM     29  H   UNL     1      33.002  -6.693 -27.528  0.00  0.00    +0.144 HD
ENDBRANCH  24  27
ENDBRANCH  19  24
ENDBRANCH   1  18
TORSDOF 4
ENDMDL
