MODEL 1
REMARK VINA RESULT:     -10.8      0.000      0.000
REMARK  Name = 25138294
REMARK  3 active torsions:
REMARK  status: ('A' for Active; 'I' for Inactive)
REMARK    1  A    between atoms: N_4  and  C_7
REMARK    2  A    between atoms: C_5  and  C_25
REMARK    3  A    between atoms: C_6  and  C_15
REMARK                            x       y       z     vdW  Elec       q    Type
REMARK                         _______ _______ _______ _____ _____    ______ ____
ROOT
ATOM      1  N   UNL     1      32.614 -22.143 -18.158  0.00  0.00    -0.300 N 
ATOM      2  N   UNL     1      34.811 -22.213 -17.841  0.00  0.00    -0.302 N 
ATOM      3  C   UNL     1      32.800 -22.801 -16.976  0.00  0.00    +0.086 C 
ATOM      4  C   UNL     1      34.163 -22.833 -16.801  0.00  0.00    +0.058 C 
ATOM      5  C   UNL     1      33.850 -21.809 -18.640  0.00  0.00    +0.227 C 
ATOM      6  H   UNL     1      31.750 -21.945 -18.585  0.00  0.00    +0.150 HD
ATOM      7  H   UNL     1      35.781 -22.097 -17.961  0.00  0.00    +0.150 HD
ENDROOT
BRANCH   4  10
ATOM      8  N   UNL     1      36.486 -26.578 -14.834  0.00  0.00    -0.245 NA
ATOM      9  N   UNL     1      36.826 -25.150 -12.475  0.00  0.00    -0.245 NA
ATOM     10  C   UNL     1      34.849 -23.427 -15.687  0.00  0.00    -0.006 C 
ATOM     11  C   UNL     1      35.348 -24.725 -15.783  0.00  0.00    +0.074 C 
ATOM     12  C   UNL     1      35.018 -22.714 -14.510  0.00  0.00    -0.022 C 
ATOM     13  C   UNL     1      36.015 -25.324 -14.718  0.00  0.00    +0.077 C 
ATOM     14  C   UNL     1      36.186 -24.601 -13.523  0.00  0.00    +0.077 C 
ATOM     15  C   UNL     1      35.685 -23.305 -13.438  0.00  0.00    +0.073 C 
ATOM     16  C   UNL     1      37.122 -27.109 -13.774  0.00  0.00    +0.119 C 
ATOM     17  C   UNL     1      37.290 -26.405 -12.612  0.00  0.00    +0.119 C 
ENDBRANCH   4  10
BRANCH   3  20
ATOM     18  F   UNL     1      28.459 -24.580 -14.091  0.00  0.00    -0.202 F 
ATOM     19  N   UNL     1      30.490 -22.820 -16.534  0.00  0.00    -0.407 NA
ATOM     20  C   UNL     1      31.704 -23.302 -16.184  0.00  0.00    +0.127 C 
ATOM     21  C   UNL     1      31.912 -24.205 -15.155  0.00  0.00    +0.089 C 
ATOM     22  C   UNL     1      29.436 -23.267 -15.815  0.00  0.00    +0.136 C 
ATOM     23  C   UNL     1      30.804 -24.643 -14.439  0.00  0.00    +0.013 C 
ATOM     24  C   UNL     1      29.539 -24.170 -14.770  0.00  0.00    +0.161 C 
ATOM     25  C   UNL     1      28.095 -22.736 -16.199  0.00  0.00    +0.069 C 
ENDBRANCH   3  20
BRANCH   5  27
ATOM     26  O   UNL     1      36.080 -20.070 -19.675  0.00  0.00    -0.275 OA
ATOM     27  N   UNL     1      33.973 -21.131 -19.826  0.00  0.00    -0.274 N 
ATOM     28  C   UNL     1      35.042 -20.320 -20.279  0.00  0.00    +0.225 C 
ATOM     29  C   UNL     1      34.794 -19.752 -21.654  0.00  0.00    +0.095 C 
ATOM     30  H   UNL     1      33.215 -21.221 -20.447  0.00  0.00    +0.152 HD
ENDBRANCH   5  27
TORSDOF 3
ENDMDL
MODEL 2
REMARK VINA RESULT:     -10.7      2.964      5.151
REMARK  Name = 25138294
REMARK  3 active torsions:
REMARK  status: ('A' for Active; 'I' for Inactive)
REMARK    1  A    between atoms: N_4  and  C_7
REMARK    2  A    between atoms: C_5  and  C_25
REMARK    3  A    between atoms: C_6  and  C_15
REMARK                            x       y       z     vdW  Elec       q    Type
REMARK                         _______ _______ _______ _____ _____    ______ ____
ROOT
ATOM      1  N   UNL     1      31.669 -22.795 -16.683  0.00  0.00    -0.300 N 
ATOM      2  N   UNL     1      32.374 -23.787 -14.824  0.00  0.00    -0.302 N 
ATOM      3  C   UNL     1      33.034 -22.778 -16.744  0.00  0.00    +0.086 C 
ATOM      4  C   UNL     1      33.446 -23.394 -15.587  0.00  0.00    +0.058 C 
ATOM      5  C   UNL     1      31.319 -23.411 -15.513  0.00  0.00    +0.227 C 
ATOM      6  H   UNL     1      31.050 -22.431 -17.357  0.00  0.00    +0.150 HD
ATOM      7  H   UNL     1      32.391 -24.247 -13.955  0.00  0.00    +0.150 HD
ENDROOT
BRANCH   4  10
ATOM      8  N   UNL     1      37.048 -26.414 -14.491  0.00  0.00    -0.245 NA
ATOM      9  N   UNL     1      38.751 -24.258 -14.076  0.00  0.00    -0.245 NA
ATOM     10  C   UNL     1      34.811 -23.614 -15.199  0.00  0.00    -0.006 C 
ATOM     11  C   UNL     1      35.291 -24.912 -15.028  0.00  0.00    +0.074 C 
ATOM     12  C   UNL     1      35.662 -22.538 -14.992  0.00  0.00    -0.022 C 
ATOM     13  C   UNL     1      36.609 -25.153 -14.651  0.00  0.00    +0.077 C 
ATOM     14  C   UNL     1      37.471 -24.061 -14.440  0.00  0.00    +0.077 C 
ATOM     15  C   UNL     1      36.983 -22.769 -14.615  0.00  0.00    +0.073 C 
ATOM     16  C   UNL     1      38.330 -26.589 -14.127  0.00  0.00    +0.119 C 
ATOM     17  C   UNL     1      39.170 -25.527 -13.923  0.00  0.00    +0.119 C 
ENDBRANCH   4  10
BRANCH   3  20
ATOM     18  F   UNL     1      35.577 -20.466 -21.048  0.00  0.00    -0.202 F 
ATOM     19  N   UNL     1      32.995 -21.468 -18.697  0.00  0.00    -0.407 NA
ATOM     20  C   UNL     1      33.755 -22.200 -17.851  0.00  0.00    +0.127 C 
ATOM     21  C   UNL     1      35.117 -22.396 -18.005  0.00  0.00    +0.089 C 
ATOM     22  C   UNL     1      33.636 -20.909 -19.748  0.00  0.00    +0.136 C 
ATOM     23  C   UNL     1      35.741 -21.803 -19.097  0.00  0.00    +0.013 C 
ATOM     24  C   UNL     1      34.993 -21.044 -19.990  0.00  0.00    +0.161 C 
ATOM     25  C   UNL     1      32.800 -20.102 -20.684  0.00  0.00    +0.069 C 
ENDBRANCH   3  20
BRANCH   5  27
ATOM     26  O   UNL     1      28.848 -22.100 -16.628  0.00  0.00    -0.275 OA
ATOM     27  N   UNL     1      29.999 -23.574 -15.182  0.00  0.00    -0.274 N 
ATOM     28  C   UNL     1      28.859 -22.938 -15.731  0.00  0.00    +0.225 C 
ATOM     29  C   UNL     1      27.574 -23.399 -15.091  0.00  0.00    +0.095 C 
ATOM     30  H   UNL     1      29.818 -24.223 -14.464  0.00  0.00    +0.152 HD
ENDBRANCH   5  27
TORSDOF 3
ENDMDL
MODEL 3
REMARK VINA RESULT:     -10.6      3.022      5.308
REMARK  Name = 25138294
REMARK  3 active torsions:
REMARK  status: ('A' for Active; 'I' for Inactive)
REMARK    1  A    between atoms: N_4  and  C_7
REMARK    2  A    between atoms: C_5  and  C_25
REMARK    3  A    between atoms: C_6  and  C_15
REMARK                            x       y       z     vdW  Elec       q    Type
REMARK                         _______ _______ _______ _____ _____    ______ ____
ROOT
ATOM      1  N   UNL     1      31.528 -22.848 -15.908  0.00  0.00    -0.300 N 
ATOM      2  N   UNL     1      31.702 -23.875 -13.947  0.00  0.00    -0.302 N 
ATOM      3  C   UNL     1      32.859 -23.105 -15.737  0.00  0.00    +0.086 C 
ATOM      4  C   UNL     1      32.942 -23.738 -14.520  0.00  0.00    +0.058 C 
ATOM      5  C   UNL     1      30.873 -23.329 -14.808  0.00  0.00    +0.227 C 
ATOM      6  H   UNL     1      31.116 -22.399 -16.681  0.00  0.00    +0.150 HD
ATOM      7  H   UNL     1      31.482 -24.290 -13.082  0.00  0.00    +0.150 HD
ENDROOT
BRANCH   4  10
ATOM      8  N   UNL     1      37.183 -26.020 -14.834  0.00  0.00    -0.245 NA
ATOM      9  N   UNL     1      37.644 -25.571 -12.131  0.00  0.00    -0.245 NA
ATOM     10  C   UNL     1      34.151 -24.208 -13.904  0.00  0.00    -0.006 C 
ATOM     11  C   UNL     1      35.102 -24.894 -14.659  0.00  0.00    +0.074 C 
ATOM     12  C   UNL     1      34.381 -23.984 -12.555  0.00  0.00    -0.022 C 
ATOM     13  C   UNL     1      36.282 -25.361 -14.085  0.00  0.00    +0.077 C 
ATOM     14  C   UNL     1      36.514 -25.134 -12.717  0.00  0.00    +0.077 C 
ATOM     15  C   UNL     1      35.559 -24.447 -11.972  0.00  0.00    +0.073 C 
ATOM     16  C   UNL     1      38.305 -26.449 -14.230  0.00  0.00    +0.119 C 
ATOM     17  C   UNL     1      38.532 -26.228 -12.898  0.00  0.00    +0.119 C 
ENDBRANCH   4  10
BRANCH   3  20
ATOM     18  F   UNL     1      36.822 -21.648 -19.274  0.00  0.00    -0.202 F 
ATOM     19  N   UNL     1      35.052 -22.387 -16.188  0.00  0.00    -0.407 NA
ATOM     20  C   UNL     1      33.854 -22.732 -16.712  0.00  0.00    +0.127 C 
ATOM     21  C   UNL     1      33.574 -22.740 -18.068  0.00  0.00    +0.089 C 
ATOM     22  C   UNL     1      36.013 -22.031 -17.071  0.00  0.00    +0.136 C 
ATOM     23  C   UNL     1      34.588 -22.370 -18.945  0.00  0.00    +0.013 C 
ATOM     24  C   UNL     1      35.833 -22.008 -18.445  0.00  0.00    +0.161 C 
ATOM     25  C   UNL     1      37.336 -21.648 -16.496  0.00  0.00    +0.069 C 
ENDBRANCH   3  20
BRANCH   5  27
ATOM     26  O   UNL     1      28.865 -22.130 -16.704  0.00  0.00    -0.275 OA
ATOM     27  N   UNL     1      29.512 -23.211 -14.704  0.00  0.00    -0.274 N 
ATOM     28  C   UNL     1      28.596 -22.639 -15.620  0.00  0.00    +0.225 C 
ATOM     29  C   UNL     1      27.170 -22.710 -15.134  0.00  0.00    +0.095 C 
ATOM     30  H   UNL     1      29.116 -23.574 -13.879  0.00  0.00    +0.152 HD
ENDBRANCH   5  27
TORSDOF 3
ENDMDL
MODEL 4
REMARK VINA RESULT:     -10.4      2.880      7.083
REMARK  Name = 25138294
REMARK  3 active torsions:
REMARK  status: ('A' for Active; 'I' for Inactive)
REMARK    1  A    between atoms: N_4  and  C_7
REMARK    2  A    between atoms: C_5  and  C_25
REMARK    3  A    between atoms: C_6  and  C_15
REMARK                            x       y       z     vdW  Elec       q    Type
REMARK                         _______ _______ _______ _____ _____    ______ ____
ROOT
ATOM      1  N   UNL     1      32.714 -23.938 -15.295  0.00  0.00    -0.300 N 
ATOM      2  N   UNL     1      32.068 -22.804 -17.093  0.00  0.00    -0.302 N 
ATOM      3  C   UNL     1      33.858 -23.453 -15.862  0.00  0.00    +0.086 C 
ATOM      4  C   UNL     1      33.435 -22.758 -16.970  0.00  0.00    +0.058 C 
ATOM      5  C   UNL     1      31.665 -23.522 -16.069  0.00  0.00    +0.227 C 
ATOM      6  H   UNL     1      32.654 -24.485 -14.479  0.00  0.00    +0.150 HD
ATOM      7  H   UNL     1      31.513 -22.391 -17.793  0.00  0.00    +0.150 HD
ENDROOT
BRANCH   4  10
ATOM      8  N   UNL     1      33.978 -19.999 -20.892  0.00  0.00    -0.245 NA
ATOM      9  N   UNL     1      36.737 -20.056 -20.571  0.00  0.00    -0.245 NA
ATOM     10  C   UNL     1      34.286 -22.063 -17.895  0.00  0.00    -0.006 C 
ATOM     11  C   UNL     1      33.733 -21.355 -18.961  0.00  0.00    +0.074 C 
ATOM     12  C   UNL     1      35.663 -22.091 -17.734  0.00  0.00    -0.022 C 
ATOM     13  C   UNL     1      34.536 -20.673 -19.872  0.00  0.00    +0.077 C 
ATOM     14  C   UNL     1      35.932 -20.703 -19.709  0.00  0.00    +0.077 C 
ATOM     15  C   UNL     1      36.475 -21.413 -18.641  0.00  0.00    +0.073 C 
ATOM     16  C   UNL     1      34.800 -19.358 -21.743  0.00  0.00    +0.119 C 
ATOM     17  C   UNL     1      36.159 -19.386 -21.585  0.00  0.00    +0.119 C 
ENDBRANCH   4  10
BRANCH   3  20
ATOM     18  F   UNL     1      38.819 -24.633 -13.784  0.00  0.00    -0.202 F 
ATOM     19  N   UNL     1      35.526 -25.001 -15.271  0.00  0.00    -0.407 NA
ATOM     20  C   UNL     1      35.166 -23.698 -15.307  0.00  0.00    +0.127 C 
ATOM     21  C   UNL     1      35.964 -22.661 -14.856  0.00  0.00    +0.089 C 
ATOM     22  C   UNL     1      36.747 -25.273 -14.757  0.00  0.00    +0.136 C 
ATOM     23  C   UNL     1      37.214 -22.979 -14.336  0.00  0.00    +0.013 C 
ATOM     24  C   UNL     1      37.620 -24.308 -14.282  0.00  0.00    +0.161 C 
ATOM     25  C   UNL     1      37.147 -26.710 -14.716  0.00  0.00    +0.069 C 
ENDBRANCH   3  20
BRANCH   5  27
ATOM     26  O   UNL     1      29.071 -22.077 -16.567  0.00  0.00    -0.275 OA
ATOM     27  N   UNL     1      30.379 -23.862 -15.736  0.00  0.00    -0.274 N 
ATOM     28  C   UNL     1      29.179 -23.154 -15.988  0.00  0.00    +0.225 C 
ATOM     29  C   UNL     1      27.962 -23.872 -15.461  0.00  0.00    +0.095 C 
ATOM     30  H   UNL     1      30.276 -24.715 -15.256  0.00  0.00    +0.152 HD
ENDBRANCH   5  27
TORSDOF 3
ENDMDL
MODEL 5
REMARK VINA RESULT:     -10.4      0.985      1.694
REMARK  Name = 25138294
REMARK  3 active torsions:
REMARK  status: ('A' for Active; 'I' for Inactive)
REMARK    1  A    between atoms: N_4  and  C_7
REMARK    2  A    between atoms: C_5  and  C_25
REMARK    3  A    between atoms: C_6  and  C_15
REMARK                            x       y       z     vdW  Elec       q    Type
REMARK                         _______ _______ _______ _____ _____    ______ ____
ROOT
ATOM      1  N   UNL     1      32.677 -22.432 -17.743  0.00  0.00    -0.300 N 
ATOM      2  N   UNL     1      34.887 -22.454 -17.519  0.00  0.00    -0.302 N 
ATOM      3  C   UNL     1      32.929 -23.111 -16.585  0.00  0.00    +0.086 C 
ATOM      4  C   UNL     1      34.298 -23.112 -16.468  0.00  0.00    +0.058 C 
ATOM      5  C   UNL     1      33.883 -22.057 -18.269  0.00  0.00    +0.227 C 
ATOM      6  H   UNL     1      31.791 -22.246 -18.129  0.00  0.00    +0.150 HD
ATOM      7  H   UNL     1      35.848 -22.311 -17.677  0.00  0.00    +0.150 HD
ENDROOT
BRANCH   4  10
ATOM      8  N   UNL     1      36.662 -22.716 -12.279  0.00  0.00    -0.245 NA
ATOM      9  N   UNL     1      37.201 -25.441 -12.306  0.00  0.00    -0.245 NA
ATOM     10  C   UNL     1      35.044 -23.713 -15.398  0.00  0.00    -0.006 C 
ATOM     11  C   UNL     1      35.503 -22.932 -14.338  0.00  0.00    +0.074 C 
ATOM     12  C   UNL     1      35.313 -25.074 -15.411  0.00  0.00    -0.022 C 
ATOM     13  C   UNL     1      36.229 -23.490 -13.289  0.00  0.00    +0.077 C 
ATOM     14  C   UNL     1      36.503 -24.870 -13.303  0.00  0.00    +0.077 C 
ATOM     15  C   UNL     1      36.039 -25.641 -14.365  0.00  0.00    +0.073 C 
ATOM     16  C   UNL     1      37.359 -23.306 -11.291  0.00  0.00    +0.119 C 
ATOM     17  C   UNL     1      37.624 -24.649 -11.304  0.00  0.00    +0.119 C 
ENDBRANCH   4  10
BRANCH   3  20
ATOM     18  F   UNL     1      28.756 -25.106 -13.595  0.00  0.00    -0.202 F 
ATOM     19  N   UNL     1      30.627 -23.420 -16.213  0.00  0.00    -0.407 NA
ATOM     20  C   UNL     1      31.879 -23.656 -15.759  0.00  0.00    +0.127 C 
ATOM     21  C   UNL     1      32.165 -24.362 -14.603  0.00  0.00    +0.089 C 
ATOM     22  C   UNL     1      29.615 -23.917 -15.466  0.00  0.00    +0.136 C 
ATOM     23  C   UNL     1      31.098 -24.858 -13.862  0.00  0.00    +0.013 C 
ATOM     24  C   UNL     1      29.796 -24.636 -14.296  0.00  0.00    +0.161 C 
ATOM     25  C   UNL     1      28.232 -23.657 -15.963  0.00  0.00    +0.069 C 
ENDBRANCH   3  20
BRANCH   5  27
ATOM     26  O   UNL     1      36.075 -20.338 -19.411  0.00  0.00    -0.275 OA
ATOM     27  N   UNL     1      33.940 -21.351 -19.442  0.00  0.00    -0.274 N 
ATOM     28  C   UNL     1      34.993 -20.550 -19.948  0.00  0.00    +0.225 C 
ATOM     29  C   UNL     1      34.663 -19.941 -21.288  0.00  0.00    +0.095 C 
ATOM     30  H   UNL     1      33.139 -21.409 -20.012  0.00  0.00    +0.152 HD
ENDBRANCH   5  27
TORSDOF 3
ENDMDL
MODEL 6
REMARK VINA RESULT:     -10.2      2.492      5.781
REMARK  Name = 25138294
REMARK  3 active torsions:
REMARK  status: ('A' for Active; 'I' for Inactive)
REMARK    1  A    between atoms: N_4  and  C_7
REMARK    2  A    between atoms: C_5  and  C_25
REMARK    3  A    between atoms: C_6  and  C_15
REMARK                            x       y       z     vdW  Elec       q    Type
REMARK                         _______ _______ _______ _____ _____    ______ ____
ROOT
ATOM      1  N   UNL     1      36.828 -22.378 -16.649  0.00  0.00    -0.300 N 
ATOM      2  N   UNL     1      34.715 -22.120 -17.285  0.00  0.00    -0.302 N 
ATOM      3  C   UNL     1      36.078 -23.074 -15.744  0.00  0.00    +0.086 C 
ATOM      4  C   UNL     1      34.778 -22.899 -16.156  0.00  0.00    +0.058 C 
ATOM      5  C   UNL     1      35.967 -21.823 -17.555  0.00  0.00    +0.227 C 
ATOM      6  H   UNL     1      37.809 -22.292 -16.650  0.00  0.00    +0.150 HD
ATOM      7  H   UNL     1      33.912 -21.845 -17.781  0.00  0.00    +0.150 HD
ENDROOT
BRANCH   4  10
ATOM      8  N   UNL     1      30.012 -23.653 -16.059  0.00  0.00    -0.245 NA
ATOM      9  N   UNL     1      30.261 -25.029 -13.658  0.00  0.00    -0.245 NA
ATOM     10  C   UNL     1      33.617 -23.448 -15.512  0.00  0.00    -0.006 C 
ATOM     11  C   UNL     1      32.357 -23.294 -16.088  0.00  0.00    +0.074 C 
ATOM     12  C   UNL     1      33.742 -24.135 -14.314  0.00  0.00    -0.022 C 
ATOM     13  C   UNL     1      31.216 -23.816 -15.484  0.00  0.00    +0.077 C 
ATOM     14  C   UNL     1      31.343 -24.512 -14.269  0.00  0.00    +0.077 C 
ATOM     15  C   UNL     1      32.605 -24.661 -13.702  0.00  0.00    +0.073 C 
ATOM     16  C   UNL     1      28.943 -24.177 -15.433  0.00  0.00    +0.119 C 
ATOM     17  C   UNL     1      29.066 -24.855 -14.250  0.00  0.00    +0.119 C 
ENDBRANCH   4  10
BRANCH   3  20
ATOM     18  F   UNL     1      38.298 -26.024 -11.658  0.00  0.00    -0.202 F 
ATOM     19  N   UNL     1      36.833 -25.116 -14.855  0.00  0.00    -0.407 NA
ATOM     20  C   UNL     1      36.661 -23.792 -14.638  0.00  0.00    +0.127 C 
ATOM     21  C   UNL     1      37.008 -23.148 -13.462  0.00  0.00    +0.089 C 
ATOM     22  C   UNL     1      37.379 -25.824 -13.841  0.00  0.00    +0.136 C 
ATOM     23  C   UNL     1      37.568 -23.909 -12.443  0.00  0.00    +0.013 C 
ATOM     24  C   UNL     1      37.761 -25.274 -12.629  0.00  0.00    +0.161 C 
ATOM     25  C   UNL     1      37.569 -27.286 -14.077  0.00  0.00    +0.069 C 
ENDBRANCH   3  20
BRANCH   5  27
ATOM     26  O   UNL     1      34.547 -20.668 -19.946  0.00  0.00    -0.275 OA
ATOM     27  N   UNL     1      36.444 -21.063 -18.591  0.00  0.00    -0.274 N 
ATOM     28  C   UNL     1      35.743 -20.536 -19.704  0.00  0.00    +0.225 C 
ATOM     29  C   UNL     1      36.635 -19.742 -20.626  0.00  0.00    +0.095 C 
ATOM     30  H   UNL     1      37.405 -20.856 -18.558  0.00  0.00    +0.152 HD
ENDBRANCH   5  27
TORSDOF 3
ENDMDL
MODEL 7
REMARK VINA RESULT:     -10.1      3.327      7.206
REMARK  Name = 25138294
REMARK  3 active torsions:
REMARK  status: ('A' for Active; 'I' for Inactive)
REMARK    1  A    between atoms: N_4  and  C_7
REMARK    2  A    between atoms: C_5  and  C_25
REMARK    3  A    between atoms: C_6  and  C_15
REMARK                            x       y       z     vdW  Elec       q    Type
REMARK                         _______ _______ _______ _____ _____    ______ ____
ROOT
ATOM      1  N   UNL     1      33.562 -25.201 -13.739  0.00  0.00    -0.300 N 
ATOM      2  N   UNL     1      32.728 -23.778 -15.227  0.00  0.00    -0.302 N 
ATOM      3  C   UNL     1      34.639 -24.643 -14.367  0.00  0.00    +0.086 C 
ATOM      4  C   UNL     1      34.100 -23.769 -15.281  0.00  0.00    +0.058 C 
ATOM      5  C   UNL     1      32.437 -24.651 -14.289  0.00  0.00    +0.227 C 
ATOM      6  H   UNL     1      33.590 -25.875 -13.022  0.00  0.00    +0.150 HD
ATOM      7  H   UNL     1      32.102 -23.249 -15.771  0.00  0.00    +0.150 HD
ENDROOT
BRANCH   4  10
ATOM      8  N   UNL     1      34.456 -21.432 -19.489  0.00  0.00    -0.245 NA
ATOM      9  N   UNL     1      37.001 -20.553 -18.805  0.00  0.00    -0.245 NA
ATOM     10  C   UNL     1      34.848 -22.941 -16.186  0.00  0.00    -0.006 C 
ATOM     11  C   UNL     1      34.301 -22.574 -17.414  0.00  0.00    +0.074 C 
ATOM     12  C   UNL     1      36.119 -22.502 -15.844  0.00  0.00    -0.022 C 
ATOM     13  C   UNL     1      35.005 -21.773 -18.310  0.00  0.00    +0.077 C 
ATOM     14  C   UNL     1      36.294 -21.329 -17.963  0.00  0.00    +0.077 C 
ATOM     15  C   UNL     1      36.831 -21.701 -16.734  0.00  0.00    +0.073 C 
ATOM     16  C   UNL     1      35.180 -20.657 -20.316  0.00  0.00    +0.119 C 
ATOM     17  C   UNL     1      36.434 -20.224 -19.979  0.00  0.00    +0.119 C 
ENDBRANCH   4  10
BRANCH   3  20
ATOM     18  F   UNL     1      39.818 -25.826 -12.915  0.00  0.00    -0.202 F 
ATOM     19  N   UNL     1      36.496 -24.357 -12.952  0.00  0.00    -0.407 NA
ATOM     20  C   UNL     1      35.999 -24.993 -14.038  0.00  0.00    +0.127 C 
ATOM     21  C   UNL     1      36.710 -25.911 -14.792  0.00  0.00    +0.089 C 
ATOM     22  C   UNL     1      37.769 -24.660 -12.611  0.00  0.00    +0.136 C 
ATOM     23  C   UNL     1      38.016 -26.197 -14.409  0.00  0.00    +0.013 C 
ATOM     24  C   UNL     1      38.562 -25.564 -13.298  0.00  0.00    +0.161 C 
ATOM     25  C   UNL     1      38.321 -23.959 -11.414  0.00  0.00    +0.069 C 
ENDBRANCH   3  20
BRANCH   5  27
ATOM     26  O   UNL     1      29.790 -24.711 -15.723  0.00  0.00    -0.275 OA
ATOM     27  N   UNL     1      31.194 -25.026 -13.847  0.00  0.00    -0.274 N 
ATOM     28  C   UNL     1      29.967 -25.040 -14.554  0.00  0.00    +0.225 C 
ATOM     29  C   UNL     1      28.818 -25.528 -13.708  0.00  0.00    +0.095 C 
ATOM     30  H   UNL     1      31.149 -25.325 -12.911  0.00  0.00    +0.152 HD
ENDBRANCH   5  27
TORSDOF 3
ENDMDL
MODEL 8
REMARK VINA RESULT:      -9.3      2.612      5.428
REMARK  Name = 25138294
REMARK  3 active torsions:
REMARK  status: ('A' for Active; 'I' for Inactive)
REMARK    1  A    between atoms: N_4  and  C_7
REMARK    2  A    between atoms: C_5  and  C_25
REMARK    3  A    between atoms: C_6  and  C_15
REMARK                            x       y       z     vdW  Elec       q    Type
REMARK                         _______ _______ _______ _____ _____    ______ ____
ROOT
ATOM      1  N   UNL     1      36.995 -22.277 -16.828  0.00  0.00    -0.300 N 
ATOM      2  N   UNL     1      34.989 -21.859 -17.686  0.00  0.00    -0.302 N 
ATOM      3  C   UNL     1      36.101 -22.918 -16.018  0.00  0.00    +0.086 C 
ATOM      4  C   UNL     1      34.871 -22.645 -16.566  0.00  0.00    +0.058 C 
ATOM      5  C   UNL     1      36.281 -21.655 -17.815  0.00  0.00    +0.227 C 
ATOM      6  H   UNL     1      37.973 -22.264 -16.722  0.00  0.00    +0.150 HD
ATOM      7  H   UNL     1      34.267 -21.522 -18.263  0.00  0.00    +0.150 HD
ENDROOT
BRANCH   4  10
ATOM      8  N   UNL     1      32.292 -24.803 -13.104  0.00  0.00    -0.245 NA
ATOM      9  N   UNL     1      29.971 -24.452 -14.590  0.00  0.00    -0.245 NA
ATOM     10  C   UNL     1      33.609 -23.109 -16.059  0.00  0.00    -0.006 C 
ATOM     11  C   UNL     1      33.541 -23.738 -14.817  0.00  0.00    +0.074 C 
ATOM     12  C   UNL     1      32.450 -22.934 -16.801  0.00  0.00    -0.022 C 
ATOM     13  C   UNL     1      32.331 -24.198 -14.304  0.00  0.00    +0.077 C 
ATOM     14  C   UNL     1      31.157 -24.021 -15.057  0.00  0.00    +0.077 C 
ATOM     15  C   UNL     1      31.235 -23.390 -16.296  0.00  0.00    +0.073 C 
ATOM     16  C   UNL     1      31.098 -25.227 -12.655  0.00  0.00    +0.119 C 
ATOM     17  C   UNL     1      29.954 -25.054 -13.387  0.00  0.00    +0.119 C 
ENDBRANCH   4  10
BRANCH   3  20
ATOM     18  F   UNL     1      37.660 -25.627 -11.484  0.00  0.00    -0.202 F 
ATOM     19  N   UNL     1      36.753 -22.945 -13.759  0.00  0.00    -0.407 NA
ATOM     20  C   UNL     1      36.506 -23.683 -14.865  0.00  0.00    +0.127 C 
ATOM     21  C   UNL     1      36.622 -25.062 -14.918  0.00  0.00    +0.089 C 
ATOM     22  C   UNL     1      37.135 -23.626 -12.655  0.00  0.00    +0.136 C 
ATOM     23  C   UNL     1      37.016 -25.728 -13.763  0.00  0.00    +0.013 C 
ATOM     24  C   UNL     1      37.279 -25.003 -12.606  0.00  0.00    +0.161 C 
ATOM     25  C   UNL     1      37.409 -22.814 -11.433  0.00  0.00    +0.069 C 
ENDBRANCH   3  20
BRANCH   5  27
ATOM     26  O   UNL     1      35.173 -19.944 -20.031  0.00  0.00    -0.275 OA
ATOM     27  N   UNL     1      36.923 -20.929 -18.784  0.00  0.00    -0.274 N 
ATOM     28  C   UNL     1      36.366 -20.132 -19.814  0.00  0.00    +0.225 C 
ATOM     29  C   UNL     1      37.419 -19.486 -20.680  0.00  0.00    +0.095 C 
ATOM     30  H   UNL     1      37.906 -20.966 -18.761  0.00  0.00    +0.152 HD
ENDBRANCH   5  27
TORSDOF 3
ENDMDL
MODEL 9
REMARK VINA RESULT:      -8.9      2.521      5.075
REMARK  Name = 25138294
REMARK  3 active torsions:
REMARK  status: ('A' for Active; 'I' for Inactive)
REMARK    1  A    between atoms: N_4  and  C_7
REMARK    2  A    between atoms: C_5  and  C_25
REMARK    3  A    between atoms: C_6  and  C_15
REMARK                            x       y       z     vdW  Elec       q    Type
REMARK                         _______ _______ _______ _____ _____    ______ ____
ROOT
ATOM      1  N   UNL     1      35.222 -21.632 -18.742  0.00  0.00    -0.300 N 
ATOM      2  N   UNL     1      33.008 -21.714 -18.906  0.00  0.00    -0.302 N 
ATOM      3  C   UNL     1      34.782 -22.207 -17.583  0.00  0.00    +0.086 C 
ATOM      4  C   UNL     1      33.414 -22.246 -17.707  0.00  0.00    +0.058 C 
ATOM      5  C   UNL     1      34.121 -21.354 -19.505  0.00  0.00    +0.227 C 
ATOM      6  H   UNL     1      36.159 -21.452 -18.984  0.00  0.00    +0.150 HD
ATOM      7  H   UNL     1      32.088 -21.623 -19.242  0.00  0.00    +0.150 HD
ENDROOT
BRANCH   4  10
ATOM      8  N   UNL     1      32.598 -24.790 -13.688  0.00  0.00    -0.245 NA
ATOM      9  N   UNL     1      29.874 -24.289 -13.903  0.00  0.00    -0.245 NA
ATOM     10  C   UNL     1      32.502 -22.770 -16.729  0.00  0.00    -0.006 C 
ATOM     11  C   UNL     1      32.978 -23.534 -15.665  0.00  0.00    +0.074 C 
ATOM     12  C   UNL     1      31.141 -22.520 -16.836  0.00  0.00    -0.022 C 
ATOM     13  C   UNL     1      32.115 -24.055 -14.704  0.00  0.00    +0.077 C 
ATOM     14  C   UNL     1      30.736 -23.801 -14.814  0.00  0.00    +0.077 C 
ATOM     15  C   UNL     1      30.270 -23.037 -15.880  0.00  0.00    +0.073 C 
ATOM     16  C   UNL     1      31.720 -25.268 -12.788  0.00  0.00    +0.119 C 
ATOM     17  C   UNL     1      30.378 -25.021 -12.894  0.00  0.00    +0.119 C 
ENDBRANCH   4  10
BRANCH   3  20
ATOM     18  F   UNL     1      38.086 -24.050 -13.581  0.00  0.00    -0.202 F 
ATOM     19  N   UNL     1      35.433 -23.872 -16.055  0.00  0.00    -0.407 NA
ATOM     20  C   UNL     1      35.679 -22.633 -16.537  0.00  0.00    +0.127 C 
ATOM     21  C   UNL     1      36.701 -21.814 -16.086  0.00  0.00    +0.089 C 
ATOM     22  C   UNL     1      36.253 -24.308 -15.073  0.00  0.00    +0.136 C 
ATOM     23  C   UNL     1      37.525 -22.298 -15.076  0.00  0.00    +0.013 C 
ATOM     24  C   UNL     1      37.303 -23.568 -14.555  0.00  0.00    +0.161 C 
ATOM     25  C   UNL     1      35.983 -25.675 -14.538  0.00  0.00    +0.069 C 
ENDBRANCH   3  20
BRANCH   5  27
ATOM     26  O   UNL     1      35.885 -19.084 -20.403  0.00  0.00    -0.275 OA
ATOM     27  N   UNL     1      34.260 -20.769 -20.737  0.00  0.00    -0.274 N 
ATOM     28  C   UNL     1      35.104 -19.699 -21.123  0.00  0.00    +0.225 C 
ATOM     29  C   UNL     1      34.964 -19.351 -22.584  0.00  0.00    +0.095 C 
ATOM     30  H   UNL     1      33.697 -21.145 -21.451  0.00  0.00    +0.152 HD
ENDBRANCH   5  27
TORSDOF 3
ENDMDL
