MODEL 1
REMARK VINA RESULT:     -11.1      0.000      0.000
REMARK  Name = 445459
REMARK  7 active torsions:
REMARK  status: ('A' for Active; 'I' for Inactive)
REMARK    1  A    between atoms: C_1  and  C_7
REMARK    2  A    between atoms: C_1  and  N_13
REMARK    3  A    between atoms: C_1  and  C_27
REMARK    4  A    between atoms: C_4  and  C_9
REMARK    5  A    between atoms: C_9  and  O_10
REMARK    6  A    between atoms: C_14  and  C_18
REMARK    7  A    between atoms: C_27  and  C_28
REMARK                            x       y       z     vdW  Elec       q    Type
REMARK                         _______ _______ _______ _____ _____    ______ ____
ROOT
ATOM      1  C   UNL     1      32.919 -23.950 -14.272  0.00  0.00    +0.153 C 
ENDROOT
BRANCH   1   7
ATOM      2  O   UNL     1      31.576 -22.925 -12.581  0.00  0.00    -0.273 OA
ATOM      3  N   UNL     1      30.672 -23.164 -14.678  0.00  0.00    -0.277 N 
ATOM      4  C   UNL     1      29.282 -22.662 -16.094  0.00  0.00    +0.138 C 
ATOM      5  C   UNL     1      29.324 -22.643 -14.561  0.00  0.00    +0.106 C 
ATOM      6  C   UNL     1      30.554 -23.520 -16.078  0.00  0.00    +0.106 C 
ATOM      7  C   UNL     1      31.666 -23.298 -13.749  0.00  0.00    +0.244 C 
BRANCH   4   9
ATOM      8  O   UNL     1      27.820 -24.523 -16.877  0.00  0.00    -0.250 OA
ATOM      9  C   UNL     1      28.019 -23.317 -16.738  0.00  0.00    +0.317 C 
BRANCH   9  10
ATOM     10  O   UNL     1      27.112 -22.388 -17.146  0.00  0.00    -0.480 OA
ATOM     11  H   UNL     1      26.699 -21.829 -16.517  0.00  0.00    +0.295 HD
ENDBRANCH   9  10
ENDBRANCH   4   9
ENDBRANCH   1   7
BRANCH   1  13
ATOM     12  O   UNL     1      33.762 -24.862 -16.803  0.00  0.00    -0.269 OA
ATOM     13  N   UNL     1      33.311 -23.113 -15.384  0.00  0.00    -0.294 N 
ATOM     14  C   UNL     1      33.726 -23.619 -16.634  0.00  0.00    +0.260 C 
ATOM     15  H   UNL     1      33.287 -22.136 -15.262  0.00  0.00    +0.150 HD
BRANCH  14  18
ATOM     16 CL   UNL     1      36.523 -18.650 -21.760  0.00  0.00    -0.082 Cl
ATOM     17  N   UNL     1      33.128 -22.074 -18.462  0.00  0.00    -0.309 N 
ATOM     18  C   UNL     1      34.055 -22.667 -17.648  0.00  0.00    +0.102 C 
ATOM     19  C   UNL     1      35.295 -22.181 -17.993  0.00  0.00    +0.020 C 
ATOM     20  C   UNL     1      35.116 -21.257 -19.060  0.00  0.00    +0.016 C 
ATOM     21  C   UNL     1      33.748 -21.208 -19.335  0.00  0.00    +0.048 C 
ATOM     22  C   UNL     1      35.989 -20.454 -19.820  0.00  0.00    +0.013 C 
ATOM     23  C   UNL     1      33.207 -20.395 -20.336  0.00  0.00    +0.015 C 
ATOM     24  C   UNL     1      35.463 -19.635 -20.826  0.00  0.00    +0.058 C 
ATOM     25  C   UNL     1      34.092 -19.607 -21.078  0.00  0.00    +0.013 C 
ATOM     26  H   UNL     1      32.158 -22.244 -18.429  0.00  0.00    +0.152 HD
ENDBRANCH  14  18
ENDBRANCH   1  13
BRANCH   1  27
ATOM     27  C   UNL     1      33.984 -24.022 -13.180  0.00  0.00    +0.055 C 
BRANCH  27  28
ATOM     28  C   UNL     1      35.379 -24.167 -13.739  0.00  0.00    -0.020 C 
ATOM     29  C   UNL     1      36.172 -23.040 -13.888  0.00  0.00    -0.004 C 
ATOM     30  C   UNL     1      35.841 -25.425 -14.094  0.00  0.00    -0.004 C 
ATOM     31  C   UNL     1      37.461 -23.174 -14.404  0.00  0.00    -0.000 C 
ATOM     32  C   UNL     1      37.131 -25.558 -14.610  0.00  0.00    -0.000 C 
ATOM     33  C   UNL     1      37.940 -24.433 -14.765  0.00  0.00    -0.000 C 
ENDBRANCH  27  28
ENDBRANCH   1  27
TORSDOF 7
ENDMDL
MODEL 2
REMARK VINA RESULT:     -10.9      2.700      5.699
REMARK  Name = 445459
REMARK  7 active torsions:
REMARK  status: ('A' for Active; 'I' for Inactive)
REMARK    1  A    between atoms: C_1  and  C_7
REMARK    2  A    between atoms: C_1  and  N_13
REMARK    3  A    between atoms: C_1  and  C_27
REMARK    4  A    between atoms: C_4  and  C_9
REMARK    5  A    between atoms: C_9  and  O_10
REMARK    6  A    between atoms: C_14  and  C_18
REMARK    7  A    between atoms: C_27  and  C_28
REMARK                            x       y       z     vdW  Elec       q    Type
REMARK                         _______ _______ _______ _____ _____    ______ ____
ROOT
ATOM      1  C   UNL     1      34.718 -22.776 -15.434  0.00  0.00    +0.153 C 
ENDROOT
BRANCH   1   7
ATOM      2  O   UNL     1      37.000 -23.344 -15.861  0.00  0.00    -0.273 OA
ATOM      3  N   UNL     1      36.228 -23.525 -13.706  0.00  0.00    -0.277 N 
ATOM      4  C   UNL     1      36.564 -23.662 -11.692  0.00  0.00    +0.138 C 
ATOM      5  C   UNL     1      37.356 -24.035 -12.951  0.00  0.00    +0.106 C 
ATOM      6  C   UNL     1      35.323 -23.479 -12.574  0.00  0.00    +0.106 C 
ATOM      7  C   UNL     1      36.094 -23.241 -15.036  0.00  0.00    +0.244 C 
BRANCH   4   9
ATOM      8  O   UNL     1      36.465 -25.979 -10.778  0.00  0.00    -0.250 OA
ATOM      9  C   UNL     1      36.467 -24.764 -10.589  0.00  0.00    +0.317 C 
BRANCH   9  10
ATOM     10  O   UNL     1      36.390 -24.232  -9.339  0.00  0.00    -0.480 OA
ATOM     11  H   UNL     1      37.172 -24.070  -8.849  0.00  0.00    +0.295 HD
ENDBRANCH   9  10
ENDBRANCH   4   9
ENDBRANCH   1   7
BRANCH   1  13
ATOM     12  O   UNL     1      34.263 -23.523 -18.115  0.00  0.00    -0.269 OA
ATOM     13  N   UNL     1      34.951 -21.945 -16.595  0.00  0.00    -0.294 N 
ATOM     14  C   UNL     1      34.707 -22.366 -17.919  0.00  0.00    +0.260 C 
ATOM     15  H   UNL     1      35.301 -21.036 -16.452  0.00  0.00    +0.150 HD
BRANCH  14  18
ATOM     16 CL   UNL     1      35.030 -17.477 -23.817  0.00  0.00    -0.082 Cl
ATOM     17  N   UNL     1      36.157 -20.780 -19.132  0.00  0.00    -0.309 N 
ATOM     18  C   UNL     1      34.959 -21.421 -18.962  0.00  0.00    +0.102 C 
ATOM     19  C   UNL     1      34.102 -20.988 -19.947  0.00  0.00    +0.020 C 
ATOM     20  C   UNL     1      34.806 -20.046 -20.748  0.00  0.00    +0.016 C 
ATOM     21  C   UNL     1      36.091 -19.933 -20.216  0.00  0.00    +0.048 C 
ATOM     22  C   UNL     1      34.470 -19.276 -21.879  0.00  0.00    +0.013 C 
ATOM     23  C   UNL     1      37.063 -19.085 -20.759  0.00  0.00    +0.015 C 
ATOM     24  C   UNL     1      35.431 -18.422 -22.434  0.00  0.00    +0.058 C 
ATOM     25  C   UNL     1      36.707 -18.330 -21.881  0.00  0.00    +0.013 C 
ATOM     26  H   UNL     1      36.949 -20.905 -18.561  0.00  0.00    +0.152 HD
ENDBRANCH  14  18
ENDBRANCH   1  13
BRANCH   1  27
ATOM     27  C   UNL     1      33.811 -23.968 -15.732  0.00  0.00    +0.055 C 
BRANCH  27  28
ATOM     28  C   UNL     1      32.393 -23.749 -15.263  0.00  0.00    -0.020 C 
ATOM     29  C   UNL     1      31.494 -23.100 -16.095  0.00  0.00    -0.004 C 
ATOM     30  C   UNL     1      32.014 -24.203 -14.009  0.00  0.00    -0.004 C 
ATOM     31  C   UNL     1      30.183 -22.898 -15.663  0.00  0.00    -0.000 C 
ATOM     32  C   UNL     1      30.703 -24.001 -13.576  0.00  0.00    -0.000 C 
ATOM     33  C   UNL     1      29.788 -23.349 -14.403  0.00  0.00    -0.000 C 
ENDBRANCH  27  28
ENDBRANCH   1  27
TORSDOF 7
ENDMDL
MODEL 3
REMARK VINA RESULT:     -10.0      2.321      5.576
REMARK  Name = 445459
REMARK  7 active torsions:
REMARK  status: ('A' for Active; 'I' for Inactive)
REMARK    1  A    between atoms: C_1  and  C_7
REMARK    2  A    between atoms: C_1  and  N_13
REMARK    3  A    between atoms: C_1  and  C_27
REMARK    4  A    between atoms: C_4  and  C_9
REMARK    5  A    between atoms: C_9  and  O_10
REMARK    6  A    between atoms: C_14  and  C_18
REMARK    7  A    between atoms: C_27  and  C_28
REMARK                            x       y       z     vdW  Elec       q    Type
REMARK                         _______ _______ _______ _____ _____    ______ ____
ROOT
ATOM      1  C   UNL     1      33.449 -23.824 -14.845  0.00  0.00    +0.153 C 
ENDROOT
BRANCH   1   7
ATOM      2  O   UNL     1      35.254 -25.317 -15.321  0.00  0.00    -0.273 OA
ATOM      3  N   UNL     1      35.118 -24.429 -13.208  0.00  0.00    -0.277 N 
ATOM      4  C   UNL     1      35.967 -23.970 -11.403  0.00  0.00    +0.138 C 
ATOM      5  C   UNL     1      36.223 -25.027 -12.484  0.00  0.00    +0.106 C 
ATOM      6  C   UNL     1      34.629 -23.655 -12.084  0.00  0.00    +0.106 C 
ATOM      7  C   UNL     1      34.691 -24.601 -14.495  0.00  0.00    +0.244 C 
BRANCH   4   9
ATOM      8  O   UNL     1      35.230 -25.460  -9.546  0.00  0.00    -0.250 OA
ATOM      9  C   UNL     1      35.884 -24.494  -9.935  0.00  0.00    +0.317 C 
BRANCH   9  10
ATOM     10  O   UNL     1      36.645 -23.753  -9.083  0.00  0.00    -0.480 OA
ATOM     11  H   UNL     1      36.252 -23.348  -8.335  0.00  0.00    +0.295 HD
ENDBRANCH   9  10
ENDBRANCH   4   9
ENDBRANCH   1   7
BRANCH   1  13
ATOM     12  O   UNL     1      33.369 -24.437 -17.596  0.00  0.00    -0.269 OA
ATOM     13  N   UNL     1      33.872 -22.952 -15.918  0.00  0.00    -0.294 N 
ATOM     14  C   UNL     1      33.812 -23.306 -17.282  0.00  0.00    +0.260 C 
ATOM     15  H   UNL     1      34.222 -22.062 -15.683  0.00  0.00    +0.150 HD
BRANCH  14  18
ATOM     16 CL   UNL     1      37.109 -18.251 -22.012  0.00  0.00    -0.082 Cl
ATOM     17  N   UNL     1      33.386 -21.653 -19.064  0.00  0.00    -0.309 N 
ATOM     18  C   UNL     1      34.239 -22.326 -18.231  0.00  0.00    +0.102 C 
ATOM     19  C   UNL     1      35.517 -21.885 -18.487  0.00  0.00    +0.020 C 
ATOM     20  C   UNL     1      35.439 -20.906 -19.517  0.00  0.00    +0.016 C 
ATOM     21  C   UNL     1      34.091 -20.779 -19.860  0.00  0.00    +0.048 C 
ATOM     22  C   UNL     1      36.388 -20.113 -20.191  0.00  0.00    +0.013 C 
ATOM     23  C   UNL     1      33.643 -19.896 -20.849  0.00  0.00    +0.015 C 
ATOM     24  C   UNL     1      35.955 -19.225 -21.183  0.00  0.00    +0.058 C 
ATOM     25  C   UNL     1      34.603 -19.120 -21.505  0.00  0.00    +0.013 C 
ATOM     26  H   UNL     1      32.409 -21.777 -19.090  0.00  0.00    +0.152 HD
ENDBRANCH  14  18
ENDBRANCH   1  13
BRANCH   1  27
ATOM     27  C   UNL     1      32.322 -24.768 -15.258  0.00  0.00    +0.055 C 
BRANCH  27  28
ATOM     28  C   UNL     1      30.962 -24.118 -15.177  0.00  0.00    -0.020 C 
ATOM     29  C   UNL     1      30.843 -22.858 -14.612  0.00  0.00    -0.004 C 
ATOM     30  C   UNL     1      29.856 -24.793 -15.671  0.00  0.00    -0.004 C 
ATOM     31  C   UNL     1      29.586 -22.257 -14.538  0.00  0.00    -0.000 C 
ATOM     32  C   UNL     1      28.599 -24.192 -15.596  0.00  0.00    -0.000 C 
ATOM     33  C   UNL     1      28.465 -22.924 -15.030  0.00  0.00    -0.000 C 
ENDBRANCH  27  28
ENDBRANCH   1  27
TORSDOF 7
ENDMDL
MODEL 4
REMARK VINA RESULT:      -9.9     12.564     16.508
REMARK  Name = 445459
REMARK  7 active torsions:
REMARK  status: ('A' for Active; 'I' for Inactive)
REMARK    1  A    between atoms: C_1  and  C_7
REMARK    2  A    between atoms: C_1  and  N_13
REMARK    3  A    between atoms: C_1  and  C_27
REMARK    4  A    between atoms: C_4  and  C_9
REMARK    5  A    between atoms: C_9  and  O_10
REMARK    6  A    between atoms: C_14  and  C_18
REMARK    7  A    between atoms: C_27  and  C_28
REMARK                            x       y       z     vdW  Elec       q    Type
REMARK                         _______ _______ _______ _____ _____    ______ ____
ROOT
ATOM      1  C   UNL     1      33.276  -8.803 -23.132  0.00  0.00    +0.153 C 
ENDROOT
BRANCH   1   7
ATOM      2  O   UNL     1      35.619  -8.360 -23.294  0.00  0.00    -0.273 OA
ATOM      3  N   UNL     1      34.191  -7.093 -24.569  0.00  0.00    -0.277 N 
ATOM      4  C   UNL     1      33.839  -5.838 -26.148  0.00  0.00    +0.138 C 
ATOM      5  C   UNL     1      35.051  -6.151 -25.260  0.00  0.00    +0.106 C 
ATOM      6  C   UNL     1      32.958  -6.589 -25.142  0.00  0.00    +0.106 C 
ATOM      7  C   UNL     1      34.481  -8.073 -23.662  0.00  0.00    +0.244 C 
BRANCH   4   9
ATOM      8  O   UNL     1      33.430  -3.474 -25.470  0.00  0.00    -0.250 OA
ATOM      9  C   UNL     1      33.511  -4.325 -26.354  0.00  0.00    +0.317 C 
BRANCH   9  10
ATOM     10  O   UNL     1      33.321  -4.016 -27.666  0.00  0.00    -0.480 OA
ATOM     11  H   UNL     1      34.028  -4.104 -28.275  0.00  0.00    +0.295 HD
ENDBRANCH   9  10
ENDBRANCH   4   9
ENDBRANCH   1   7
BRANCH   1  13
ATOM     12  O   UNL     1      31.583 -10.998 -22.615  0.00  0.00    -0.269 OA
ATOM     13  N   UNL     1      33.657 -10.197 -23.191  0.00  0.00    -0.294 N 
ATOM     14  C   UNL     1      32.771 -11.261 -22.922  0.00  0.00    +0.260 C 
ATOM     15  H   UNL     1      34.587 -10.415 -23.431  0.00  0.00    +0.150 HD
BRANCH  14  18
ATOM     16 CL   UNL     1      35.923 -18.243 -22.598  0.00  0.00    -0.082 Cl
ATOM     17  N   UNL     1      33.114 -13.366 -24.163  0.00  0.00    -0.309 N 
ATOM     18  C   UNL     1      33.286 -12.588 -23.049  0.00  0.00    +0.102 C 
ATOM     19  C   UNL     1      34.014 -13.313 -22.134  0.00  0.00    +0.020 C 
ATOM     20  C   UNL     1      34.296 -14.582 -22.714  0.00  0.00    +0.016 C 
ATOM     21  C   UNL     1      33.721 -14.589 -23.986  0.00  0.00    +0.048 C 
ATOM     22  C   UNL     1      34.988 -15.728 -22.276  0.00  0.00    +0.013 C 
ATOM     23  C   UNL     1      33.803 -15.690 -24.846  0.00  0.00    +0.015 C 
ATOM     24  C   UNL     1      35.079 -16.837 -23.125  0.00  0.00    +0.058 C 
ATOM     25  C   UNL     1      34.495 -16.816 -24.390  0.00  0.00    +0.013 C 
ATOM     26  H   UNL     1      32.627 -13.091 -24.974  0.00  0.00    +0.152 HD
ENDBRANCH  14  18
ENDBRANCH   1  13
BRANCH   1  27
ATOM     27  C   UNL     1      32.943  -8.339 -21.716  0.00  0.00    +0.055 C 
BRANCH  27  28
ATOM     28  C   UNL     1      32.217  -7.015 -21.695  0.00  0.00    -0.020 C 
ATOM     29  C   UNL     1      32.850  -5.900 -21.170  0.00  0.00    -0.004 C 
ATOM     30  C   UNL     1      30.929  -6.939 -22.203  0.00  0.00    -0.004 C 
ATOM     31  C   UNL     1      32.180  -4.677 -21.151  0.00  0.00    -0.000 C 
ATOM     32  C   UNL     1      30.259  -5.715 -22.184  0.00  0.00    -0.000 C 
ATOM     33  C   UNL     1      30.885  -4.585 -21.658  0.00  0.00    -0.000 C 
ENDBRANCH  27  28
ENDBRANCH   1  27
TORSDOF 7
ENDMDL
MODEL 5
REMARK VINA RESULT:      -9.8      2.253      3.403
REMARK  Name = 445459
REMARK  7 active torsions:
REMARK  status: ('A' for Active; 'I' for Inactive)
REMARK    1  A    between atoms: C_1  and  C_7
REMARK    2  A    between atoms: C_1  and  N_13
REMARK    3  A    between atoms: C_1  and  C_27
REMARK    4  A    between atoms: C_4  and  C_9
REMARK    5  A    between atoms: C_9  and  O_10
REMARK    6  A    between atoms: C_14  and  C_18
REMARK    7  A    between atoms: C_27  and  C_28
REMARK                            x       y       z     vdW  Elec       q    Type
REMARK                         _______ _______ _______ _____ _____    ______ ____
ROOT
ATOM      1  C   UNL     1      36.001 -23.218 -15.860  0.00  0.00    +0.153 C 
ENDROOT
BRANCH   1   7
ATOM      2  O   UNL     1      35.377 -21.514 -14.304  0.00  0.00    -0.273 OA
ATOM      3  N   UNL     1      33.896 -23.229 -14.677  0.00  0.00    -0.277 N 
ATOM      4  C   UNL     1      32.007 -24.012 -14.585  0.00  0.00    +0.138 C 
ATOM      5  C   UNL     1      32.783 -22.954 -13.789  0.00  0.00    +0.106 C 
ATOM      6  C   UNL     1      33.334 -24.449 -15.219  0.00  0.00    +0.106 C 
ATOM      7  C   UNL     1      35.074 -22.563 -14.871  0.00  0.00    +0.244 C 
BRANCH   4   9
ATOM      8  O   UNL     1      31.557 -25.463 -12.609  0.00  0.00    -0.250 OA
ATOM      9  C   UNL     1      31.258 -25.092 -13.743  0.00  0.00    +0.317 C 
BRANCH   9  10
ATOM     10  O   UNL     1      30.188 -25.608 -14.408  0.00  0.00    -0.480 OA
ATOM     11  H   UNL     1      29.349 -25.197 -14.335  0.00  0.00    +0.295 HD
ENDBRANCH   9  10
ENDBRANCH   4   9
ENDBRANCH   1   7
BRANCH   1  13
ATOM     12  O   UNL     1      34.243 -23.320 -18.062  0.00  0.00    -0.269 OA
ATOM     13  N   UNL     1      36.007 -22.314 -16.988  0.00  0.00    -0.294 N 
ATOM     14  C   UNL     1      35.104 -22.407 -18.068  0.00  0.00    +0.260 C 
ATOM     15  H   UNL     1      36.678 -21.594 -17.003  0.00  0.00    +0.150 HD
BRANCH  14  18
ATOM     16 CL   UNL     1      34.679 -17.409 -23.868  0.00  0.00    -0.082 Cl
ATOM     17  N   UNL     1      36.324 -20.644 -19.290  0.00  0.00    -0.309 N 
ATOM     18  C   UNL     1      35.213 -21.421 -19.098  0.00  0.00    +0.102 C 
ATOM     19  C   UNL     1      34.281 -21.071 -20.047  0.00  0.00    +0.020 C 
ATOM     20  C   UNL     1      34.847 -20.041 -20.849  0.00  0.00    +0.016 C 
ATOM     21  C   UNL     1      36.128 -19.792 -20.353  0.00  0.00    +0.048 C 
ATOM     22  C   UNL     1      34.390 -19.294 -21.953  0.00  0.00    +0.013 C 
ATOM     23  C   UNL     1      36.979 -18.829 -20.907  0.00  0.00    +0.015 C 
ATOM     24  C   UNL     1      35.230 -18.327 -22.518  0.00  0.00    +0.058 C 
ATOM     25  C   UNL     1      36.504 -18.100 -22.002  0.00  0.00    +0.013 C 
ATOM     26  H   UNL     1      37.144 -20.688 -18.746  0.00  0.00    +0.152 HD
ENDBRANCH  14  18
ENDBRANCH   1  13
BRANCH   1  27
ATOM     27  C   UNL     1      37.388 -23.415 -15.251  0.00  0.00    +0.055 C 
BRANCH  27  28
ATOM     28  C   UNL     1      37.406 -24.479 -14.181  0.00  0.00    -0.020 C 
ATOM     29  C   UNL     1      37.183 -25.801 -14.532  0.00  0.00    -0.004 C 
ATOM     30  C   UNL     1      37.646 -24.115 -12.865  0.00  0.00    -0.004 C 
ATOM     31  C   UNL     1      37.201 -26.785 -13.544  0.00  0.00    -0.000 C 
ATOM     32  C   UNL     1      37.664 -25.100 -11.875  0.00  0.00    -0.000 C 
ATOM     33  C   UNL     1      37.441 -26.434 -12.216  0.00  0.00    -0.000 C 
ENDBRANCH  27  28
ENDBRANCH   1  27
TORSDOF 7
ENDMDL
MODEL 6
REMARK VINA RESULT:      -9.6      1.218      1.582
REMARK  Name = 445459
REMARK  7 active torsions:
REMARK  status: ('A' for Active; 'I' for Inactive)
REMARK    1  A    between atoms: C_1  and  C_7
REMARK    2  A    between atoms: C_1  and  N_13
REMARK    3  A    between atoms: C_1  and  C_27
REMARK    4  A    between atoms: C_4  and  C_9
REMARK    5  A    between atoms: C_9  and  O_10
REMARK    6  A    between atoms: C_14  and  C_18
REMARK    7  A    between atoms: C_27  and  C_28
REMARK                            x       y       z     vdW  Elec       q    Type
REMARK                         _______ _______ _______ _____ _____    ______ ____
ROOT
ATOM      1  C   UNL     1      34.098 -23.966 -14.352  0.00  0.00    +0.153 C 
ENDROOT
BRANCH   1   7
ATOM      2  O   UNL     1      32.832 -23.402 -12.404  0.00  0.00    -0.273 OA
ATOM      3  N   UNL     1      31.756 -23.387 -14.432  0.00  0.00    -0.277 N 
ATOM      4  C   UNL     1      30.190 -22.817 -15.622  0.00  0.00    +0.138 C 
ATOM      5  C   UNL     1      30.380 -23.051 -14.118  0.00  0.00    +0.106 C 
ATOM      6  C   UNL     1      31.536 -23.513 -15.860  0.00  0.00    +0.106 C 
ATOM      7  C   UNL     1      32.844 -23.560 -13.624  0.00  0.00    +0.244 C 
BRANCH   4   9
ATOM      8  O   UNL     1      28.604 -24.670 -16.137  0.00  0.00    -0.250 OA
ATOM      9  C   UNL     1      28.942 -23.495 -16.271  0.00  0.00    +0.317 C 
BRANCH   9  10
ATOM     10  O   UNL     1      28.222 -22.623 -17.029  0.00  0.00    -0.480 OA
ATOM     11  H   UNL     1      28.072 -21.750 -16.724  0.00  0.00    +0.295 HD
ENDBRANCH   9  10
ENDBRANCH   4   9
ENDBRANCH   1   7
BRANCH   1  13
ATOM     12  O   UNL     1      36.277 -23.542 -16.090  0.00  0.00    -0.269 OA
ATOM     13  N   UNL     1      34.072 -23.175 -15.562  0.00  0.00    -0.294 N 
ATOM     14  C   UNL     1      35.193 -22.992 -16.400  0.00  0.00    +0.260 C 
ATOM     15  H   UNL     1      33.226 -22.739 -15.814  0.00  0.00    +0.150 HD
BRANCH  14  18
ATOM     16 CL   UNL     1      35.272 -18.679 -22.738  0.00  0.00    -0.082 Cl
ATOM     17  N   UNL     1      33.779 -21.940 -18.128  0.00  0.00    -0.309 N 
ATOM     18  C   UNL     1      35.005 -22.206 -17.579  0.00  0.00    +0.102 C 
ATOM     19  C   UNL     1      35.960 -21.593 -18.357  0.00  0.00    +0.020 C 
ATOM     20  C   UNL     1      35.289 -20.929 -19.422  0.00  0.00    +0.016 C 
ATOM     21  C   UNL     1      33.923 -21.163 -19.254  0.00  0.00    +0.048 C 
ATOM     22  C   UNL     1      35.715 -20.149 -20.515  0.00  0.00    +0.013 C 
ATOM     23  C   UNL     1      32.957 -20.653 -20.129  0.00  0.00    +0.015 C 
ATOM     24  C   UNL     1      34.760 -19.633 -21.399  0.00  0.00    +0.058 C 
ATOM     25  C   UNL     1      33.403 -19.883 -21.207  0.00  0.00    +0.013 C 
ATOM     26  H   UNL     1      32.920 -22.260 -17.768  0.00  0.00    +0.152 HD
ENDBRANCH  14  18
ENDBRANCH   1  13
BRANCH   1  27
ATOM     27  C   UNL     1      35.331 -23.696 -13.493  0.00  0.00    +0.055 C 
BRANCH  27  28
ATOM     28  C   UNL     1      36.364 -24.791 -13.600  0.00  0.00    -0.020 C 
ATOM     29  C   UNL     1      36.059 -25.949 -14.297  0.00  0.00    -0.004 C 
ATOM     30  C   UNL     1      37.602 -24.618 -12.999  0.00  0.00    -0.004 C 
ATOM     31  C   UNL     1      37.013 -26.961 -14.397  0.00  0.00    -0.000 C 
ATOM     32  C   UNL     1      38.557 -25.631 -13.098  0.00  0.00    -0.000 C 
ATOM     33  C   UNL     1      38.262 -26.801 -13.797  0.00  0.00    -0.000 C 
ENDBRANCH  27  28
ENDBRANCH   1  27
TORSDOF 7
ENDMDL
MODEL 7
REMARK VINA RESULT:      -9.3      1.959      2.913
REMARK  Name = 445459
REMARK  7 active torsions:
REMARK  status: ('A' for Active; 'I' for Inactive)
REMARK    1  A    between atoms: C_1  and  C_7
REMARK    2  A    between atoms: C_1  and  N_13
REMARK    3  A    between atoms: C_1  and  C_27
REMARK    4  A    between atoms: C_4  and  C_9
REMARK    5  A    between atoms: C_9  and  O_10
REMARK    6  A    between atoms: C_14  and  C_18
REMARK    7  A    between atoms: C_27  and  C_28
REMARK                            x       y       z     vdW  Elec       q    Type
REMARK                         _______ _______ _______ _____ _____    ______ ____
ROOT
ATOM      1  C   UNL     1      33.064 -23.202 -16.430  0.00  0.00    +0.153 C 
ENDROOT
BRANCH   1   7
ATOM      2  O   UNL     1      31.095 -21.988 -17.033  0.00  0.00    -0.273 OA
ATOM      3  N   UNL     1      30.848 -23.875 -15.749  0.00  0.00    -0.277 N 
ATOM      4  C   UNL     1      29.691 -25.387 -14.998  0.00  0.00    +0.138 C 
ATOM      5  C   UNL     1      29.424 -23.958 -15.486  0.00  0.00    +0.106 C 
ATOM      6  C   UNL     1      31.190 -25.062 -14.992  0.00  0.00    +0.106 C 
ATOM      7  C   UNL     1      31.579 -22.951 -16.441  0.00  0.00    +0.244 C 
BRANCH   4   9
ATOM      8  O   UNL     1      29.377 -25.301 -12.527  0.00  0.00    -0.250 OA
ATOM      9  C   UNL     1      29.066 -25.771 -13.619  0.00  0.00    +0.317 C 
BRANCH   9  10
ATOM     10  O   UNL     1      28.091 -26.713 -13.743  0.00  0.00    -0.480 OA
ATOM     11  H   UNL     1      27.242 -26.471 -14.058  0.00  0.00    +0.295 HD
ENDBRANCH   9  10
ENDBRANCH   4   9
ENDBRANCH   1   7
BRANCH   1  13
ATOM     12  O   UNL     1      34.016 -23.737 -19.030  0.00  0.00    -0.269 OA
ATOM     13  N   UNL     1      33.591 -22.223 -17.355  0.00  0.00    -0.294 N 
ATOM     14  C   UNL     1      34.056 -22.542 -18.648  0.00  0.00    +0.260 C 
ATOM     15  H   UNL     1      33.628 -21.283 -17.066  0.00  0.00    +0.150 HD
BRANCH  14  18
ATOM     16 CL   UNL     1      35.522 -16.644 -23.324  0.00  0.00    -0.082 Cl
ATOM     17  N   UNL     1      35.828 -21.050 -19.500  0.00  0.00    -0.309 N 
ATOM     18  C   UNL     1      34.522 -21.462 -19.460  0.00  0.00    +0.102 C 
ATOM     19  C   UNL     1      33.799 -20.661 -20.314  0.00  0.00    +0.020 C 
ATOM     20  C   UNL     1      34.699 -19.726 -20.897  0.00  0.00    +0.016 C 
ATOM     21  C   UNL     1      35.964 -19.991 -20.369  0.00  0.00    +0.048 C 
ATOM     22  C   UNL     1      34.558 -18.676 -21.825  0.00  0.00    +0.013 C 
ATOM     23  C   UNL     1      37.100 -19.255 -20.724  0.00  0.00    +0.015 C 
ATOM     24  C   UNL     1      35.685 -17.931 -22.190  0.00  0.00    +0.058 C 
ATOM     25  C   UNL     1      36.936 -18.218 -21.647  0.00  0.00    +0.013 C 
ATOM     26  H   UNL     1      36.562 -21.452 -18.981  0.00  0.00    +0.152 HD
ENDBRANCH  14  18
ENDBRANCH   1  13
BRANCH   1  27
ATOM     27  C   UNL     1      33.627 -23.048 -15.019  0.00  0.00    +0.055 C 
BRANCH  27  28
ATOM     28  C   UNL     1      35.052 -23.535 -14.906  0.00  0.00    -0.020 C 
ATOM     29  C   UNL     1      35.293 -24.861 -14.586  0.00  0.00    -0.004 C 
ATOM     30  C   UNL     1      36.093 -22.646 -15.126  0.00  0.00    -0.004 C 
ATOM     31  C   UNL     1      36.609 -25.312 -14.482  0.00  0.00    -0.000 C 
ATOM     32  C   UNL     1      37.410 -23.097 -15.022  0.00  0.00    -0.000 C 
ATOM     33  C   UNL     1      37.666 -24.430 -14.700  0.00  0.00    -0.000 C 
ENDBRANCH  27  28
ENDBRANCH   1  27
TORSDOF 7
ENDMDL
MODEL 8
REMARK VINA RESULT:      -9.3      3.053      6.053
REMARK  Name = 445459
REMARK  7 active torsions:
REMARK  status: ('A' for Active; 'I' for Inactive)
REMARK    1  A    between atoms: C_1  and  C_7
REMARK    2  A    between atoms: C_1  and  N_13
REMARK    3  A    between atoms: C_1  and  C_27
REMARK    4  A    between atoms: C_4  and  C_9
REMARK    5  A    between atoms: C_9  and  O_10
REMARK    6  A    between atoms: C_14  and  C_18
REMARK    7  A    between atoms: C_27  and  C_28
REMARK                            x       y       z     vdW  Elec       q    Type
REMARK                         _______ _______ _______ _____ _____    ______ ____
ROOT
ATOM      1  C   UNL     1      33.202 -23.063 -16.053  0.00  0.00    +0.153 C 
ENDROOT
BRANCH   1   7
ATOM      2  O   UNL     1      32.636 -24.629 -14.337  0.00  0.00    -0.273 OA
ATOM      3  N   UNL     1      30.933 -23.439 -15.315  0.00  0.00    -0.277 N 
ATOM      4  C   UNL     1      29.014 -22.729 -15.307  0.00  0.00    +0.138 C 
ATOM      5  C   UNL     1      29.726 -23.936 -14.684  0.00  0.00    +0.106 C 
ATOM      6  C   UNL     1      30.250 -22.504 -16.187  0.00  0.00    +0.106 C 
ATOM      7  C   UNL     1      32.243 -23.793 -15.149  0.00  0.00    +0.244 C 
BRANCH   4   9
ATOM      8  O   UNL     1      27.568 -23.659 -17.112  0.00  0.00    -0.250 OA
ATOM      9  C   UNL     1      27.680 -23.032 -16.061  0.00  0.00    +0.317 C 
BRANCH   9  10
ATOM     10  O   UNL     1      26.598 -22.518 -15.413  0.00  0.00    -0.480 OA
ATOM     11  H   UNL     1      25.885 -22.160 -15.904  0.00  0.00    +0.295 HD
ENDBRANCH   9  10
ENDBRANCH   4   9
ENDBRANCH   1   7
BRANCH   1  13
ATOM     12  O   UNL     1      35.276 -21.835 -14.591  0.00  0.00    -0.269 OA
ATOM     13  N   UNL     1      34.486 -23.654 -15.750  0.00  0.00    -0.294 N 
ATOM     14  C   UNL     1      35.494 -22.996 -15.013  0.00  0.00    +0.260 C 
ATOM     15  H   UNL     1      34.668 -24.565 -16.076  0.00  0.00    +0.150 HD
BRANCH  14  18
ATOM     16 CL   UNL     1      41.374 -27.508 -13.048  0.00  0.00    -0.082 Cl
ATOM     17  N   UNL     1      37.905 -23.406 -15.342  0.00  0.00    -0.309 N 
ATOM     18  C   UNL     1      36.702 -23.720 -14.768  0.00  0.00    +0.102 C 
ATOM     19  C   UNL     1      36.892 -24.814 -13.956  0.00  0.00    +0.020 C 
ATOM     20  C   UNL     1      38.265 -25.181 -14.039  0.00  0.00    +0.016 C 
ATOM     21  C   UNL     1      38.877 -24.282 -14.915  0.00  0.00    +0.048 C 
ATOM     22  C   UNL     1      39.047 -26.194 -13.452  0.00  0.00    +0.013 C 
ATOM     23  C   UNL     1      40.238 -24.346 -15.234  0.00  0.00    +0.015 C 
ATOM     24  C   UNL     1      40.410 -26.272 -13.762  0.00  0.00    +0.058 C 
ATOM     25  C   UNL     1      40.994 -25.361 -14.639  0.00  0.00    +0.013 C 
ATOM     26  H   UNL     1      38.053 -22.661 -15.970  0.00  0.00    +0.152 HD
ENDBRANCH  14  18
ENDBRANCH   1  13
BRANCH   1  27
ATOM     27  C   UNL     1      32.800 -23.236 -17.516  0.00  0.00    +0.055 C 
BRANCH  27  28
ATOM     28  C   UNL     1      33.472 -22.234 -18.424  0.00  0.00    -0.020 C 
ATOM     29  C   UNL     1      32.702 -21.286 -19.079  0.00  0.00    -0.004 C 
ATOM     30  C   UNL     1      34.848 -22.280 -18.585  0.00  0.00    -0.004 C 
ATOM     31  C   UNL     1      33.323 -20.360 -19.917  0.00  0.00    -0.000 C 
ATOM     32  C   UNL     1      35.469 -21.354 -19.424  0.00  0.00    -0.000 C 
ATOM     33  C   UNL     1      34.706 -20.394 -20.089  0.00  0.00    -0.000 C 
ENDBRANCH  27  28
ENDBRANCH   1  27
TORSDOF 7
ENDMDL
MODEL 9
REMARK VINA RESULT:      -9.2     12.009     15.744
REMARK  Name = 445459
REMARK  7 active torsions:
REMARK  status: ('A' for Active; 'I' for Inactive)
REMARK    1  A    between atoms: C_1  and  C_7
REMARK    2  A    between atoms: C_1  and  N_13
REMARK    3  A    between atoms: C_1  and  C_27
REMARK    4  A    between atoms: C_4  and  C_9
REMARK    5  A    between atoms: C_9  and  O_10
REMARK    6  A    between atoms: C_14  and  C_18
REMARK    7  A    between atoms: C_27  and  C_28
REMARK                            x       y       z     vdW  Elec       q    Type
REMARK                         _______ _______ _______ _____ _____    ______ ____
ROOT
ATOM      1  C   UNL     1      33.004  -8.587 -23.227  0.00  0.00    +0.153 C 
ENDROOT
BRANCH   1   7
ATOM      2  O   UNL     1      35.357  -8.259 -22.965  0.00  0.00    -0.273 OA
ATOM      3  N   UNL     1      34.219  -6.838 -24.364  0.00  0.00    -0.277 N 
ATOM      4  C   UNL     1      34.192  -5.466 -25.882  0.00  0.00    +0.138 C 
ATOM      5  C   UNL     1      35.221  -5.899 -24.831  0.00  0.00    +0.106 C 
ATOM      6  C   UNL     1      33.123  -6.233 -25.094  0.00  0.00    +0.106 C 
ATOM      7  C   UNL     1      34.311  -7.889 -23.495  0.00  0.00    +0.244 C 
BRANCH   4   9
ATOM      8  O   UNL     1      33.113  -3.262 -25.445  0.00  0.00    -0.250 OA
ATOM      9  C   UNL     1      33.966  -3.928 -26.029  0.00  0.00    +0.317 C 
BRANCH   9  10
ATOM     10  O   UNL     1      34.846  -3.362 -26.900  0.00  0.00    -0.480 OA
ATOM     11  H   UNL     1      34.546  -3.042 -27.728  0.00  0.00    +0.295 HD
ENDBRANCH   9  10
ENDBRANCH   4   9
ENDBRANCH   1   7
BRANCH   1  13
ATOM     12  O   UNL     1      32.578 -10.903 -24.778  0.00  0.00    -0.269 OA
ATOM     13  N   UNL     1      33.394  -9.932 -22.864  0.00  0.00    -0.294 N 
ATOM     14  C   UNL     1      33.157 -11.060 -23.677  0.00  0.00    +0.260 C 
ATOM     15  H   UNL     1      33.848 -10.067 -22.001  0.00  0.00    +0.150 HD
BRANCH  14  18
ATOM     16 CL   UNL     1      35.864 -18.068 -22.141  0.00  0.00    -0.082 Cl
ATOM     17  N   UNL     1      33.662 -12.664 -21.870  0.00  0.00    -0.309 N 
ATOM     18  C   UNL     1      33.627 -12.322 -23.196  0.00  0.00    +0.102 C 
ATOM     19  C   UNL     1      34.113 -13.385 -23.921  0.00  0.00    +0.020 C 
ATOM     20  C   UNL     1      34.457 -14.415 -23.001  0.00  0.00    +0.016 C 
ATOM     21  C   UNL     1      34.164 -13.937 -21.723  0.00  0.00    +0.048 C 
ATOM     22  C   UNL     1      34.990 -15.712 -23.135  0.00  0.00    +0.013 C 
ATOM     23  C   UNL     1      34.380 -14.694 -20.565  0.00  0.00    +0.015 C 
ATOM     24  C   UNL     1      35.212 -16.481 -21.986  0.00  0.00    +0.058 C 
ATOM     25  C   UNL     1      34.910 -15.978 -20.722  0.00  0.00    +0.013 C 
ATOM     26  H   UNL     1      33.370 -12.083 -21.130  0.00  0.00    +0.152 HD
ENDBRANCH  14  18
ENDBRANCH   1  13
BRANCH   1  27
ATOM     27  C   UNL     1      32.229  -7.875 -22.121  0.00  0.00    +0.055 C 
BRANCH  27  28
ATOM     28  C   UNL     1      31.953  -8.771 -20.937  0.00  0.00    -0.020 C 
ATOM     29  C   UNL     1      31.115  -9.863 -21.091  0.00  0.00    -0.004 C 
ATOM     30  C   UNL     1      32.544  -8.483 -19.717  0.00  0.00    -0.004 C 
ATOM     31  C   UNL     1      30.860 -10.691 -19.998  0.00  0.00    -0.000 C 
ATOM     32  C   UNL     1      32.290  -9.311 -18.622  0.00  0.00    -0.000 C 
ATOM     33  C   UNL     1      31.448 -10.414 -18.764  0.00  0.00    -0.000 C 
ENDBRANCH  27  28
ENDBRANCH   1  27
TORSDOF 7
ENDMDL
