MODEL 1
REMARK VINA RESULT:     -11.5      0.000      0.000
REMARK  Name = 18376177
REMARK  11 active torsions:
REMARK  status: ('A' for Active; 'I' for Inactive)
REMARK    1  A    between atoms: N_1  and  S_2
REMARK    2  A    between atoms: N_1  and  C_11
REMARK    3  A    between atoms: N_1  and  C_23
REMARK    4  A    between atoms: S_2  and  C_6
REMARK    5  A    between atoms: C_11  and  C_12
REMARK    6  A    between atoms: C_15  and  N_18
REMARK    7  A    between atoms: C_23  and  C_24
REMARK    8  A    between atoms: C_27  and  O_30
REMARK    9  A    between atoms: O_30  and  C_31
REMARK   10  A    between atoms: C_31  and  C_33
REMARK   11  A    between atoms: C_33  and  O_34
REMARK                            x       y       z     vdW  Elec       q    Type
REMARK                         _______ _______ _______ _____ _____    ______ ____
ROOT
ATOM      1  N   UNL     1      33.240 -23.065 -15.231  0.00  0.00    -0.147 NA
ENDROOT
BRANCH   1   2
ATOM      2  S   UNL     1      32.079 -23.814 -14.200  0.00  0.00    +0.065 S 
ATOM      3  O   UNL     1      31.891 -23.002 -13.012  0.00  0.00    -0.153 OA
ATOM      4  O   UNL     1      32.398 -25.223 -14.058  0.00  0.00    -0.153 OA
BRANCH   2   6
ATOM      5  N   UNL     1      29.162 -22.412 -16.612  0.00  0.00    -0.241 NA
ATOM      6  C   UNL     1      30.590 -23.707 -15.152  0.00  0.00    +0.141 C 
ATOM      7  C   UNL     1      29.696 -24.770 -15.207  0.00  0.00    +0.023 C 
ATOM      8  C   UNL     1      30.279 -22.560 -15.867  0.00  0.00    +0.119 C 
ATOM      9  C   UNL     1      28.535 -24.656 -15.963  0.00  0.00    +0.022 C 
ATOM     10  C   UNL     1      28.316 -23.467 -16.642  0.00  0.00    +0.099 C 
ENDBRANCH   2   6
ENDBRANCH   1   2
BRANCH   1  11
ATOM     11  C   UNL     1      33.538 -23.717 -16.531  0.00  0.00    +0.122 C 
BRANCH  11  12
ATOM     12  C   UNL     1      33.988 -22.733 -17.573  0.00  0.00    -0.004 C 
ATOM     13  C   UNL     1      33.047 -22.081 -18.369  0.00  0.00    -0.002 C 
ATOM     14  C   UNL     1      35.347 -22.470 -17.744  0.00  0.00    -0.002 C 
ATOM     15  C   UNL     1      34.824 -20.906 -19.509  0.00  0.00    +0.074 C 
ATOM     16  C   UNL     1      33.465 -21.168 -19.338  0.00  0.00    +0.016 C 
ATOM     17  C   UNL     1      35.765 -21.557 -18.712  0.00  0.00    +0.016 C 
BRANCH  15  18
ATOM     18  N   UNL     1      35.237 -20.000 -20.468  0.00  0.00    -0.189 N 
ATOM     19  N   UNL     1      36.351 -19.271 -20.280  0.00  0.00    -0.172 NA
ATOM     20  C   UNL     1      34.608 -19.750 -21.652  0.00  0.00    +0.091 C 
ATOM     21  C   UNL     1      35.361 -18.791 -22.282  0.00  0.00    +0.040 C 
ATOM     22  C   UNL     1      36.421 -18.534 -21.393  0.00  0.00    +0.120 C 
ENDBRANCH  15  18
ENDBRANCH  11  12
ENDBRANCH   1  11
BRANCH   1  23
ATOM     23  C   UNL     1      34.460 -22.497 -14.602  0.00  0.00    +0.123 C 
BRANCH  23  24
ATOM     24  C   UNL     1      35.277 -23.543 -13.898  0.00  0.00    -0.001 C 
ATOM     25  C   UNL     1      36.224 -24.283 -14.606  0.00  0.00    +0.034 C 
ATOM     26  C   UNL     1      35.089 -23.774 -12.535  0.00  0.00    -0.003 C 
ATOM     27  C   UNL     1      36.982 -25.254 -13.952  0.00  0.00    +0.139 C 
ATOM     28  C   UNL     1      35.847 -24.744 -11.881  0.00  0.00    +0.003 C 
ATOM     29  C   UNL     1      36.794 -25.485 -12.589  0.00  0.00    +0.037 C 
BRANCH  27  30
ATOM     30  O   UNL     1      37.903 -25.978 -14.643  0.00  0.00    -0.464 OA
BRANCH  30  31
ATOM     31  C   UNL     1      39.086 -26.364 -13.943  0.00  0.00    +0.314 C 
BRANCH  31  33
ATOM     32  O   UNL     1      40.902 -24.751 -13.912  0.00  0.00    -0.246 OA
ATOM     33  C   UNL     1      40.269 -25.619 -14.494  0.00  0.00    +0.359 C 
BRANCH  33  34
ATOM     34  O   UNL     1      40.549 -26.047 -15.750  0.00  0.00    -0.478 OA
ATOM     35  H   UNL     1      41.352 -25.797 -16.164  0.00  0.00    +0.295 HD
ENDBRANCH  33  34
ENDBRANCH  31  33
ENDBRANCH  30  31
ENDBRANCH  27  30
ENDBRANCH  23  24
ENDBRANCH   1  23
TORSDOF 11
ENDMDL
MODEL 2
REMARK VINA RESULT:     -11.1      2.486      6.841
REMARK  Name = 18376177
REMARK  11 active torsions:
REMARK  status: ('A' for Active; 'I' for Inactive)
REMARK    1  A    between atoms: N_1  and  S_2
REMARK    2  A    between atoms: N_1  and  C_11
REMARK    3  A    between atoms: N_1  and  C_23
REMARK    4  A    between atoms: S_2  and  C_6
REMARK    5  A    between atoms: C_11  and  C_12
REMARK    6  A    between atoms: C_15  and  N_18
REMARK    7  A    between atoms: C_23  and  C_24
REMARK    8  A    between atoms: C_27  and  O_30
REMARK    9  A    between atoms: O_30  and  C_31
REMARK   10  A    between atoms: C_31  and  C_33
REMARK   11  A    between atoms: C_33  and  O_34
REMARK                            x       y       z     vdW  Elec       q    Type
REMARK                         _______ _______ _______ _____ _____    ______ ____
ROOT
ATOM      1  N   UNL     1      34.420 -23.504 -15.274  0.00  0.00    -0.147 NA
ENDROOT
BRANCH   1   2
ATOM      2  S   UNL     1      36.065 -23.356 -14.780  0.00  0.00    +0.065 S 
ATOM      3  O   UNL     1      36.494 -21.978 -14.934  0.00  0.00    -0.153 OA
ATOM      4  O   UNL     1      36.848 -24.418 -15.384  0.00  0.00    -0.153 OA
BRANCH   2   6
ATOM      5  N   UNL     1      34.920 -24.870 -11.218  0.00  0.00    -0.241 NA
ATOM      6  C   UNL     1      35.979 -23.690 -13.043  0.00  0.00    +0.141 C 
ATOM      7  C   UNL     1      36.851 -23.076 -12.152  0.00  0.00    +0.023 C 
ATOM      8  C   UNL     1      35.040 -24.571 -12.530  0.00  0.00    +0.119 C 
ATOM      9  C   UNL     1      36.760 -23.358 -10.793  0.00  0.00    +0.022 C 
ATOM     10  C   UNL     1      35.786 -24.254 -10.381  0.00  0.00    +0.099 C 
ENDBRANCH   2   6
ENDBRANCH   1   2
BRANCH   1  11
ATOM     11  C   UNL     1      34.150 -23.944 -16.666  0.00  0.00    +0.122 C 
BRANCH  11  12
ATOM     12  C   UNL     1      34.441 -22.865 -17.671  0.00  0.00    -0.004 C 
ATOM     13  C   UNL     1      33.407 -22.328 -18.437  0.00  0.00    -0.002 C 
ATOM     14  C   UNL     1      35.746 -22.401 -17.839  0.00  0.00    -0.002 C 
ATOM     15  C   UNL     1      34.983 -20.865 -19.539  0.00  0.00    +0.074 C 
ATOM     16  C   UNL     1      33.678 -21.328 -19.371  0.00  0.00    +0.016 C 
ATOM     17  C   UNL     1      36.017 -21.401 -18.772  0.00  0.00    +0.016 C 
BRANCH  15  18
ATOM     18  N   UNL     1      35.250 -19.872 -20.464  0.00  0.00    -0.189 N 
ATOM     19  N   UNL     1      36.274 -19.022 -20.272  0.00  0.00    -0.172 NA
ATOM     20  C   UNL     1      34.555 -19.648 -21.615  0.00  0.00    +0.091 C 
ATOM     21  C   UNL     1      35.165 -18.576 -22.219  0.00  0.00    +0.040 C 
ATOM     22  C   UNL     1      36.215 -18.232 -21.349  0.00  0.00    +0.120 C 
ENDBRANCH  15  18
ENDBRANCH  11  12
ENDBRANCH   1  11
BRANCH   1  23
ATOM     23  C   UNL     1      33.465 -22.457 -14.828  0.00  0.00    +0.123 C 
BRANCH  23  24
ATOM     24  C   UNL     1      32.044 -22.945 -14.826  0.00  0.00    -0.001 C 
ATOM     25  C   UNL     1      31.127 -22.430 -15.742  0.00  0.00    +0.034 C 
ATOM     26  C   UNL     1      31.642 -23.916 -13.907  0.00  0.00    -0.003 C 
ATOM     27  C   UNL     1      29.809 -22.883 -15.739  0.00  0.00    +0.139 C 
ATOM     28  C   UNL     1      30.323 -24.369 -13.905  0.00  0.00    +0.003 C 
ATOM     29  C   UNL     1      29.406 -23.853 -14.822  0.00  0.00    +0.037 C 
BRANCH  27  30
ATOM     30  O   UNL     1      28.914 -22.378 -16.631  0.00  0.00    -0.464 OA
BRANCH  30  31
ATOM     31  C   UNL     1      27.652 -23.039 -16.732  0.00  0.00    +0.314 C 
BRANCH  31  33
ATOM     32  O   UNL     1      25.688 -22.204 -15.571  0.00  0.00    -0.246 OA
ATOM     33  C   UNL     1      26.544 -22.069 -16.433  0.00  0.00    +0.359 C 
BRANCH  33  34
ATOM     34  O   UNL     1      26.622 -20.999 -17.263  0.00  0.00    -0.478 OA
ATOM     35  H   UNL     1      25.925 -20.373 -17.289  0.00  0.00    +0.295 HD
ENDBRANCH  33  34
ENDBRANCH  31  33
ENDBRANCH  30  31
ENDBRANCH  27  30
ENDBRANCH  23  24
ENDBRANCH   1  23
TORSDOF 11
ENDMDL
MODEL 3
REMARK VINA RESULT:     -10.7      2.662      7.123
REMARK  Name = 18376177
REMARK  11 active torsions:
REMARK  status: ('A' for Active; 'I' for Inactive)
REMARK    1  A    between atoms: N_1  and  S_2
REMARK    2  A    between atoms: N_1  and  C_11
REMARK    3  A    between atoms: N_1  and  C_23
REMARK    4  A    between atoms: S_2  and  C_6
REMARK    5  A    between atoms: C_11  and  C_12
REMARK    6  A    between atoms: C_15  and  N_18
REMARK    7  A    between atoms: C_23  and  C_24
REMARK    8  A    between atoms: C_27  and  O_30
REMARK    9  A    between atoms: O_30  and  C_31
REMARK   10  A    between atoms: C_31  and  C_33
REMARK   11  A    between atoms: C_33  and  O_34
REMARK                            x       y       z     vdW  Elec       q    Type
REMARK                         _______ _______ _______ _____ _____    ______ ____
ROOT
ATOM      1  N   UNL     1      34.230 -24.275 -13.693  0.00  0.00    -0.147 NA
ENDROOT
BRANCH   1   2
ATOM      2  S   UNL     1      35.376 -24.195 -12.407  0.00  0.00    +0.065 S 
ATOM      3  O   UNL     1      34.923 -25.023 -11.304  0.00  0.00    -0.153 OA
ATOM      4  O   UNL     1      35.729 -22.809 -12.160  0.00  0.00    -0.153 OA
BRANCH   2   6
ATOM      5  N   UNL     1      38.012 -27.023 -13.568  0.00  0.00    -0.241 NA
ATOM      6  C   UNL     1      36.799 -24.983 -13.107  0.00  0.00    +0.141 C 
ATOM      7  C   UNL     1      37.797 -24.240 -13.726  0.00  0.00    +0.023 C 
ATOM      8  C   UNL     1      36.953 -26.359 -13.055  0.00  0.00    +0.119 C 
ATOM      9  C   UNL     1      38.903 -24.886 -14.267  0.00  0.00    +0.022 C 
ATOM     10  C   UNL     1      38.962 -26.267 -14.163  0.00  0.00    +0.099 C 
ENDBRANCH   2   6
ENDBRANCH   1   2
BRANCH   1  11
ATOM     11  C   UNL     1      34.669 -24.880 -14.976  0.00  0.00    +0.122 C 
BRANCH  11  12
ATOM     12  C   UNL     1      34.746 -23.869 -16.086  0.00  0.00    -0.004 C 
ATOM     13  C   UNL     1      33.796 -23.881 -17.106  0.00  0.00    -0.002 C 
ATOM     14  C   UNL     1      35.768 -22.919 -16.095  0.00  0.00    -0.002 C 
ATOM     15  C   UNL     1      34.891 -21.994 -18.147  0.00  0.00    +0.074 C 
ATOM     16  C   UNL     1      33.868 -22.943 -18.137  0.00  0.00    +0.016 C 
ATOM     17  C   UNL     1      35.840 -21.982 -17.125  0.00  0.00    +0.016 C 
BRANCH  15  18
ATOM     18  N   UNL     1      34.961 -21.065 -19.168  0.00  0.00    -0.189 N 
ATOM     19  N   UNL     1      36.142 -20.530 -19.521  0.00  0.00    -0.172 NA
ATOM     20  C   UNL     1      33.906 -20.605 -19.900  0.00  0.00    +0.091 C 
ATOM     21  C   UNL     1      34.434 -19.707 -20.795  0.00  0.00    +0.040 C 
ATOM     22  C   UNL     1      35.813 -19.700 -20.516  0.00  0.00    +0.120 C 
ENDBRANCH  15  18
ENDBRANCH  11  12
ENDBRANCH   1  11
BRANCH   1  23
ATOM     23  C   UNL     1      33.345 -23.102 -13.906  0.00  0.00    +0.123 C 
BRANCH  23  24
ATOM     24  C   UNL     1      31.930 -23.505 -14.213  0.00  0.00    -0.001 C 
ATOM     25  C   UNL     1      31.195 -22.803 -15.169  0.00  0.00    +0.034 C 
ATOM     26  C   UNL     1      31.350 -24.582 -13.542  0.00  0.00    -0.003 C 
ATOM     27  C   UNL     1      29.883 -23.178 -15.453  0.00  0.00    +0.139 C 
ATOM     28  C   UNL     1      30.038 -24.957 -13.826  0.00  0.00    +0.003 C 
ATOM     29  C   UNL     1      29.303 -24.255 -14.783  0.00  0.00    +0.037 C 
BRANCH  27  30
ATOM     30  O   UNL     1      29.165 -22.491 -16.384  0.00  0.00    -0.464 OA
BRANCH  30  31
ATOM     31  C   UNL     1      27.905 -23.040 -16.768  0.00  0.00    +0.314 C 
BRANCH  31  33
ATOM     32  O   UNL     1      26.566 -21.078 -17.279  0.00  0.00    -0.246 OA
ATOM     33  C   UNL     1      26.819 -22.023 -16.548  0.00  0.00    +0.359 C 
BRANCH  33  34
ATOM     34  O   UNL     1      26.143 -22.301 -15.405  0.00  0.00    -0.478 OA
ATOM     35  H   UNL     1      26.261 -23.127 -14.979  0.00  0.00    +0.295 HD
ENDBRANCH  33  34
ENDBRANCH  31  33
ENDBRANCH  30  31
ENDBRANCH  27  30
ENDBRANCH  23  24
ENDBRANCH   1  23
TORSDOF 11
ENDMDL
MODEL 4
REMARK VINA RESULT:     -10.7      2.596      6.973
REMARK  Name = 18376177
REMARK  11 active torsions:
REMARK  status: ('A' for Active; 'I' for Inactive)
REMARK    1  A    between atoms: N_1  and  S_2
REMARK    2  A    between atoms: N_1  and  C_11
REMARK    3  A    between atoms: N_1  and  C_23
REMARK    4  A    between atoms: S_2  and  C_6
REMARK    5  A    between atoms: C_11  and  C_12
REMARK    6  A    between atoms: C_15  and  N_18
REMARK    7  A    between atoms: C_23  and  C_24
REMARK    8  A    between atoms: C_27  and  O_30
REMARK    9  A    between atoms: O_30  and  C_31
REMARK   10  A    between atoms: C_31  and  C_33
REMARK   11  A    between atoms: C_33  and  O_34
REMARK                            x       y       z     vdW  Elec       q    Type
REMARK                         _______ _______ _______ _____ _____    ______ ____
ROOT
ATOM      1  N   UNL     1      33.861 -23.208 -16.342  0.00  0.00    -0.147 NA
ENDROOT
BRANCH   1   2
ATOM      2  S   UNL     1      35.121 -22.688 -15.286  0.00  0.00    +0.065 S 
ATOM      3  O   UNL     1      34.552 -22.303 -14.007  0.00  0.00    -0.153 OA
ATOM      4  O   UNL     1      35.989 -21.762 -15.990  0.00  0.00    -0.153 OA
BRANCH   2   6
ATOM      5  N   UNL     1      36.086 -26.593 -14.939  0.00  0.00    -0.241 NA
ATOM      6  C   UNL     1      36.044 -24.177 -15.024  0.00  0.00    +0.141 C 
ATOM      7  C   UNL     1      37.397 -24.134 -14.710  0.00  0.00    +0.023 C 
ATOM      8  C   UNL     1      35.440 -25.420 -15.126  0.00  0.00    +0.119 C 
ATOM      9  C   UNL     1      38.097 -25.319 -14.510  0.00  0.00    +0.022 C 
ATOM     10  C   UNL     1      37.401 -26.512 -14.635  0.00  0.00    +0.099 C 
ENDBRANCH   2   6
ENDBRANCH   1   2
BRANCH   1  11
ATOM     11  C   UNL     1      34.233 -23.610 -17.722  0.00  0.00    +0.122 C 
BRANCH  11  12
ATOM     12  C   UNL     1      34.449 -22.425 -18.621  0.00  0.00    -0.004 C 
ATOM     13  C   UNL     1      35.744 -22.012 -18.931  0.00  0.00    -0.002 C 
ATOM     14  C   UNL     1      33.354 -21.738 -19.145  0.00  0.00    -0.002 C 
ATOM     15  C   UNL     1      34.850 -20.223 -20.287  0.00  0.00    +0.074 C 
ATOM     16  C   UNL     1      35.945 -20.911 -19.764  0.00  0.00    +0.016 C 
ATOM     17  C   UNL     1      33.555 -20.637 -19.978  0.00  0.00    +0.016 C 
BRANCH  15  18
ATOM     18  N   UNL     1      35.050 -19.134 -21.114  0.00  0.00    -0.189 N 
ATOM     19  N   UNL     1      35.356 -17.932 -20.595  0.00  0.00    -0.172 NA
ATOM     20  C   UNL     1      34.970 -19.142 -22.476  0.00  0.00    +0.091 C 
ATOM     21  C   UNL     1      35.242 -17.857 -22.875  0.00  0.00    +0.040 C 
ATOM     22  C   UNL     1      35.471 -17.156 -21.677  0.00  0.00    +0.120 C 
ENDBRANCH  15  18
ENDBRANCH  11  12
ENDBRANCH   1  11
BRANCH   1  23
ATOM     23  C   UNL     1      32.576 -22.463 -16.307  0.00  0.00    +0.123 C 
BRANCH  23  24
ATOM     24  C   UNL     1      31.483 -23.243 -15.634  0.00  0.00    -0.001 C 
ATOM     25  C   UNL     1      30.154 -23.054 -16.014  0.00  0.00    +0.034 C 
ATOM     26  C   UNL     1      31.797 -24.158 -14.628  0.00  0.00    -0.003 C 
ATOM     27  C   UNL     1      29.140 -23.778 -15.388  0.00  0.00    +0.139 C 
ATOM     28  C   UNL     1      30.782 -24.882 -14.003  0.00  0.00    +0.003 C 
ATOM     29  C   UNL     1      29.453 -24.693 -14.383  0.00  0.00    +0.037 C 
BRANCH  27  30
ATOM     30  O   UNL     1      27.843 -23.591 -15.757  0.00  0.00    -0.464 OA
BRANCH  30  31
ATOM     31  C   UNL     1      27.605 -22.790 -16.914  0.00  0.00    +0.314 C 
BRANCH  31  33
ATOM     32  O   UNL     1      26.269 -20.792 -17.268  0.00  0.00    -0.246 OA
ATOM     33  C   UNL     1      26.498 -21.812 -16.636  0.00  0.00    +0.359 C 
BRANCH  33  34
ATOM     34  O   UNL     1      25.770 -22.221 -15.567  0.00  0.00    -0.478 OA
ATOM     35  H   UNL     1      26.027 -22.984 -15.088  0.00  0.00    +0.295 HD
ENDBRANCH  33  34
ENDBRANCH  31  33
ENDBRANCH  30  31
ENDBRANCH  27  30
ENDBRANCH  23  24
ENDBRANCH   1  23
TORSDOF 11
ENDMDL
MODEL 5
REMARK VINA RESULT:     -10.0      1.731      2.692
REMARK  Name = 18376177
REMARK  11 active torsions:
REMARK  status: ('A' for Active; 'I' for Inactive)
REMARK    1  A    between atoms: N_1  and  S_2
REMARK    2  A    between atoms: N_1  and  C_11
REMARK    3  A    between atoms: N_1  and  C_23
REMARK    4  A    between atoms: S_2  and  C_6
REMARK    5  A    between atoms: C_11  and  C_12
REMARK    6  A    between atoms: C_15  and  N_18
REMARK    7  A    between atoms: C_23  and  C_24
REMARK    8  A    between atoms: C_27  and  O_30
REMARK    9  A    between atoms: O_30  and  C_31
REMARK   10  A    between atoms: C_31  and  C_33
REMARK   11  A    between atoms: C_33  and  O_34
REMARK                            x       y       z     vdW  Elec       q    Type
REMARK                         _______ _______ _______ _____ _____    ______ ____
ROOT
ATOM      1  N   UNL     1      33.411 -22.842 -15.604  0.00  0.00    -0.147 NA
ENDROOT
BRANCH   1   2
ATOM      2  S   UNL     1      32.522 -23.773 -14.457  0.00  0.00    +0.065 S 
ATOM      3  O   UNL     1      32.446 -23.049 -13.201  0.00  0.00    -0.153 OA
ATOM      4  O   UNL     1      33.007 -25.141 -14.465  0.00  0.00    -0.153 OA
BRANCH   2   6
ATOM      5  N   UNL     1      28.828 -24.984 -15.546  0.00  0.00    -0.241 NA
ATOM      6  C   UNL     1      30.893 -23.789 -15.153  0.00  0.00    +0.141 C 
ATOM      7  C   UNL     1      30.392 -22.684 -15.830  0.00  0.00    +0.023 C 
ATOM      8  C   UNL     1      30.078 -24.905 -15.039  0.00  0.00    +0.119 C 
ATOM      9  C   UNL     1      29.109 -22.726 -16.365  0.00  0.00    +0.022 C 
ATOM     10  C   UNL     1      28.374 -23.889 -16.197  0.00  0.00    +0.099 C 
ENDBRANCH   2   6
ENDBRANCH   1   2
BRANCH   1  11
ATOM     11  C   UNL     1      33.758 -23.482 -16.898  0.00  0.00    +0.122 C 
BRANCH  11  12
ATOM     12  C   UNL     1      34.106 -22.474 -17.956  0.00  0.00    -0.004 C 
ATOM     13  C   UNL     1      33.093 -21.814 -18.651  0.00  0.00    -0.002 C 
ATOM     14  C   UNL     1      35.443 -22.198 -18.245  0.00  0.00    -0.002 C 
ATOM     15  C   UNL     1      34.753 -20.604 -19.924  0.00  0.00    +0.074 C 
ATOM     16  C   UNL     1      33.416 -20.879 -19.635  0.00  0.00    +0.016 C 
ATOM     17  C   UNL     1      35.766 -21.263 -19.228  0.00  0.00    +0.016 C 
BRANCH  15  18
ATOM     18  N   UNL     1      35.072 -19.676 -20.898  0.00  0.00    -0.189 N 
ATOM     19  N   UNL     1      36.096 -18.824 -20.716  0.00  0.00    -0.172 NA
ATOM     20  C   UNL     1      34.432 -19.522 -22.092  0.00  0.00    +0.091 C 
ATOM     21  C   UNL     1      35.080 -18.497 -22.736  0.00  0.00    +0.040 C 
ATOM     22  C   UNL     1      36.095 -18.105 -21.843  0.00  0.00    +0.120 C 
ENDBRANCH  15  18
ENDBRANCH  11  12
ENDBRANCH   1  11
BRANCH   1  23
ATOM     23  C   UNL     1      34.513 -21.985 -15.095  0.00  0.00    +0.123 C 
BRANCH  23  24
ATOM     24  C   UNL     1      35.718 -22.787 -14.693  0.00  0.00    -0.001 C 
ATOM     25  C   UNL     1      35.671 -23.599 -13.560  0.00  0.00    +0.034 C 
ATOM     26  C   UNL     1      36.886 -22.720 -15.454  0.00  0.00    -0.003 C 
ATOM     27  C   UNL     1      36.790 -24.343 -13.187  0.00  0.00    +0.139 C 
ATOM     28  C   UNL     1      38.005 -23.464 -15.081  0.00  0.00    +0.003 C 
ATOM     29  C   UNL     1      37.957 -24.276 -13.948  0.00  0.00    +0.037 C 
BRANCH  27  30
ATOM     30  O   UNL     1      36.744 -25.133 -12.080  0.00  0.00    -0.464 OA
BRANCH  30  31
ATOM     31  C   UNL     1      35.579 -25.038 -11.261  0.00  0.00    +0.314 C 
BRANCH  31  33
ATOM     32  O   UNL     1      35.430 -24.749  -8.854  0.00  0.00    -0.246 OA
ATOM     33  C   UNL     1      35.943 -24.457  -9.924  0.00  0.00    +0.359 C 
BRANCH  33  34
ATOM     34  O   UNL     1      36.938 -23.546 -10.064  0.00  0.00    -0.478 OA
ATOM     35  H   UNL     1      37.588 -23.660 -10.729  0.00  0.00    +0.295 HD
ENDBRANCH  33  34
ENDBRANCH  31  33
ENDBRANCH  30  31
ENDBRANCH  27  30
ENDBRANCH  23  24
ENDBRANCH   1  23
TORSDOF 11
ENDMDL
MODEL 6
REMARK VINA RESULT:     -10.0      3.395      7.627
REMARK  Name = 18376177
REMARK  11 active torsions:
REMARK  status: ('A' for Active; 'I' for Inactive)
REMARK    1  A    between atoms: N_1  and  S_2
REMARK    2  A    between atoms: N_1  and  C_11
REMARK    3  A    between atoms: N_1  and  C_23
REMARK    4  A    between atoms: S_2  and  C_6
REMARK    5  A    between atoms: C_11  and  C_12
REMARK    6  A    between atoms: C_15  and  N_18
REMARK    7  A    between atoms: C_23  and  C_24
REMARK    8  A    between atoms: C_27  and  O_30
REMARK    9  A    between atoms: O_30  and  C_31
REMARK   10  A    between atoms: C_31  and  C_33
REMARK   11  A    between atoms: C_33  and  O_34
REMARK                            x       y       z     vdW  Elec       q    Type
REMARK                         _______ _______ _______ _____ _____    ______ ____
ROOT
ATOM      1  N   UNL     1      34.876 -24.403 -12.939  0.00  0.00    -0.147 NA
ENDROOT
BRANCH   1   2
ATOM      2  S   UNL     1      36.267 -24.321 -11.924  0.00  0.00    +0.065 S 
ATOM      3  O   UNL     1      36.030 -25.089 -10.715  0.00  0.00    -0.153 OA
ATOM      4  O   UNL     1      36.708 -22.943 -11.819  0.00  0.00    -0.153 OA
BRANCH   2   6
ATOM      5  N   UNL     1      38.157 -27.217 -14.008  0.00  0.00    -0.241 NA
ATOM      6  C   UNL     1      37.486 -25.192 -12.869  0.00  0.00    +0.141 C 
ATOM      7  C   UNL     1      38.689 -24.589 -13.216  0.00  0.00    +0.023 C 
ATOM      8  C   UNL     1      37.271 -26.496 -13.286  0.00  0.00    +0.119 C 
ATOM      9  C   UNL     1      39.627 -25.297 -13.959  0.00  0.00    +0.022 C 
ATOM     10  C   UNL     1      39.315 -26.597 -14.327  0.00  0.00    +0.099 C 
ENDBRANCH   2   6
ENDBRANCH   1   2
BRANCH   1  11
ATOM     11  C   UNL     1      33.590 -24.815 -12.321  0.00  0.00    +0.122 C 
BRANCH  11  12
ATOM     12  C   UNL     1      32.403 -24.396 -13.143  0.00  0.00    -0.004 C 
ATOM     13  C   UNL     1      32.218 -23.053 -13.466  0.00  0.00    -0.002 C 
ATOM     14  C   UNL     1      31.486 -25.352 -13.583  0.00  0.00    -0.002 C 
ATOM     15  C   UNL     1      30.199 -23.618 -14.666  0.00  0.00    +0.074 C 
ATOM     16  C   UNL     1      31.116 -22.663 -14.228  0.00  0.00    +0.016 C 
ATOM     17  C   UNL     1      30.385 -24.963 -14.344  0.00  0.00    +0.016 C 
BRANCH  15  18
ATOM     18  N   UNL     1      29.108 -23.233 -15.423  0.00  0.00    -0.189 N 
ATOM     19  N   UNL     1      28.338 -22.202 -15.031  0.00  0.00    -0.172 NA
ATOM     20  C   UNL     1      28.703 -23.810 -16.590  0.00  0.00    +0.091 C 
ATOM     21  C   UNL     1      27.591 -23.111 -16.989  0.00  0.00    +0.040 C 
ATOM     22  C   UNL     1      27.413 -22.133 -15.993  0.00  0.00    +0.120 C 
ENDBRANCH  15  18
ENDBRANCH  11  12
ENDBRANCH   1  11
BRANCH   1  23
ATOM     23  C   UNL     1      35.044 -24.970 -14.301  0.00  0.00    +0.123 C 
BRANCH  23  24
ATOM     24  C   UNL     1      35.261 -23.905 -15.338  0.00  0.00    -0.001 C 
ATOM     25  C   UNL     1      34.257 -23.613 -16.261  0.00  0.00    +0.034 C 
ATOM     26  C   UNL     1      36.468 -23.206 -15.378  0.00  0.00    -0.003 C 
ATOM     27  C   UNL     1      34.459 -22.625 -17.223  0.00  0.00    +0.139 C 
ATOM     28  C   UNL     1      36.670 -22.217 -16.340  0.00  0.00    +0.003 C 
ATOM     29  C   UNL     1      35.665 -21.926 -17.263  0.00  0.00    +0.037 C 
BRANCH  27  30
ATOM     30  O   UNL     1      33.480 -22.342 -18.125  0.00  0.00    -0.464 OA
BRANCH  30  31
ATOM     31  C   UNL     1      33.894 -21.928 -19.427  0.00  0.00    +0.314 C 
BRANCH  31  33
ATOM     32  O   UNL     1      32.124 -20.265 -19.434  0.00  0.00    -0.246 OA
ATOM     33  C   UNL     1      33.241 -20.621 -19.777  0.00  0.00    +0.359 C 
BRANCH  33  34
ATOM     34  O   UNL     1      34.075 -19.871 -20.541  0.00  0.00    -0.478 OA
ATOM     35  H   UNL     1      34.662 -19.263 -20.136  0.00  0.00    +0.295 HD
ENDBRANCH  33  34
ENDBRANCH  31  33
ENDBRANCH  30  31
ENDBRANCH  27  30
ENDBRANCH  23  24
ENDBRANCH   1  23
TORSDOF 11
ENDMDL
MODEL 7
REMARK VINA RESULT:      -9.9      2.412      6.447
REMARK  Name = 18376177
REMARK  11 active torsions:
REMARK  status: ('A' for Active; 'I' for Inactive)
REMARK    1  A    between atoms: N_1  and  S_2
REMARK    2  A    between atoms: N_1  and  C_11
REMARK    3  A    between atoms: N_1  and  C_23
REMARK    4  A    between atoms: S_2  and  C_6
REMARK    5  A    between atoms: C_11  and  C_12
REMARK    6  A    between atoms: C_15  and  N_18
REMARK    7  A    between atoms: C_23  and  C_24
REMARK    8  A    between atoms: C_27  and  O_30
REMARK    9  A    between atoms: O_30  and  C_31
REMARK   10  A    between atoms: C_31  and  C_33
REMARK   11  A    between atoms: C_33  and  O_34
REMARK                            x       y       z     vdW  Elec       q    Type
REMARK                         _______ _______ _______ _____ _____    ______ ____
ROOT
ATOM      1  N   UNL     1      36.095 -24.106 -15.363  0.00  0.00    -0.147 NA
ENDROOT
BRANCH   1   2
ATOM      2  S   UNL     1      37.490 -24.675 -14.526  0.00  0.00    +0.065 S 
ATOM      3  O   UNL     1      38.615 -23.802 -14.812  0.00  0.00    -0.153 OA
ATOM      4  O   UNL     1      37.627 -26.105 -14.730  0.00  0.00    -0.153 OA
BRANCH   2   6
ATOM      5  N   UNL     1      36.155 -25.335 -10.774  0.00  0.00    -0.241 NA
ATOM      6  C   UNL     1      37.051 -24.427 -12.828  0.00  0.00    +0.141 C 
ATOM      7  C   UNL     1      37.235 -23.194 -12.213  0.00  0.00    +0.023 C 
ATOM      8  C   UNL     1      36.512 -25.456 -12.072  0.00  0.00    +0.119 C 
ATOM      9  C   UNL     1      36.881 -23.030 -10.879  0.00  0.00    +0.022 C 
ATOM     10  C   UNL     1      36.349 -24.122 -10.209  0.00  0.00    +0.099 C 
ENDBRANCH   2   6
ENDBRANCH   1   2
BRANCH   1  11
ATOM     11  C   UNL     1      35.759 -22.664 -15.254  0.00  0.00    +0.122 C 
BRANCH  11  12
ATOM     12  C   UNL     1      35.936 -21.938 -16.558  0.00  0.00    -0.004 C 
ATOM     13  C   UNL     1      37.000 -21.052 -16.725  0.00  0.00    -0.002 C 
ATOM     14  C   UNL     1      35.035 -22.149 -17.602  0.00  0.00    -0.002 C 
ATOM     15  C   UNL     1      36.261 -20.588 -18.978  0.00  0.00    +0.074 C 
ATOM     16  C   UNL     1      37.163 -20.377 -17.935  0.00  0.00    +0.016 C 
ATOM     17  C   UNL     1      35.198 -21.475 -18.812  0.00  0.00    +0.016 C 
BRANCH  15  18
ATOM     18  N   UNL     1      36.424 -19.920 -20.178  0.00  0.00    -0.189 N 
ATOM     19  N   UNL     1      37.551 -19.229 -20.425  0.00  0.00    -0.172 NA
ATOM     20  C   UNL     1      35.521 -19.884 -21.199  0.00  0.00    +0.091 C 
ATOM     21  C   UNL     1      36.095 -19.116 -22.181  0.00  0.00    +0.040 C 
ATOM     22  C   UNL     1      37.342 -18.739 -21.651  0.00  0.00    +0.120 C 
ENDBRANCH  15  18
ENDBRANCH  11  12
ENDBRANCH   1  11
BRANCH   1  23
ATOM     23  C   UNL     1      34.880 -24.961 -15.346  0.00  0.00    +0.123 C 
BRANCH  23  24
ATOM     24  C   UNL     1      33.655 -24.200 -14.925  0.00  0.00    -0.001 C 
ATOM     25  C   UNL     1      32.702 -23.830 -15.874  0.00  0.00    +0.034 C 
ATOM     26  C   UNL     1      33.469 -23.864 -13.583  0.00  0.00    -0.003 C 
ATOM     27  C   UNL     1      31.565 -23.124 -15.483  0.00  0.00    +0.139 C 
ATOM     28  C   UNL     1      32.332 -23.158 -13.192  0.00  0.00    +0.003 C 
ATOM     29  C   UNL     1      31.379 -22.788 -14.142  0.00  0.00    +0.037 C 
BRANCH  27  30
ATOM     30  O   UNL     1      30.637 -22.760 -16.409  0.00  0.00    -0.464 OA
BRANCH  30  31
ATOM     31  C   UNL     1      29.290 -22.618 -15.960  0.00  0.00    +0.314 C 
BRANCH  31  33
ATOM     32  O   UNL     1      28.675 -24.889 -15.355  0.00  0.00    -0.246 OA
ATOM     33  C   UNL     1      28.566 -23.928 -16.102  0.00  0.00    +0.359 C 
BRANCH  33  34
ATOM     34  O   UNL     1      27.759 -23.901 -17.191  0.00  0.00    -0.478 OA
ATOM     35  H   UNL     1      27.352 -24.689 -17.493  0.00  0.00    +0.295 HD
ENDBRANCH  33  34
ENDBRANCH  31  33
ENDBRANCH  30  31
ENDBRANCH  27  30
ENDBRANCH  23  24
ENDBRANCH   1  23
TORSDOF 11
ENDMDL
MODEL 8
REMARK VINA RESULT:      -9.8      1.685      2.178
REMARK  Name = 18376177
REMARK  11 active torsions:
REMARK  status: ('A' for Active; 'I' for Inactive)
REMARK    1  A    between atoms: N_1  and  S_2
REMARK    2  A    between atoms: N_1  and  C_11
REMARK    3  A    between atoms: N_1  and  C_23
REMARK    4  A    between atoms: S_2  and  C_6
REMARK    5  A    between atoms: C_11  and  C_12
REMARK    6  A    between atoms: C_15  and  N_18
REMARK    7  A    between atoms: C_23  and  C_24
REMARK    8  A    between atoms: C_27  and  O_30
REMARK    9  A    between atoms: O_30  and  C_31
REMARK   10  A    between atoms: C_31  and  C_33
REMARK   11  A    between atoms: C_33  and  O_34
REMARK                            x       y       z     vdW  Elec       q    Type
REMARK                         _______ _______ _______ _____ _____    ______ ____
ROOT
ATOM      1  N   UNL     1      34.781 -22.526 -16.545  0.00  0.00    -0.147 NA
ENDROOT
BRANCH   1   2
ATOM      2  S   UNL     1      33.860 -23.975 -16.699  0.00  0.00    +0.065 S 
ATOM      3  O   UNL     1      34.408 -24.993 -15.820  0.00  0.00    -0.153 OA
ATOM      4  O   UNL     1      33.665 -24.277 -18.105  0.00  0.00    -0.153 OA
BRANCH   2   6
ATOM      5  N   UNL     1      30.181 -22.353 -16.344  0.00  0.00    -0.241 NA
ATOM      6  C   UNL     1      32.285 -23.504 -16.040  0.00  0.00    +0.141 C 
ATOM      7  C   UNL     1      31.902 -23.882 -14.758  0.00  0.00    +0.023 C 
ATOM      8  C   UNL     1      31.396 -22.746 -16.786  0.00  0.00    +0.119 C 
ATOM      9  C   UNL     1      30.660 -23.497 -14.268  0.00  0.00    +0.022 C 
ATOM     10  C   UNL     1      29.843 -22.740 -15.093  0.00  0.00    +0.099 C 
ENDBRANCH   2   6
ENDBRANCH   1   2
BRANCH   1  11
ATOM     11  C   UNL     1      35.999 -22.385 -17.384  0.00  0.00    +0.122 C 
BRANCH  11  12
ATOM     12  C   UNL     1      35.785 -21.457 -18.546  0.00  0.00    -0.004 C 
ATOM     13  C   UNL     1      34.518 -21.332 -19.114  0.00  0.00    -0.002 C 
ATOM     14  C   UNL     1      36.854 -20.721 -19.056  0.00  0.00    -0.002 C 
ATOM     15  C   UNL     1      35.390 -19.736 -20.706  0.00  0.00    +0.074 C 
ATOM     16  C   UNL     1      34.320 -20.471 -20.195  0.00  0.00    +0.016 C 
ATOM     17  C   UNL     1      36.657 -19.860 -20.136  0.00  0.00    +0.016 C 
BRANCH  15  18
ATOM     18  N   UNL     1      35.192 -18.882 -21.775  0.00  0.00    -0.189 N 
ATOM     19  N   UNL     1      34.669 -19.340 -22.925  0.00  0.00    -0.172 NA
ATOM     20  C   UNL     1      35.483 -17.549 -21.794  0.00  0.00    +0.091 C 
ATOM     21  C   UNL     1      35.125 -17.105 -23.043  0.00  0.00    +0.040 C 
ATOM     22  C   UNL     1      34.631 -18.249 -23.696  0.00  0.00    +0.120 C 
ENDBRANCH  15  18
ENDBRANCH  11  12
ENDBRANCH   1  11
BRANCH   1  23
ATOM     23  C   UNL     1      34.980 -21.973 -15.180  0.00  0.00    +0.123 C 
BRANCH  23  24
ATOM     24  C   UNL     1      35.673 -22.946 -14.268  0.00  0.00    -0.001 C 
ATOM     25  C   UNL     1      37.018 -23.255 -14.468  0.00  0.00    +0.034 C 
ATOM     26  C   UNL     1      34.970 -23.540 -13.219  0.00  0.00    -0.003 C 
ATOM     27  C   UNL     1      37.661 -24.157 -13.621  0.00  0.00    +0.139 C 
ATOM     28  C   UNL     1      35.613 -24.442 -12.371  0.00  0.00    +0.003 C 
ATOM     29  C   UNL     1      36.959 -24.750 -12.572  0.00  0.00    +0.037 C 
BRANCH  27  30
ATOM     30  O   UNL     1      38.973 -24.460 -13.819  0.00  0.00    -0.464 OA
BRANCH  30  31
ATOM     31  C   UNL     1      39.446 -25.689 -13.267  0.00  0.00    +0.314 C 
BRANCH  31  33
ATOM     32  O   UNL     1      41.450 -26.967 -13.770  0.00  0.00    -0.246 OA
ATOM     33  C   UNL     1      40.529 -26.255 -14.142  0.00  0.00    +0.359 C 
BRANCH  33  34
ATOM     34  O   UNL     1      40.344 -25.865 -15.428  0.00  0.00    -0.478 OA
ATOM     35  H   UNL     1      40.174 -26.503 -16.092  0.00  0.00    +0.295 HD
ENDBRANCH  33  34
ENDBRANCH  31  33
ENDBRANCH  30  31
ENDBRANCH  27  30
ENDBRANCH  23  24
ENDBRANCH   1  23
TORSDOF 11
ENDMDL
MODEL 9
REMARK VINA RESULT:      -9.6      1.914      2.547
REMARK  Name = 18376177
REMARK  11 active torsions:
REMARK  status: ('A' for Active; 'I' for Inactive)
REMARK    1  A    between atoms: N_1  and  S_2
REMARK    2  A    between atoms: N_1  and  C_11
REMARK    3  A    between atoms: N_1  and  C_23
REMARK    4  A    between atoms: S_2  and  C_6
REMARK    5  A    between atoms: C_11  and  C_12
REMARK    6  A    between atoms: C_15  and  N_18
REMARK    7  A    between atoms: C_23  and  C_24
REMARK    8  A    between atoms: C_27  and  O_30
REMARK    9  A    between atoms: O_30  and  C_31
REMARK   10  A    between atoms: C_31  and  C_33
REMARK   11  A    between atoms: C_33  and  O_34
REMARK                            x       y       z     vdW  Elec       q    Type
REMARK                         _______ _______ _______ _____ _____    ______ ____
ROOT
ATOM      1  N   UNL     1      33.455 -22.823 -16.304  0.00  0.00    -0.147 NA
ENDROOT
BRANCH   1   2
ATOM      2  S   UNL     1      31.784 -23.222 -16.454  0.00  0.00    +0.065 S 
ATOM      3  O   UNL     1      31.644 -24.418 -17.264  0.00  0.00    -0.153 OA
ATOM      4  O   UNL     1      31.033 -22.030 -16.804  0.00  0.00    -0.153 OA
BRANCH   2   6
ATOM      5  N   UNL     1      31.226 -23.036 -12.461  0.00  0.00    -0.241 NA
ATOM      6  C   UNL     1      31.340 -23.654 -14.795  0.00  0.00    +0.141 C 
ATOM      7  C   UNL     1      30.777 -24.891 -14.504  0.00  0.00    +0.023 C 
ATOM      8  C   UNL     1      31.542 -22.770 -13.747  0.00  0.00    +0.119 C 
ATOM      9  C   UNL     1      30.438 -25.202 -13.192  0.00  0.00    +0.022 C 
ATOM     10  C   UNL     1      30.680 -24.248 -12.215  0.00  0.00    +0.099 C 
ENDBRANCH   2   6
ENDBRANCH   1   2
BRANCH   1  11
ATOM     11  C   UNL     1      34.367 -23.227 -17.404  0.00  0.00    +0.122 C 
BRANCH  11  12
ATOM     12  C   UNL     1      34.528 -22.147 -18.437  0.00  0.00    -0.004 C 
ATOM     13  C   UNL     1      35.803 -21.712 -18.796  0.00  0.00    -0.002 C 
ATOM     14  C   UNL     1      33.403 -21.580 -19.035  0.00  0.00    -0.002 C 
ATOM     15  C   UNL     1      34.829 -20.140 -20.351  0.00  0.00    +0.074 C 
ATOM     16  C   UNL     1      35.954 -20.708 -19.753  0.00  0.00    +0.016 C 
ATOM     17  C   UNL     1      33.554 -20.577 -19.992  0.00  0.00    +0.016 C 
BRANCH  15  18
ATOM     18  N   UNL     1      34.978 -19.146 -21.301  0.00  0.00    -0.189 N 
ATOM     19  N   UNL     1      35.398 -17.921 -20.943  0.00  0.00    -0.172 NA
ATOM     20  C   UNL     1      34.737 -19.279 -22.636  0.00  0.00    +0.091 C 
ATOM     21  C   UNL     1      35.018 -18.055 -23.192  0.00  0.00    +0.040 C 
ATOM     22  C   UNL     1      35.420 -17.258 -22.104  0.00  0.00    +0.120 C 
ENDBRANCH  15  18
ENDBRANCH  11  12
ENDBRANCH   1  11
BRANCH   1  23
ATOM     23  C   UNL     1      34.089 -22.983 -14.970  0.00  0.00    +0.123 C 
BRANCH  23  24
ATOM     24  C   UNL     1      35.584 -23.103 -15.061  0.00  0.00    -0.001 C 
ATOM     25  C   UNL     1      36.217 -24.276 -14.652  0.00  0.00    +0.034 C 
ATOM     26  C   UNL     1      36.340 -22.039 -15.557  0.00  0.00    -0.003 C 
ATOM     27  C   UNL     1      37.605 -24.386 -14.736  0.00  0.00    +0.139 C 
ATOM     28  C   UNL     1      37.727 -22.149 -15.641  0.00  0.00    +0.003 C 
ATOM     29  C   UNL     1      38.360 -23.323 -15.231  0.00  0.00    +0.037 C 
BRANCH  27  30
ATOM     30  O   UNL     1      38.223 -25.530 -14.334  0.00  0.00    -0.464 OA
BRANCH  30  31
ATOM     31  C   UNL     1      39.433 -25.388 -13.590  0.00  0.00    +0.314 C 
BRANCH  31  33
ATOM     32  O   UNL     1      41.328 -26.906 -13.658  0.00  0.00    -0.246 OA
ATOM     33  C   UNL     1      40.525 -26.191 -14.239  0.00  0.00    +0.359 C 
BRANCH  33  34
ATOM     34  O   UNL     1      40.502 -26.012 -15.583  0.00  0.00    -0.478 OA
ATOM     35  H   UNL     1      41.285 -26.125 -16.085  0.00  0.00    +0.295 HD
ENDBRANCH  33  34
ENDBRANCH  31  33
ENDBRANCH  30  31
ENDBRANCH  27  30
ENDBRANCH  23  24
ENDBRANCH   1  23
TORSDOF 11
ENDMDL
