MODEL 1
REMARK VINA RESULT:     -10.6      0.000      0.000
REMARK  Name = 11234052
REMARK  6 active torsions:
REMARK  status: ('A' for Active; 'I' for Inactive)
REMARK    1  A    between atoms: C_6  and  O_11
REMARK    2  A    between atoms: C_8  and  O_17
REMARK    3  A    between atoms: O_11  and  C_12
REMARK    4  A    between atoms: C_12  and  C_13
REMARK    5  A    between atoms: C_13  and  O_15
REMARK    6  A    between atoms: O_17  and  C_22
REMARK                            x       y       z     vdW  Elec       q    Type
REMARK                         _______ _______ _______ _____ _____    ______ ____
ROOT
ATOM      1  N   UNL     1      34.048 -16.204 -24.600  0.00  0.00    -0.180 N 
ATOM      2  N   UNL     1      33.467 -15.760 -25.748  0.00  0.00    -0.151 NA
ATOM      3  N   UNL     1      33.152 -13.642 -24.627  0.00  0.00    -0.187 NA
ATOM      4  C   UNL     1      34.200 -15.431 -23.477  0.00  0.00    +0.126 C 
ATOM      5  C   UNL     1      34.821 -16.186 -22.509  0.00  0.00    +0.034 C 
ATOM      6  C   UNL     1      35.053 -17.468 -23.073  0.00  0.00    +0.153 C 
ATOM      7  C   UNL     1      34.567 -17.451 -24.364  0.00  0.00    +0.126 C 
ATOM      8  C   UNL     1      33.710 -14.100 -23.553  0.00  0.00    +0.247 C 
ATOM      9  C   UNL     1      35.199 -15.798 -21.134  0.00  0.00    +0.036 C 
ATOM     10  C   UNL     1      33.057 -14.520 -25.696  0.00  0.00    +0.220 C 
ENDROOT
BRANCH   6  11
ATOM     11  O   UNL     1      35.635 -18.531 -22.499  0.00  0.00    -0.472 OA
BRANCH  11  12
ATOM     12  C   UNL     1      34.779 -19.602 -22.088  0.00  0.00    +0.234 C 
BRANCH  12  13
ATOM     13  C   UNL     1      34.601 -19.541 -20.577  0.00  0.00    +0.154 C 
ATOM     14  C   UNL     1      33.503 -20.483 -20.107  0.00  0.00    +0.036 C 
BRANCH  13  15
ATOM     15  O   UNL     1      35.832 -19.924 -19.964  0.00  0.00    -0.381 OA
ATOM     16  H   UNL     1      35.961 -19.412 -19.152  0.00  0.00    +0.210 HD
ENDBRANCH  13  15
ENDBRANCH  12  13
ENDBRANCH  11  12
ENDBRANCH   6  11
BRANCH   8  17
ATOM     17  O   UNL     1      33.847 -13.316 -22.459  0.00  0.00    -0.433 OA
BRANCH  17  22
ATOM     18  F   UNL     1      34.652 -11.092 -23.856  0.00  0.00    -0.201 F 
ATOM     19  N   UNL     1      30.770  -8.796 -22.868  0.00  0.00    -0.316 N 
ATOM     20  C   UNL     1      32.619  -9.965 -23.306  0.00  0.00    +0.045 C 
ATOM     21  C   UNL     1      31.386 -10.008 -22.651  0.00  0.00    +0.050 C 
ATOM     22  C   UNL     1      33.039 -12.220 -22.526  0.00  0.00    +0.175 C 
ATOM     23  C   UNL     1      31.568  -7.991 -23.635  0.00  0.00    +0.026 C 
ATOM     24  C   UNL     1      33.461 -11.094 -23.241  0.00  0.00    +0.176 C 
ATOM     25  C   UNL     1      32.720  -8.687 -23.922  0.00  0.00    +0.014 C 
ATOM     26  C   UNL     1      30.951 -11.128 -21.932  0.00  0.00    +0.018 C 
ATOM     27  C   UNL     1      31.803 -12.235 -21.882  0.00  0.00    +0.041 C 
ATOM     28  C   UNL     1      31.144  -6.631 -24.017  0.00  0.00    +0.047 C 
ATOM     29  H   UNL     1      29.883  -8.546 -22.522  0.00  0.00    +0.152 HD
ENDBRANCH  17  22
ENDBRANCH   8  17
TORSDOF 6
ENDMDL
MODEL 2
REMARK VINA RESULT:     -10.6      7.513     11.722
REMARK  Name = 11234052
REMARK  6 active torsions:
REMARK  status: ('A' for Active; 'I' for Inactive)
REMARK    1  A    between atoms: C_6  and  O_11
REMARK    2  A    between atoms: C_8  and  O_17
REMARK    3  A    between atoms: O_11  and  C_12
REMARK    4  A    between atoms: C_12  and  C_13
REMARK    5  A    between atoms: C_13  and  O_15
REMARK    6  A    between atoms: O_17  and  C_22
REMARK                            x       y       z     vdW  Elec       q    Type
REMARK                         _______ _______ _______ _____ _____    ______ ____
ROOT
ATOM      1  N   UNL     1      32.217 -23.478 -14.475  0.00  0.00    -0.180 N 
ATOM      2  N   UNL     1      31.003 -23.076 -14.942  0.00  0.00    -0.151 NA
ATOM      3  N   UNL     1      32.040 -22.877 -17.116  0.00  0.00    -0.187 NA
ATOM      4  C   UNL     1      33.333 -23.592 -15.263  0.00  0.00    +0.126 C 
ATOM      5  C   UNL     1      34.378 -24.020 -14.477  0.00  0.00    +0.034 C 
ATOM      6  C   UNL     1      33.869 -24.168 -13.160  0.00  0.00    +0.153 C 
ATOM      7  C   UNL     1      32.532 -23.827 -13.188  0.00  0.00    +0.126 C 
ATOM      8  C   UNL     1      33.177 -23.263 -16.636  0.00  0.00    +0.247 C 
ATOM      9  C   UNL     1      35.778 -24.289 -14.866  0.00  0.00    +0.036 C 
ATOM     10  C   UNL     1      30.984 -22.802 -16.220  0.00  0.00    +0.220 C 
ENDROOT
BRANCH   6  11
ATOM     11  O   UNL     1      34.525 -24.564 -12.060  0.00  0.00    -0.472 OA
BRANCH  11  12
ATOM     12  C   UNL     1      35.415 -23.621 -11.454  0.00  0.00    +0.234 C 
BRANCH  12  13
ATOM     13  C   UNL     1      36.564 -24.374 -10.797  0.00  0.00    +0.154 C 
ATOM     14  C   UNL     1      37.910 -23.915 -11.334  0.00  0.00    +0.036 C 
BRANCH  13  15
ATOM     15  O   UNL     1      36.517 -24.126  -9.392  0.00  0.00    -0.381 OA
ATOM     16  H   UNL     1      37.331 -23.678  -9.115  0.00  0.00    +0.210 HD
ENDBRANCH  13  15
ENDBRANCH  12  13
ENDBRANCH  11  12
ENDBRANCH   6  11
BRANCH   8  17
ATOM     17  O   UNL     1      34.263 -23.368 -17.436  0.00  0.00    -0.433 OA
BRANCH  17  22
ATOM     18  F   UNL     1      36.664 -22.189 -18.060  0.00  0.00    -0.201 F 
ATOM     19  N   UNL     1      34.705 -19.282 -21.065  0.00  0.00    -0.316 N 
ATOM     20  C   UNL     1      35.583 -20.717 -19.599  0.00  0.00    +0.045 C 
ATOM     21  C   UNL     1      34.389 -20.303 -20.196  0.00  0.00    +0.050 C 
ATOM     22  C   UNL     1      34.312 -22.355 -18.346  0.00  0.00    +0.175 C 
ATOM     23  C   UNL     1      36.051 -19.037 -21.037  0.00  0.00    +0.026 C 
ATOM     24  C   UNL     1      35.541 -21.763 -18.655  0.00  0.00    +0.176 C 
ATOM     25  C   UNL     1      36.622 -19.908 -20.139  0.00  0.00    +0.014 C 
ATOM     26  C   UNL     1      33.153 -20.886 -19.897  0.00  0.00    +0.018 C 
ATOM     27  C   UNL     1      33.137 -21.922 -18.958  0.00  0.00    +0.041 C 
ATOM     28  C   UNL     1      36.656 -17.987 -21.878  0.00  0.00    +0.047 C 
ATOM     29  H   UNL     1      34.055 -18.800 -21.625  0.00  0.00    +0.152 HD
ENDBRANCH  17  22
ENDBRANCH   8  17
TORSDOF 6
ENDMDL
MODEL 3
REMARK VINA RESULT:     -10.1      3.527      8.996
REMARK  Name = 11234052
REMARK  6 active torsions:
REMARK  status: ('A' for Active; 'I' for Inactive)
REMARK    1  A    between atoms: C_6  and  O_11
REMARK    2  A    between atoms: C_8  and  O_17
REMARK    3  A    between atoms: O_11  and  C_12
REMARK    4  A    between atoms: C_12  and  C_13
REMARK    5  A    between atoms: C_13  and  O_15
REMARK    6  A    between atoms: O_17  and  C_22
REMARK                            x       y       z     vdW  Elec       q    Type
REMARK                         _______ _______ _______ _____ _____    ______ ____
ROOT
ATOM      1  N   UNL     1      34.219 -17.055 -24.119  0.00  0.00    -0.180 N 
ATOM      2  N   UNL     1      34.046 -18.054 -25.028  0.00  0.00    -0.151 NA
ATOM      3  N   UNL     1      34.982 -19.552 -23.379  0.00  0.00    -0.187 NA
ATOM      4  C   UNL     1      34.751 -17.248 -22.870  0.00  0.00    +0.126 C 
ATOM      5  C   UNL     1      34.783 -16.037 -22.219  0.00  0.00    +0.034 C 
ATOM      6  C   UNL     1      34.248 -15.074 -23.114  0.00  0.00    +0.153 C 
ATOM      7  C   UNL     1      33.908 -15.730 -24.279  0.00  0.00    +0.126 C 
ATOM      8  C   UNL     1      35.132 -18.577 -22.542  0.00  0.00    +0.247 C 
ATOM      9  C   UNL     1      35.267 -15.733 -20.856  0.00  0.00    +0.036 C 
ATOM     10  C   UNL     1      34.432 -19.231 -24.611  0.00  0.00    +0.220 C 
ENDROOT
BRANCH   6  11
ATOM     11  O   UNL     1      34.082 -13.759 -22.911  0.00  0.00    -0.472 OA
BRANCH  11  12
ATOM     12  C   UNL     1      32.756 -13.305 -22.615  0.00  0.00    +0.234 C 
BRANCH  12  13
ATOM     13  C   UNL     1      32.644 -13.045 -21.119  0.00  0.00    +0.154 C 
ATOM     14  C   UNL     1      31.867 -11.770 -20.833  0.00  0.00    +0.036 C 
BRANCH  13  15
ATOM     15  O   UNL     1      31.960 -14.147 -20.522  0.00  0.00    -0.381 OA
ATOM     16  H   UNL     1      31.010 -14.068 -20.692  0.00  0.00    +0.210 HD
ENDBRANCH  13  15
ENDBRANCH  12  13
ENDBRANCH  11  12
ENDBRANCH   6  11
BRANCH   8  17
ATOM     17  O   UNL     1      35.659 -18.795 -21.315  0.00  0.00    -0.433 OA
BRANCH  17  22
ATOM     18  F   UNL     1      36.824 -20.583 -19.586  0.00  0.00    -0.201 F 
ATOM     19  N   UNL     1      32.746 -22.301 -18.268  0.00  0.00    -0.316 N 
ATOM     20  C   UNL     1      34.680 -21.422 -18.951  0.00  0.00    +0.045 C 
ATOM     21  C   UNL     1      33.293 -21.355 -19.106  0.00  0.00    +0.050 C 
ATOM     22  C   UNL     1      34.883 -19.644 -20.583  0.00  0.00    +0.175 C 
ATOM     23  C   UNL     1      33.736 -22.962 -17.591  0.00  0.00    +0.026 C 
ATOM     24  C   UNL     1      35.489 -20.549 -19.705  0.00  0.00    +0.176 C 
ATOM     25  C   UNL     1      34.944 -22.441 -17.993  0.00  0.00    +0.014 C 
ATOM     26  C   UNL     1      32.673 -20.454 -19.979  0.00  0.00    +0.018 C 
ATOM     27  C   UNL     1      33.497 -19.599 -20.717  0.00  0.00    +0.041 C 
ATOM     28  C   UNL     1      33.421 -24.030 -16.624  0.00  0.00    +0.047 C 
ATOM     29  H   UNL     1      31.783 -22.475 -18.170  0.00  0.00    +0.152 HD
ENDBRANCH  17  22
ENDBRANCH   8  17
TORSDOF 6
ENDMDL
MODEL 4
REMARK VINA RESULT:      -9.7      2.986      4.791
REMARK  Name = 11234052
REMARK  6 active torsions:
REMARK  status: ('A' for Active; 'I' for Inactive)
REMARK    1  A    between atoms: C_6  and  O_11
REMARK    2  A    between atoms: C_8  and  O_17
REMARK    3  A    between atoms: O_11  and  C_12
REMARK    4  A    between atoms: C_12  and  C_13
REMARK    5  A    between atoms: C_13  and  O_15
REMARK    6  A    between atoms: O_17  and  C_22
REMARK                            x       y       z     vdW  Elec       q    Type
REMARK                         _______ _______ _______ _____ _____    ______ ____
ROOT
ATOM      1  N   UNL     1      32.456 -12.760 -21.292  0.00  0.00    -0.180 N 
ATOM      2  N   UNL     1      31.522 -12.580 -20.318  0.00  0.00    -0.151 NA
ATOM      3  N   UNL     1      31.048 -10.440 -21.338  0.00  0.00    -0.187 NA
ATOM      4  C   UNL     1      32.713 -11.842 -22.278  0.00  0.00    +0.126 C 
ATOM      5  C   UNL     1      33.706 -12.340 -23.088  0.00  0.00    +0.034 C 
ATOM      6  C   UNL     1      34.063 -13.612 -22.568  0.00  0.00    +0.153 C 
ATOM      7  C   UNL     1      33.275 -13.846 -21.459  0.00  0.00    +0.126 C 
ATOM      8  C   UNL     1      31.944 -10.648 -22.248  0.00  0.00    +0.247 C 
ATOM      9  C   UNL     1      34.325 -11.723 -24.280  0.00  0.00    +0.036 C 
ATOM     10  C   UNL     1      30.880 -11.444 -20.396  0.00  0.00    +0.220 C 
ENDROOT
BRANCH   6  11
ATOM     11  O   UNL     1      34.986 -14.466 -23.032  0.00  0.00    -0.472 OA
BRANCH  11  12
ATOM     12  C   UNL     1      34.695 -15.864 -22.929  0.00  0.00    +0.234 C 
BRANCH  12  13
ATOM     13  C   UNL     1      34.857 -16.506 -24.301  0.00  0.00    +0.154 C 
ATOM     14  C   UNL     1      34.370 -17.946 -24.303  0.00  0.00    +0.036 C 
BRANCH  13  15
ATOM     15  O   UNL     1      34.088 -15.756 -25.241  0.00  0.00    -0.381 OA
ATOM     16  H   UNL     1      34.453 -14.862 -25.317  0.00  0.00    +0.210 HD
ENDBRANCH  13  15
ENDBRANCH  12  13
ENDBRANCH  11  12
ENDBRANCH   6  11
BRANCH   8  17
ATOM     17  O   UNL     1      32.177  -9.726 -23.210  0.00  0.00    -0.433 OA
BRANCH  17  22
ATOM     18  F   UNL     1      30.222  -7.916 -23.879  0.00  0.00    -0.201 F 
ATOM     19  N   UNL     1      32.088  -4.601 -21.263  0.00  0.00    -0.316 N 
ATOM     20  C   UNL     1      31.242  -6.250 -22.506  0.00  0.00    +0.045 C 
ATOM     21  C   UNL     1      32.284  -5.911 -21.638  0.00  0.00    +0.050 C 
ATOM     22  C   UNL     1      32.207  -8.464 -22.694  0.00  0.00    +0.175 C 
ATOM     23  C   UNL     1      30.962  -4.101 -21.861  0.00  0.00    +0.026 C 
ATOM     24  C   UNL     1      31.205  -7.552 -23.043  0.00  0.00    +0.176 C 
ATOM     25  C   UNL     1      30.417  -5.098 -22.636  0.00  0.00    +0.014 C 
ATOM     26  C   UNL     1      33.293  -6.813 -21.281  0.00  0.00    +0.018 C 
ATOM     27  C   UNL     1      33.234  -8.098 -21.827  0.00  0.00    +0.041 C 
ATOM     28  C   UNL     1      30.522  -2.714 -21.627  0.00  0.00    +0.047 C 
ATOM     29  H   UNL     1      32.672  -4.097 -20.653  0.00  0.00    +0.152 HD
ENDBRANCH  17  22
ENDBRANCH   8  17
TORSDOF 6
ENDMDL
MODEL 5
REMARK VINA RESULT:      -9.7      3.790      6.414
REMARK  Name = 11234052
REMARK  6 active torsions:
REMARK  status: ('A' for Active; 'I' for Inactive)
REMARK    1  A    between atoms: C_6  and  O_11
REMARK    2  A    between atoms: C_8  and  O_17
REMARK    3  A    between atoms: O_11  and  C_12
REMARK    4  A    between atoms: C_12  and  C_13
REMARK    5  A    between atoms: C_13  and  O_15
REMARK    6  A    between atoms: O_17  and  C_22
REMARK                            x       y       z     vdW  Elec       q    Type
REMARK                         _______ _______ _______ _____ _____    ______ ____
ROOT
ATOM      1  N   UNL     1      34.089 -21.227 -19.344  0.00  0.00    -0.180 N 
ATOM      2  N   UNL     1      32.762 -21.201 -19.648  0.00  0.00    -0.151 NA
ATOM      3  N   UNL     1      33.322 -19.653 -21.418  0.00  0.00    -0.187 NA
ATOM      4  C   UNL     1      35.038 -20.509 -20.024  0.00  0.00    +0.126 C 
ATOM      5  C   UNL     1      36.266 -20.765 -19.459  0.00  0.00    +0.034 C 
ATOM      6  C   UNL     1      36.046 -21.677 -18.393  0.00  0.00    +0.153 C 
ATOM      7  C   UNL     1      34.693 -21.945 -18.345  0.00  0.00    +0.126 C 
ATOM      8  C   UNL     1      34.575 -19.703 -21.099  0.00  0.00    +0.247 C 
ATOM      9  C   UNL     1      37.589 -20.229 -19.839  0.00  0.00    +0.036 C 
ATOM     10  C   UNL     1      32.458 -20.425 -20.655  0.00  0.00    +0.220 C 
ENDROOT
BRANCH   6  11
ATOM     11  O   UNL     1      36.951 -22.208 -17.559  0.00  0.00    -0.472 OA
BRANCH  11  12
ATOM     12  C   UNL     1      37.169 -21.535 -16.314  0.00  0.00    +0.234 C 
BRANCH  12  13
ATOM     13  C   UNL     1      37.338 -22.573 -15.213  0.00  0.00    +0.154 C 
ATOM     14  C   UNL     1      36.145 -23.514 -15.147  0.00  0.00    +0.036 C 
BRANCH  13  15
ATOM     15  O   UNL     1      38.513 -23.334 -15.490  0.00  0.00    -0.381 OA
ATOM     16  H   UNL     1      38.383 -23.845 -16.304  0.00  0.00    +0.210 HD
ENDBRANCH  13  15
ENDBRANCH  12  13
ENDBRANCH  11  12
ENDBRANCH   6  11
BRANCH   8  17
ATOM     17  O   UNL     1      35.491 -18.984 -21.787  0.00  0.00    -0.433 OA
BRANCH  17  22
ATOM     18  F   UNL     1      34.922 -17.709 -24.151  0.00  0.00    -0.201 F 
ATOM     19  N   UNL     1      34.225 -13.657 -22.052  0.00  0.00    -0.316 N 
ATOM     20  C   UNL     1      34.576 -15.646 -22.998  0.00  0.00    +0.045 C 
ATOM     21  C   UNL     1      34.559 -14.964 -21.779  0.00  0.00    +0.050 C 
ATOM     22  C   UNL     1      35.183 -17.657 -21.791  0.00  0.00    +0.175 C 
ATOM     23  C   UNL     1      34.030 -13.489 -23.396  0.00  0.00    +0.026 C 
ATOM     24  C   UNL     1      34.895 -17.019 -23.003  0.00  0.00    +0.176 C 
ATOM     25  C   UNL     1      34.241 -14.702 -24.009  0.00  0.00    +0.014 C 
ATOM     26  C   UNL     1      34.845 -15.589 -20.560  0.00  0.00    +0.018 C 
ATOM     27  C   UNL     1      35.158 -16.951 -20.590  0.00  0.00    +0.041 C 
ATOM     28  C   UNL     1      33.660 -12.177 -23.959  0.00  0.00    +0.047 C 
ATOM     29  H   UNL     1      34.137 -12.946 -21.376  0.00  0.00    +0.152 HD
ENDBRANCH  17  22
ENDBRANCH   8  17
TORSDOF 6
ENDMDL
MODEL 6
REMARK VINA RESULT:      -9.7     11.351     14.675
REMARK  Name = 11234052
REMARK  6 active torsions:
REMARK  status: ('A' for Active; 'I' for Inactive)
REMARK    1  A    between atoms: C_6  and  O_11
REMARK    2  A    between atoms: C_8  and  O_17
REMARK    3  A    between atoms: O_11  and  C_12
REMARK    4  A    between atoms: C_12  and  C_13
REMARK    5  A    between atoms: C_13  and  O_15
REMARK    6  A    between atoms: O_17  and  C_22
REMARK                            x       y       z     vdW  Elec       q    Type
REMARK                         _______ _______ _______ _____ _____    ______ ____
ROOT
ATOM      1  N   UNL     1      32.140 -22.865 -16.701  0.00  0.00    -0.180 N 
ATOM      2  N   UNL     1      32.786 -22.732 -17.892  0.00  0.00    -0.151 NA
ATOM      3  N   UNL     1      34.851 -22.746 -16.636  0.00  0.00    -0.187 NA
ATOM      4  C   UNL     1      32.784 -22.940 -15.492  0.00  0.00    +0.126 C 
ATOM      5  C   UNL     1      31.837 -23.069 -14.503  0.00  0.00    +0.034 C 
ATOM      6  C   UNL     1      30.570 -23.071 -15.142  0.00  0.00    +0.153 C 
ATOM      7  C   UNL     1      30.787 -22.943 -16.499  0.00  0.00    +0.126 C 
ATOM      8  C   UNL     1      34.203 -22.872 -15.525  0.00  0.00    +0.247 C 
ATOM      9  C   UNL     1      32.036 -23.186 -13.043  0.00  0.00    +0.036 C 
ATOM     10  C   UNL     1      34.088 -22.681 -17.793  0.00  0.00    +0.220 C 
ENDROOT
BRANCH   6  11
ATOM     11  O   UNL     1      29.359 -23.175 -14.577  0.00  0.00    -0.472 OA
BRANCH  11  12
ATOM     12  C   UNL     1      28.273 -23.565 -15.425  0.00  0.00    +0.234 C 
BRANCH  12  13
ATOM     13  C   UNL     1      27.396 -22.351 -15.698  0.00  0.00    +0.154 C 
ATOM     14  C   UNL     1      27.002 -22.267 -17.165  0.00  0.00    +0.036 C 
BRANCH  13  15
ATOM     15  O   UNL     1      26.214 -22.465 -14.907  0.00  0.00    -0.381 OA
ATOM     16  H   UNL     1      25.552 -21.830 -15.221  0.00  0.00    +0.210 HD
ENDBRANCH  13  15
ENDBRANCH  12  13
ENDBRANCH  11  12
ENDBRANCH   6  11
BRANCH   8  17
ATOM     17  O   UNL     1      34.862 -22.944 -14.346  0.00  0.00    -0.433 OA
BRANCH  17  22
ATOM     18  F   UNL     1      37.502 -22.449 -13.768  0.00  0.00    -0.201 F 
ATOM     19  N   UNL     1      38.671 -26.887 -14.269  0.00  0.00    -0.316 N 
ATOM     20  C   UNL     1      38.034 -24.761 -14.043  0.00  0.00    +0.045 C 
ATOM     21  C   UNL     1      37.581 -26.049 -14.337  0.00  0.00    +0.050 C 
ATOM     22  C   UNL     1      35.766 -23.965 -14.341  0.00  0.00    +0.175 C 
ATOM     23  C   UNL     1      39.795 -26.175 -13.941  0.00  0.00    +0.026 C 
ATOM     24  C   UNL     1      37.107 -23.699 -14.046  0.00  0.00    +0.176 C 
ATOM     25  C   UNL     1      39.432 -24.857 -13.796  0.00  0.00    +0.014 C 
ATOM     26  C   UNL     1      36.243 -26.330 -14.635  0.00  0.00    +0.018 C 
ATOM     27  C   UNL     1      35.342 -25.261 -14.632  0.00  0.00    +0.041 C 
ATOM     28  C   UNL     1      41.106 -26.835 -13.801  0.00  0.00    +0.047 C 
ATOM     29  H   UNL     1      38.646 -27.858 -14.430  0.00  0.00    +0.152 HD
ENDBRANCH  17  22
ENDBRANCH   8  17
TORSDOF 6
ENDMDL
MODEL 7
REMARK VINA RESULT:      -9.6      6.924     11.387
REMARK  Name = 11234052
REMARK  6 active torsions:
REMARK  status: ('A' for Active; 'I' for Inactive)
REMARK    1  A    between atoms: C_6  and  O_11
REMARK    2  A    between atoms: C_8  and  O_17
REMARK    3  A    between atoms: O_11  and  C_12
REMARK    4  A    between atoms: C_12  and  C_13
REMARK    5  A    between atoms: C_13  and  O_15
REMARK    6  A    between atoms: O_17  and  C_22
REMARK                            x       y       z     vdW  Elec       q    Type
REMARK                         _______ _______ _______ _____ _____    ______ ____
ROOT
ATOM      1  N   UNL     1      34.370 -23.187 -14.198  0.00  0.00    -0.180 N 
ATOM      2  N   UNL     1      35.686 -23.155 -13.851  0.00  0.00    -0.151 NA
ATOM      3  N   UNL     1      36.183 -23.103 -16.216  0.00  0.00    -0.187 NA
ATOM      4  C   UNL     1      33.926 -23.178 -15.496  0.00  0.00    +0.126 C 
ATOM      5  C   UNL     1      32.551 -23.217 -15.485  0.00  0.00    +0.034 C 
ATOM      6  C   UNL     1      32.150 -23.251 -14.124  0.00  0.00    +0.153 C 
ATOM      7  C   UNL     1      33.293 -23.231 -13.351  0.00  0.00    +0.126 C 
ATOM      8  C   UNL     1      34.923 -23.134 -16.506  0.00  0.00    +0.247 C 
ATOM      9  C   UNL     1      31.617 -23.224 -16.631  0.00  0.00    +0.036 C 
ATOM     10  C   UNL     1      36.507 -23.116 -14.867  0.00  0.00    +0.220 C 
ENDROOT
BRANCH   6  11
ATOM     11  O   UNL     1      30.905 -23.294 -13.630  0.00  0.00    -0.472 OA
BRANCH  11  12
ATOM     12  C   UNL     1      30.469 -24.534 -13.063  0.00  0.00    +0.234 C 
BRANCH  12  13
ATOM     13  C   UNL     1      29.506 -25.210 -14.031  0.00  0.00    +0.154 C 
ATOM     14  C   UNL     1      28.757 -24.190 -14.874  0.00  0.00    +0.036 C 
BRANCH  13  15
ATOM     15  O   UNL     1      30.262 -26.059 -14.894  0.00  0.00    -0.381 OA
ATOM     16  H   UNL     1      30.994 -26.456 -14.398  0.00  0.00    +0.210 HD
ENDBRANCH  13  15
ENDBRANCH  12  13
ENDBRANCH  11  12
ENDBRANCH   6  11
BRANCH   8  17
ATOM     17  O   UNL     1      34.512 -23.124 -17.795  0.00  0.00    -0.433 OA
BRANCH  17  22
ATOM     18  F   UNL     1      33.002 -21.754 -19.635  0.00  0.00    -0.201 F 
ATOM     19  N   UNL     1      36.472 -18.893 -20.680  0.00  0.00    -0.316 N 
ATOM     20  C   UNL     1      34.841 -20.311 -20.125  0.00  0.00    +0.045 C 
ATOM     21  C   UNL     1      36.169 -19.964 -19.868  0.00  0.00    +0.050 C 
ATOM     22  C   UNL     1      35.053 -22.079 -18.484  0.00  0.00    +0.175 C 
ATOM     23  C   UNL     1      35.384 -18.552 -21.438  0.00  0.00    +0.026 C 
ATOM     24  C   UNL     1      34.273 -21.390 -19.418  0.00  0.00    +0.176 C 
ATOM     25  C   UNL     1      34.359 -19.412 -21.117  0.00  0.00    +0.014 C 
ATOM     26  C   UNL     1      36.961 -20.644 -18.936  0.00  0.00    +0.018 C 
ATOM     27  C   UNL     1      36.377 -21.711 -18.248  0.00  0.00    +0.041 C 
ATOM     28  C   UNL     1      35.439 -17.433 -22.396  0.00  0.00    +0.047 C 
ATOM     29  H   UNL     1      37.345 -18.439 -20.709  0.00  0.00    +0.152 HD
ENDBRANCH  17  22
ENDBRANCH   8  17
TORSDOF 6
ENDMDL
MODEL 8
REMARK VINA RESULT:      -9.5      2.403      3.622
REMARK  Name = 11234052
REMARK  6 active torsions:
REMARK  status: ('A' for Active; 'I' for Inactive)
REMARK    1  A    between atoms: C_6  and  O_11
REMARK    2  A    between atoms: C_8  and  O_17
REMARK    3  A    between atoms: O_11  and  C_12
REMARK    4  A    between atoms: C_12  and  C_13
REMARK    5  A    between atoms: C_13  and  O_15
REMARK    6  A    between atoms: O_17  and  C_22
REMARK                            x       y       z     vdW  Elec       q    Type
REMARK                         _______ _______ _______ _____ _____    ______ ____
ROOT
ATOM      1  N   UNL     1      33.470 -13.907 -20.881  0.00  0.00    -0.180 N 
ATOM      2  N   UNL     1      32.896 -13.563 -19.695  0.00  0.00    -0.151 NA
ATOM      3  N   UNL     1      31.732 -11.822 -20.902  0.00  0.00    -0.187 NA
ATOM      4  C   UNL     1      33.215 -13.262 -22.064  0.00  0.00    +0.126 C 
ATOM      5  C   UNL     1      33.956 -13.862 -23.055  0.00  0.00    +0.034 C 
ATOM      6  C   UNL     1      34.688 -14.913 -22.443  0.00  0.00    +0.153 C 
ATOM      7  C   UNL     1      34.369 -14.918 -21.101  0.00  0.00    +0.126 C 
ATOM      8  C   UNL     1      32.297 -12.179 -22.010  0.00  0.00    +0.247 C 
ATOM      9  C   UNL     1      34.021 -13.526 -24.493  0.00  0.00    +0.036 C 
ATOM     10  C   UNL     1      32.070 -12.553 -19.773  0.00  0.00    +0.220 C 
ENDROOT
BRANCH   6  11
ATOM     11  O   UNL     1      35.543 -15.770 -23.019  0.00  0.00    -0.472 OA
BRANCH  11  12
ATOM     12  C   UNL     1      34.999 -16.990 -23.533  0.00  0.00    +0.234 C 
BRANCH  12  13
ATOM     13  C   UNL     1      35.263 -18.110 -22.535  0.00  0.00    +0.154 C 
ATOM     14  C   UNL     1      34.791 -19.454 -23.067  0.00  0.00    +0.036 C 
BRANCH  13  15
ATOM     15  O   UNL     1      36.669 -18.175 -22.295  0.00  0.00    -0.381 OA
ATOM     16  H   UNL     1      36.830 -18.275 -21.345  0.00  0.00    +0.210 HD
ENDBRANCH  13  15
ENDBRANCH  12  13
ENDBRANCH  11  12
ENDBRANCH   6  11
BRANCH   8  17
ATOM     17  O   UNL     1      32.028 -11.525 -23.163  0.00  0.00    -0.433 OA
BRANCH  17  22
ATOM     18  F   UNL     1      30.147  -9.600 -22.616  0.00  0.00    -0.201 F 
ATOM     19  N   UNL     1      33.256  -6.193 -22.820  0.00  0.00    -0.316 N 
ATOM     20  C   UNL     1      31.809  -7.889 -22.737  0.00  0.00    +0.045 C 
ATOM     21  C   UNL     1      33.151  -7.560 -22.946  0.00  0.00    +0.050 C 
ATOM     22  C   UNL     1      32.392 -10.214 -23.090  0.00  0.00    +0.175 C 
ATOM     23  C   UNL     1      32.032  -5.648 -22.539  0.00  0.00    +0.026 C 
ATOM     24  C   UNL     1      31.424  -9.243 -22.811  0.00  0.00    +0.176 C 
ATOM     25  C   UNL     1      31.116  -6.673 -22.482  0.00  0.00    +0.014 C 
ATOM     26  C   UNL     1      34.130  -8.520 -23.226  0.00  0.00    +0.018 C 
ATOM     27  C   UNL     1      33.724  -9.856 -23.295  0.00  0.00    +0.041 C 
ATOM     28  C   UNL     1      31.865  -4.195 -22.354  0.00  0.00    +0.047 C 
ATOM     29  H   UNL     1      34.092  -5.682 -22.917  0.00  0.00    +0.152 HD
ENDBRANCH  17  22
ENDBRANCH   8  17
TORSDOF 6
ENDMDL
MODEL 9
REMARK VINA RESULT:      -9.4     12.138     13.826
REMARK  Name = 11234052
REMARK  6 active torsions:
REMARK  status: ('A' for Active; 'I' for Inactive)
REMARK    1  A    between atoms: C_6  and  O_11
REMARK    2  A    between atoms: C_8  and  O_17
REMARK    3  A    between atoms: O_11  and  C_12
REMARK    4  A    between atoms: C_12  and  C_13
REMARK    5  A    between atoms: C_13  and  O_15
REMARK    6  A    between atoms: O_17  and  C_22
REMARK                            x       y       z     vdW  Elec       q    Type
REMARK                         _______ _______ _______ _____ _____    ______ ____
ROOT
ATOM      1  N   UNL     1      36.142 -23.275 -15.300  0.00  0.00    -0.180 N 
ATOM      2  N   UNL     1      35.723 -22.847 -16.523  0.00  0.00    -0.151 NA
ATOM      3  N   UNL     1      33.467 -23.279 -15.766  0.00  0.00    -0.187 NA
ATOM      4  C   UNL     1      35.291 -23.699 -14.311  0.00  0.00    +0.126 C 
ATOM      5  C   UNL     1      36.043 -24.057 -13.215  0.00  0.00    +0.034 C 
ATOM      6  C   UNL     1      37.402 -23.839 -13.559  0.00  0.00    +0.153 C 
ATOM      7  C   UNL     1      37.434 -23.356 -14.852  0.00  0.00    +0.126 C 
ATOM      8  C   UNL     1      33.904 -23.678 -14.616  0.00  0.00    +0.247 C 
ATOM      9  C   UNL     1      35.584 -24.573 -11.909  0.00  0.00    +0.036 C 
ATOM     10  C   UNL     1      34.426 -22.874 -16.684  0.00  0.00    +0.220 C 
ENDROOT
BRANCH   6  11
ATOM     11  O   UNL     1      38.490 -24.048 -12.804  0.00  0.00    -0.472 OA
BRANCH  11  12
ATOM     12  C   UNL     1      38.928 -25.402 -12.648  0.00  0.00    +0.234 C 
BRANCH  12  13
ATOM     13  C   UNL     1      39.195 -25.998 -14.024  0.00  0.00    +0.154 C 
ATOM     14  C   UNL     1      40.674 -26.283 -14.230  0.00  0.00    +0.036 C 
BRANCH  13  15
ATOM     15  O   UNL     1      38.469 -27.223 -14.131  0.00  0.00    -0.381 OA
ATOM     16  H   UNL     1      38.839 -27.756 -14.851  0.00  0.00    +0.210 HD
ENDBRANCH  13  15
ENDBRANCH  12  13
ENDBRANCH  11  12
ENDBRANCH   6  11
BRANCH   8  17
ATOM     17  O   UNL     1      33.043 -24.091 -13.657  0.00  0.00    -0.433 OA
BRANCH  17  22
ATOM     18  F   UNL     1      31.585 -21.773 -13.868  0.00  0.00    -0.201 F 
ATOM     19  N   UNL     1      27.877 -23.995 -15.489  0.00  0.00    -0.316 N 
ATOM     20  C   UNL     1      29.706 -22.988 -14.701  0.00  0.00    +0.045 C 
ATOM     21  C   UNL     1      29.165 -24.225 -15.060  0.00  0.00    +0.050 C 
ATOM     22  C   UNL     1      31.762 -24.128 -14.119  0.00  0.00    +0.175 C 
ATOM     23  C   UNL     1      27.585 -22.659 -15.414  0.00  0.00    +0.026 C 
ATOM     24  C   UNL     1      31.030 -22.941 -14.222  0.00  0.00    +0.176 C 
ATOM     25  C   UNL     1      28.698 -22.010 -14.930  0.00  0.00    +0.014 C 
ATOM     26  C   UNL     1      29.885 -25.421 -14.963  0.00  0.00    +0.018 C 
ATOM     27  C   UNL     1      31.196 -25.349 -14.484  0.00  0.00    +0.041 C 
ATOM     28  C   UNL     1      26.266 -22.139 -15.816  0.00  0.00    +0.047 C 
ATOM     29  H   UNL     1      27.256 -24.690 -15.804  0.00  0.00    +0.152 HD
ENDBRANCH  17  22
ENDBRANCH   8  17
TORSDOF 6
ENDMDL
