MODEL 1
REMARK VINA RESULT:      -9.8      0.000      0.000
REMARK  Name = 447098
REMARK  3 active torsions:
REMARK  status: ('A' for Active; 'I' for Inactive)
REMARK    1  A    between atoms: C_6  and  O_17
REMARK    2  A    between atoms: O_17  and  C_18
REMARK    3  A    between atoms: C_21  and  O_24
REMARK                            x       y       z     vdW  Elec       q    Type
REMARK                         _______ _______ _______ _____ _____    ______ ____
ROOT
ATOM      1  N   UNL     1      34.045 -15.532 -24.220  0.00  0.00    -0.332 NA
ATOM      2  N   UNL     1      34.536 -14.679 -22.021  0.00  0.00    -0.317 NA
ATOM      3  N   UNL     1      35.260 -16.083 -20.307  0.00  0.00    -0.335 N 
ATOM      4  N   UNL     1      33.810 -13.249 -23.730  0.00  0.00    -0.283 N 
ATOM      5  C   UNL     1      34.785 -17.034 -22.504  0.00  0.00    +0.177 C 
ATOM      6  C   UNL     1      35.118 -18.337 -22.093  0.00  0.00    +0.137 C 
ATOM      7  C   UNL     1      34.365 -16.775 -23.818  0.00  0.00    +0.137 C 
ATOM      8  C   UNL     1      34.849 -15.935 -21.652  0.00  0.00    +0.181 C 
ATOM      9  C   UNL     1      35.032 -19.392 -22.996  0.00  0.00    +0.034 C 
ATOM     10  C   UNL     1      34.289 -17.850 -24.700  0.00  0.00    +0.030 C 
ATOM     11  C   UNL     1      34.617 -19.149 -24.300  0.00  0.00    +0.005 C 
ATOM     12  C   UNL     1      34.148 -14.552 -23.300  0.00  0.00    +0.197 C 
ATOM     13  H   UNL     1      35.301 -15.298 -19.714  0.00  0.00    +0.144 HD
ATOM     14  H   UNL     1      35.505 -16.972 -19.962  0.00  0.00    +0.144 HD
ATOM     15  H   UNL     1      33.519 -13.098 -24.658  0.00  0.00    +0.156 HD
ATOM     16  H   UNL     1      33.867 -12.494 -23.102  0.00  0.00    +0.156 HD
ENDROOT
BRANCH   6  17
ATOM     17  O   UNL     1      35.530 -18.647 -20.831  0.00  0.00    -0.457 OA
BRANCH  17  18
ATOM     18  C   UNL     1      35.016 -19.795 -20.254  0.00  0.00    +0.145 C 
ATOM     19  C   UNL     1      35.885 -20.725 -19.710  0.00  0.00    +0.041 C 
ATOM     20  C   UNL     1      33.645 -19.985 -20.235  0.00  0.00    +0.041 C 
ATOM     21  C   UNL     1      33.987 -22.091 -19.101  0.00  0.00    +0.139 C 
ATOM     22  C   UNL     1      35.366 -21.882 -19.129  0.00  0.00    +0.040 C 
ATOM     23  C   UNL     1      33.127 -21.142 -19.654  0.00  0.00    +0.040 C 
BRANCH  21  24
ATOM     24  O   UNL     1      33.481 -23.221 -18.534  0.00  0.00    -0.471 OA
ATOM     25  C   UNL     1      33.348 -23.230 -17.114  0.00  0.00    +0.252 C 
ENDBRANCH  21  24
ENDBRANCH  17  18
ENDBRANCH   6  17
TORSDOF 3
ENDMDL
MODEL 2
REMARK VINA RESULT:      -9.5      1.423      2.500
REMARK  Name = 447098
REMARK  3 active torsions:
REMARK  status: ('A' for Active; 'I' for Inactive)
REMARK    1  A    between atoms: C_6  and  O_17
REMARK    2  A    between atoms: O_17  and  C_18
REMARK    3  A    between atoms: C_21  and  O_24
REMARK                            x       y       z     vdW  Elec       q    Type
REMARK                         _______ _______ _______ _____ _____    ______ ____
ROOT
ATOM      1  N   UNL     1      33.677 -14.563 -23.701  0.00  0.00    -0.332 NA
ATOM      2  N   UNL     1      33.962 -16.489 -25.119  0.00  0.00    -0.317 NA
ATOM      3  N   UNL     1      34.867 -18.476 -24.301  0.00  0.00    -0.335 N 
ATOM      4  N   UNL     1      33.049 -14.503 -25.961  0.00  0.00    -0.283 N 
ATOM      5  C   UNL     1      34.615 -16.573 -22.794  0.00  0.00    +0.177 C 
ATOM      6  C   UNL     1      35.151 -17.276 -21.700  0.00  0.00    +0.137 C 
ATOM      7  C   UNL     1      34.191 -15.242 -22.661  0.00  0.00    +0.137 C 
ATOM      8  C   UNL     1      34.472 -17.141 -24.057  0.00  0.00    +0.181 C 
ATOM      9  C   UNL     1      35.267 -16.649 -20.462  0.00  0.00    +0.034 C 
ATOM     10  C   UNL     1      34.319 -14.640 -21.411  0.00  0.00    +0.030 C 
ATOM     11  C   UNL     1      34.851 -15.331 -20.318  0.00  0.00    +0.005 C 
ATOM     12  C   UNL     1      33.590 -15.223 -24.873  0.00  0.00    +0.197 C 
ATOM     13  H   UNL     1      34.761 -18.866 -25.199  0.00  0.00    +0.144 HD
ATOM     14  H   UNL     1      35.250 -19.017 -23.573  0.00  0.00    +0.144 HD
ATOM     15  H   UNL     1      32.759 -13.569 -25.838  0.00  0.00    +0.156 HD
ATOM     16  H   UNL     1      32.960 -14.934 -26.841  0.00  0.00    +0.156 HD
ENDROOT
BRANCH   6  17
ATOM     17  O   UNL     1      35.580 -18.568 -21.770  0.00  0.00    -0.457 OA
BRANCH  17  18
ATOM     18  C   UNL     1      34.941 -19.499 -20.971  0.00  0.00    +0.145 C 
ATOM     19  C   UNL     1      35.700 -20.355 -20.192  0.00  0.00    +0.041 C 
ATOM     20  C   UNL     1      33.558 -19.554 -20.972  0.00  0.00    +0.041 C 
ATOM     21  C   UNL     1      33.663 -21.365 -19.375  0.00  0.00    +0.139 C 
ATOM     22  C   UNL     1      35.056 -21.295 -19.387  0.00  0.00    +0.040 C 
ATOM     23  C   UNL     1      32.914 -20.494 -20.167  0.00  0.00    +0.040 C 
BRANCH  21  24
ATOM     24  O   UNL     1      33.035 -22.282 -18.590  0.00  0.00    -0.471 OA
ATOM     25  C   UNL     1      33.772 -22.805 -17.486  0.00  0.00    +0.252 C 
ENDBRANCH  21  24
ENDBRANCH  17  18
ENDBRANCH   6  17
TORSDOF 3
ENDMDL
MODEL 3
REMARK VINA RESULT:      -9.4      7.236      9.300
REMARK  Name = 447098
REMARK  3 active torsions:
REMARK  status: ('A' for Active; 'I' for Inactive)
REMARK    1  A    between atoms: C_6  and  O_17
REMARK    2  A    between atoms: O_17  and  C_18
REMARK    3  A    between atoms: C_21  and  O_24
REMARK                            x       y       z     vdW  Elec       q    Type
REMARK                         _______ _______ _______ _____ _____    ______ ____
ROOT
ATOM      1  N   UNL     1      30.784 -22.769 -16.537  0.00  0.00    -0.332 NA
ATOM      2  N   UNL     1      30.695 -23.103 -14.152  0.00  0.00    -0.317 NA
ATOM      3  N   UNL     1      32.639 -23.303 -12.881  0.00  0.00    -0.335 N 
ATOM      4  N   UNL     1      28.729 -22.904 -15.411  0.00  0.00    -0.283 N 
ATOM      5  C   UNL     1      32.822 -22.966 -15.291  0.00  0.00    +0.177 C 
ATOM      6  C   UNL     1      34.228 -22.986 -15.260  0.00  0.00    +0.137 C 
ATOM      7  C   UNL     1      32.128 -22.789 -16.497  0.00  0.00    +0.137 C 
ATOM      8  C   UNL     1      32.041 -23.119 -14.149  0.00  0.00    +0.181 C 
ATOM      9  C   UNL     1      34.951 -22.828 -16.439  0.00  0.00    +0.034 C 
ATOM     10  C   UNL     1      32.876 -22.634 -17.662  0.00  0.00    +0.030 C 
ATOM     11  C   UNL     1      34.274 -22.652 -17.641  0.00  0.00    +0.005 C 
ATOM     12  C   UNL     1      30.140 -22.927 -15.362  0.00  0.00    +0.197 C 
ATOM     13  H   UNL     1      32.075 -23.409 -12.081  0.00  0.00    +0.144 HD
ATOM     14  H   UNL     1      33.619 -23.326 -12.797  0.00  0.00    +0.144 HD
ATOM     15  H   UNL     1      28.269 -22.778 -16.273  0.00  0.00    +0.156 HD
ATOM     16  H   UNL     1      28.206 -23.013 -14.585  0.00  0.00    +0.156 HD
ENDROOT
BRANCH   6  17
ATOM     17  O   UNL     1      34.956 -23.155 -14.119  0.00  0.00    -0.457 OA
BRANCH  17  18
ATOM     18  C   UNL     1      36.000 -24.062 -14.155  0.00  0.00    +0.145 C 
ATOM     19  C   UNL     1      35.752 -25.362 -14.560  0.00  0.00    +0.041 C 
ATOM     20  C   UNL     1      37.267 -23.647 -13.782  0.00  0.00    +0.041 C 
ATOM     21  C   UNL     1      38.089 -25.877 -14.221  0.00  0.00    +0.139 C 
ATOM     22  C   UNL     1      36.805 -26.277 -14.593  0.00  0.00    +0.040 C 
ATOM     23  C   UNL     1      38.319 -24.562 -13.816  0.00  0.00    +0.040 C 
BRANCH  21  24
ATOM     24  O   UNL     1      39.116 -26.770 -14.255  0.00  0.00    -0.471 OA
ATOM     25  C   UNL     1      40.439 -26.238 -14.214  0.00  0.00    +0.252 C 
ENDBRANCH  21  24
ENDBRANCH  17  18
ENDBRANCH   6  17
TORSDOF 3
ENDMDL
MODEL 4
REMARK VINA RESULT:      -9.1      4.247      6.616
REMARK  Name = 447098
REMARK  3 active torsions:
REMARK  status: ('A' for Active; 'I' for Inactive)
REMARK    1  A    between atoms: C_6  and  O_17
REMARK    2  A    between atoms: O_17  and  C_18
REMARK    3  A    between atoms: C_21  and  O_24
REMARK                            x       y       z     vdW  Elec       q    Type
REMARK                         _______ _______ _______ _____ _____    ______ ____
ROOT
ATOM      1  N   UNL     1      31.136  -9.937 -22.028  0.00  0.00    -0.332 NA
ATOM      2  N   UNL     1      32.814  -9.613 -23.727  0.00  0.00    -0.317 NA
ATOM      3  N   UNL     1      34.518 -11.169 -24.064  0.00  0.00    -0.335 N 
ATOM      4  N   UNL     1      31.110  -8.038 -23.406  0.00  0.00    -0.283 N 
ATOM      5  C   UNL     1      32.861 -11.577 -22.320  0.00  0.00    +0.177 C 
ATOM      6  C   UNL     1      33.453 -12.794 -21.939  0.00  0.00    +0.137 C 
ATOM      7  C   UNL     1      31.711 -11.099 -21.672  0.00  0.00    +0.137 C 
ATOM      8  C   UNL     1      33.364 -10.781 -23.345  0.00  0.00    +0.181 C 
ATOM      9  C   UNL     1      32.900 -13.543 -20.905  0.00  0.00    +0.034 C 
ATOM     10  C   UNL     1      31.178 -11.869 -20.640  0.00  0.00    +0.030 C 
ATOM     11  C   UNL     1      31.762 -13.080 -20.255  0.00  0.00    +0.005 C 
ATOM     12  C   UNL     1      31.719  -9.257 -23.037  0.00  0.00    +0.197 C 
ATOM     13  H   UNL     1      34.863 -10.597 -24.787  0.00  0.00    +0.144 HD
ATOM     14  H   UNL     1      34.976 -12.011 -23.842  0.00  0.00    +0.144 HD
ATOM     15  H   UNL     1      30.304  -7.727 -22.933  0.00  0.00    +0.156 HD
ATOM     16  H   UNL     1      31.490  -7.499 -24.136  0.00  0.00    +0.156 HD
ENDROOT
BRANCH   6  17
ATOM     17  O   UNL     1      34.570 -13.307 -22.531  0.00  0.00    -0.457 OA
BRANCH  17  18
ATOM     18  C   UNL     1      34.463 -14.549 -23.132  0.00  0.00    +0.145 C 
ATOM     19  C   UNL     1      35.132 -15.626 -22.578  0.00  0.00    +0.041 C 
ATOM     20  C   UNL     1      33.692 -14.683 -24.273  0.00  0.00    +0.041 C 
ATOM     21  C   UNL     1      34.253 -17.033 -24.335  0.00  0.00    +0.139 C 
ATOM     22  C   UNL     1      35.027 -16.878 -23.184  0.00  0.00    +0.040 C 
ATOM     23  C   UNL     1      33.586 -15.935 -24.879  0.00  0.00    +0.040 C 
BRANCH  21  24
ATOM     24  O   UNL     1      34.150 -18.255 -24.926  0.00  0.00    -0.471 OA
ATOM     25  C   UNL     1      34.250 -19.397 -24.077  0.00  0.00    +0.252 C 
ENDBRANCH  21  24
ENDBRANCH  17  18
ENDBRANCH   6  17
TORSDOF 3
ENDMDL
MODEL 5
REMARK VINA RESULT:      -9.1      7.755     11.256
REMARK  Name = 447098
REMARK  3 active torsions:
REMARK  status: ('A' for Active; 'I' for Inactive)
REMARK    1  A    between atoms: C_6  and  O_17
REMARK    2  A    between atoms: O_17  and  C_18
REMARK    3  A    between atoms: C_21  and  O_24
REMARK                            x       y       z     vdW  Elec       q    Type
REMARK                         _______ _______ _______ _____ _____    ______ ____
ROOT
ATOM      1  N   UNL     1      39.311 -25.083 -12.816  0.00  0.00    -0.332 NA
ATOM      2  N   UNL     1      38.410 -26.733 -14.322  0.00  0.00    -0.317 NA
ATOM      3  N   UNL     1      36.126 -26.842 -14.779  0.00  0.00    -0.335 N 
ATOM      4  N   UNL     1      40.708 -26.640 -13.879  0.00  0.00    -0.283 N 
ATOM      5  C   UNL     1      36.952 -25.139 -13.240  0.00  0.00    +0.177 C 
ATOM      6  C   UNL     1      35.667 -24.615 -13.014  0.00  0.00    +0.137 C 
ATOM      7  C   UNL     1      38.078 -24.590 -12.606  0.00  0.00    +0.137 C 
ATOM      8  C   UNL     1      37.189 -26.215 -14.090  0.00  0.00    +0.181 C 
ATOM      9  C   UNL     1      35.498 -23.536 -12.150  0.00  0.00    +0.034 C 
ATOM     10  C   UNL     1      37.880 -23.511 -11.747  0.00  0.00    +0.030 C 
ATOM     11  C   UNL     1      36.606 -22.985 -11.517  0.00  0.00    +0.005 C 
ATOM     12  C   UNL     1      39.410 -26.128 -13.663  0.00  0.00    +0.197 C 
ATOM     13  H   UNL     1      36.307 -27.602 -15.378  0.00  0.00    +0.144 HD
ATOM     14  H   UNL     1      35.204 -26.520 -14.660  0.00  0.00    +0.144 HD
ATOM     15  H   UNL     1      41.480 -26.235 -13.420  0.00  0.00    +0.156 HD
ATOM     16  H   UNL     1      40.842 -27.402 -14.487  0.00  0.00    +0.156 HD
ENDROOT
BRANCH   6  17
ATOM     17  O   UNL     1      34.538 -25.107 -13.599  0.00  0.00    -0.457 OA
BRANCH  17  18
ATOM     18  C   UNL     1      33.984 -24.377 -14.636  0.00  0.00    +0.145 C 
ATOM     19  C   UNL     1      32.609 -24.231 -14.699  0.00  0.00    +0.041 C 
ATOM     20  C   UNL     1      34.818 -23.813 -15.585  0.00  0.00    +0.041 C 
ATOM     21  C   UNL     1      32.875 -22.921 -16.712  0.00  0.00    +0.139 C 
ATOM     22  C   UNL     1      32.050 -23.497 -15.746  0.00  0.00    +0.040 C 
ATOM     23  C   UNL     1      34.259 -23.079 -16.632  0.00  0.00    +0.040 C 
BRANCH  21  24
ATOM     24  O   UNL     1      32.329 -22.204 -17.732  0.00  0.00    -0.471 OA
ATOM     25  C   UNL     1      33.208 -21.788 -18.775  0.00  0.00    +0.252 C 
ENDBRANCH  21  24
ENDBRANCH  17  18
ENDBRANCH   6  17
TORSDOF 3
ENDMDL
MODEL 6
REMARK VINA RESULT:      -9.0      9.810     11.562
REMARK  Name = 447098
REMARK  3 active torsions:
REMARK  status: ('A' for Active; 'I' for Inactive)
REMARK    1  A    between atoms: C_6  and  O_17
REMARK    2  A    between atoms: O_17  and  C_18
REMARK    3  A    between atoms: C_21  and  O_24
REMARK                            x       y       z     vdW  Elec       q    Type
REMARK                         _______ _______ _______ _____ _____    ______ ____
ROOT
ATOM      1  N   UNL     1      39.183 -25.027 -12.812  0.00  0.00    -0.332 NA
ATOM      2  N   UNL     1      38.480 -26.693 -14.405  0.00  0.00    -0.317 NA
ATOM      3  N   UNL     1      36.234 -26.963 -14.969  0.00  0.00    -0.335 N 
ATOM      4  N   UNL     1      40.743 -26.438 -13.854  0.00  0.00    -0.283 N 
ATOM      5  C   UNL     1      36.856 -25.250 -13.345  0.00  0.00    +0.177 C 
ATOM      6  C   UNL     1      35.526 -24.835 -13.164  0.00  0.00    +0.137 C 
ATOM      7  C   UNL     1      37.907 -24.637 -12.646  0.00  0.00    +0.137 C 
ATOM      8  C   UNL     1      37.214 -26.278 -14.214  0.00  0.00    +0.181 C 
ATOM      9  C   UNL     1      35.236 -23.800 -12.279  0.00  0.00    +0.034 C 
ATOM     10  C   UNL     1      37.588 -23.605 -11.767  0.00  0.00    +0.030 C 
ATOM     11  C   UNL     1      36.268 -23.185 -11.580  0.00  0.00    +0.005 C 
ATOM     12  C   UNL     1      39.401 -26.034 -13.683  0.00  0.00    +0.197 C 
ATOM     13  H   UNL     1      36.500 -27.687 -15.580  0.00  0.00    +0.144 HD
ATOM     14  H   UNL     1      35.285 -26.716 -14.883  0.00  0.00    +0.144 HD
ATOM     15  H   UNL     1      41.460 -25.989 -13.349  0.00  0.00    +0.156 HD
ATOM     16  H   UNL     1      40.962 -27.167 -14.477  0.00  0.00    +0.156 HD
ENDROOT
BRANCH   6  17
ATOM     17  O   UNL     1      34.466 -25.393 -13.815  0.00  0.00    -0.457 OA
BRANCH  17  18
ATOM     18  C   UNL     1      33.314 -24.636 -13.931  0.00  0.00    +0.145 C 
ATOM     19  C   UNL     1      32.193 -24.994 -13.203  0.00  0.00    +0.041 C 
ATOM     20  C   UNL     1      33.310 -23.539 -14.776  0.00  0.00    +0.041 C 
ATOM     21  C   UNL     1      31.008 -23.122 -14.168  0.00  0.00    +0.139 C 
ATOM     22  C   UNL     1      31.031 -24.231 -13.322  0.00  0.00    +0.040 C 
ATOM     23  C   UNL     1      32.148 -22.776 -14.895  0.00  0.00    +0.040 C 
BRANCH  21  24
ATOM     24  O   UNL     1      29.875 -22.378 -14.283  0.00  0.00    -0.471 OA
ATOM     25  C   UNL     1      28.966 -22.737 -15.323  0.00  0.00    +0.252 C 
ENDBRANCH  21  24
ENDBRANCH  17  18
ENDBRANCH   6  17
TORSDOF 3
ENDMDL
MODEL 7
REMARK VINA RESULT:      -9.0      5.383      9.123
REMARK  Name = 447098
REMARK  3 active torsions:
REMARK  status: ('A' for Active; 'I' for Inactive)
REMARK    1  A    between atoms: C_6  and  O_17
REMARK    2  A    between atoms: O_17  and  C_18
REMARK    3  A    between atoms: C_21  and  O_24
REMARK                            x       y       z     vdW  Elec       q    Type
REMARK                         _______ _______ _______ _____ _____    ______ ____
ROOT
ATOM      1  N   UNL     1      33.697 -23.744 -12.787  0.00  0.00    -0.332 NA
ATOM      2  N   UNL     1      36.040 -23.824 -13.345  0.00  0.00    -0.317 NA
ATOM      3  N   UNL     1      36.775 -23.547 -15.540  0.00  0.00    -0.335 N 
ATOM      4  N   UNL     1      35.322 -24.103 -11.132  0.00  0.00    -0.283 N 
ATOM      5  C   UNL     1      34.384 -23.453 -15.065  0.00  0.00    +0.177 C 
ATOM      6  C   UNL     1      34.051 -23.229 -16.413  0.00  0.00    +0.137 C 
ATOM      7  C   UNL     1      33.389 -23.531 -14.078  0.00  0.00    +0.137 C 
ATOM      8  C   UNL     1      35.696 -23.609 -14.629  0.00  0.00    +0.181 C 
ATOM      9  C   UNL     1      32.717 -23.081 -16.784  0.00  0.00    +0.034 C 
ATOM     10  C   UNL     1      32.063 -23.379 -14.477  0.00  0.00    +0.030 C 
ATOM     11  C   UNL     1      31.723 -23.157 -15.815  0.00  0.00    +0.005 C 
ATOM     12  C   UNL     1      35.005 -23.879 -12.490  0.00  0.00    +0.197 C 
ATOM     13  H   UNL     1      37.699 -23.659 -15.218  0.00  0.00    +0.144 HD
ATOM     14  H   UNL     1      36.604 -23.394 -16.497  0.00  0.00    +0.144 HD
ATOM     15  H   UNL     1      34.602 -24.153 -10.461  0.00  0.00    +0.156 HD
ATOM     16  H   UNL     1      36.260 -24.208 -10.856  0.00  0.00    +0.156 HD
ENDROOT
BRANCH   6  17
ATOM     17  O   UNL     1      34.973 -23.145 -17.414  0.00  0.00    -0.457 OA
BRANCH  17  18
ATOM     18  C   UNL     1      34.790 -22.164 -18.372  0.00  0.00    +0.145 C 
ATOM     19  C   UNL     1      35.896 -21.512 -18.890  0.00  0.00    +0.041 C 
ATOM     20  C   UNL     1      33.507 -21.857 -18.788  0.00  0.00    +0.041 C 
ATOM     21  C   UNL     1      34.426 -20.199 -20.287  0.00  0.00    +0.139 C 
ATOM     22  C   UNL     1      35.712 -20.522 -19.855  0.00  0.00    +0.040 C 
ATOM     23  C   UNL     1      33.323 -20.866 -19.754  0.00  0.00    +0.040 C 
BRANCH  21  24
ATOM     24  O   UNL     1      34.247 -19.233 -21.229  0.00  0.00    -0.471 OA
ATOM     25  C   UNL     1      34.970 -19.375 -22.450  0.00  0.00    +0.252 C 
ENDBRANCH  21  24
ENDBRANCH  17  18
ENDBRANCH   6  17
TORSDOF 3
ENDMDL
MODEL 8
REMARK VINA RESULT:      -8.9      8.652     10.270
REMARK  Name = 447098
REMARK  3 active torsions:
REMARK  status: ('A' for Active; 'I' for Inactive)
REMARK    1  A    between atoms: C_6  and  O_17
REMARK    2  A    between atoms: O_17  and  C_18
REMARK    3  A    between atoms: C_21  and  O_24
REMARK                            x       y       z     vdW  Elec       q    Type
REMARK                         _______ _______ _______ _____ _____    ______ ____
ROOT
ATOM      1  N   UNL     1      39.440 -24.552 -14.709  0.00  0.00    -0.332 NA
ATOM      2  N   UNL     1      38.257 -26.040 -13.228  0.00  0.00    -0.317 NA
ATOM      3  N   UNL     1      35.994 -25.735 -12.754  0.00  0.00    -0.335 N 
ATOM      4  N   UNL     1      40.530 -26.365 -13.692  0.00  0.00    -0.283 N 
ATOM      5  C   UNL     1      37.114 -24.180 -14.265  0.00  0.00    +0.177 C 
ATOM      6  C   UNL     1      35.946 -23.423 -14.468  0.00  0.00    +0.137 C 
ATOM      7  C   UNL     1      38.318 -23.835 -14.897  0.00  0.00    +0.137 C 
ATOM      8  C   UNL     1      37.152 -25.300 -13.439  0.00  0.00    +0.181 C 
ATOM      9  C   UNL     1      35.975 -22.313 -15.308  0.00  0.00    +0.034 C 
ATOM     10  C   UNL     1      38.319 -22.720 -15.731  0.00  0.00    +0.030 C 
ATOM     11  C   UNL     1      37.163 -21.962 -15.939  0.00  0.00    +0.005 C 
ATOM     12  C   UNL     1      39.348 -25.616 -13.885  0.00  0.00    +0.197 C 
ATOM     13  H   UNL     1      36.034 -26.529 -12.173  0.00  0.00    +0.144 HD
ATOM     14  H   UNL     1      35.147 -25.245 -12.857  0.00  0.00    +0.144 HD
ATOM     15  H   UNL     1      41.361 -26.099 -14.149  0.00  0.00    +0.156 HD
ATOM     16  H   UNL     1      40.523 -27.152 -13.102  0.00  0.00    +0.156 HD
ENDROOT
BRANCH   6  17
ATOM     17  O   UNL     1      34.749 -23.710 -13.881  0.00  0.00    -0.457 OA
BRANCH  17  18
ATOM     18  C   UNL     1      33.599 -23.412 -14.591  0.00  0.00    +0.145 C 
ATOM     19  C   UNL     1      33.618 -23.497 -15.972  0.00  0.00    +0.041 C 
ATOM     20  C   UNL     1      32.460 -23.036 -13.902  0.00  0.00    +0.041 C 
ATOM     21  C   UNL     1      31.301 -22.814 -16.012  0.00  0.00    +0.139 C 
ATOM     22  C   UNL     1      32.459 -23.195 -16.688  0.00  0.00    +0.040 C 
ATOM     23  C   UNL     1      31.301 -22.734 -14.619  0.00  0.00    +0.040 C 
BRANCH  21  24
ATOM     24  O   UNL     1      30.170 -22.520 -16.711  0.00  0.00    -0.471 OA
ATOM     25  C   UNL     1      28.929 -22.930 -16.139  0.00  0.00    +0.252 C 
ENDBRANCH  21  24
ENDBRANCH  17  18
ENDBRANCH   6  17
TORSDOF 3
ENDMDL
MODEL 9
REMARK VINA RESULT:      -8.9      5.084      9.094
REMARK  Name = 447098
REMARK  3 active torsions:
REMARK  status: ('A' for Active; 'I' for Inactive)
REMARK    1  A    between atoms: C_6  and  O_17
REMARK    2  A    between atoms: O_17  and  C_18
REMARK    3  A    between atoms: C_21  and  O_24
REMARK                            x       y       z     vdW  Elec       q    Type
REMARK                         _______ _______ _______ _____ _____    ______ ____
ROOT
ATOM      1  N   UNL     1      32.451 -24.161 -13.394  0.00  0.00    -0.332 NA
ATOM      2  N   UNL     1      30.410 -23.934 -14.654  0.00  0.00    -0.317 NA
ATOM      3  N   UNL     1      30.423 -23.196 -16.866  0.00  0.00    -0.335 N 
ATOM      4  N   UNL     1      30.374 -24.679 -12.433  0.00  0.00    -0.283 N 
ATOM      5  C   UNL     1      32.538 -23.395 -15.665  0.00  0.00    +0.177 C 
ATOM      6  C   UNL     1      33.291 -22.956 -16.768  0.00  0.00    +0.137 C 
ATOM      7  C   UNL     1      33.162 -23.739 -14.455  0.00  0.00    +0.137 C 
ATOM      8  C   UNL     1      31.152 -23.516 -15.697  0.00  0.00    +0.181 C 
ATOM      9  C   UNL     1      34.676 -22.857 -16.670  0.00  0.00    +0.034 C 
ATOM     10  C   UNL     1      34.549 -23.631 -14.385  0.00  0.00    +0.030 C 
ATOM     11  C   UNL     1      35.305 -23.195 -15.477  0.00  0.00    +0.005 C 
ATOM     12  C   UNL     1      31.114 -24.235 -13.551  0.00  0.00    +0.197 C 
ATOM     13  H   UNL     1      29.443 -23.286 -16.876  0.00  0.00    +0.144 HD
ATOM     14  H   UNL     1      30.896 -22.882 -17.670  0.00  0.00    +0.144 HD
ATOM     15  H   UNL     1      30.839 -24.914 -11.597  0.00  0.00    +0.156 HD
ATOM     16  H   UNL     1      29.395 -24.754 -12.489  0.00  0.00    +0.156 HD
ENDROOT
BRANCH   6  17
ATOM     17  O   UNL     1      32.740 -22.608 -17.966  0.00  0.00    -0.457 OA
BRANCH  17  18
ATOM     18  C   UNL     1      33.489 -21.803 -18.806  0.00  0.00    +0.145 C 
ATOM     19  C   UNL     1      32.872 -20.751 -19.460  0.00  0.00    +0.041 C 
ATOM     20  C   UNL     1      34.837 -22.071 -18.972  0.00  0.00    +0.041 C 
ATOM     21  C   UNL     1      34.987 -20.195 -20.489  0.00  0.00    +0.139 C 
ATOM     22  C   UNL     1      33.627 -19.940 -20.309  0.00  0.00    +0.040 C 
ATOM     23  C   UNL     1      35.592 -21.260 -19.820  0.00  0.00    +0.040 C 
BRANCH  21  24
ATOM     24  O   UNL     1      35.724 -19.404 -21.316  0.00  0.00    -0.471 OA
ATOM     25  C   UNL     1      35.111 -18.995 -22.537  0.00  0.00    +0.252 C 
ENDBRANCH  21  24
ENDBRANCH  17  18
ENDBRANCH   6  17
TORSDOF 3
ENDMDL
