MODEL 1
REMARK VINA RESULT:     -12.0      0.000      0.000
REMARK  Name = 51039095
REMARK  7 active torsions:
REMARK  status: ('A' for Active; 'I' for Inactive)
REMARK    1  A    between atoms: C_5  and  C_16
REMARK    2  A    between atoms: C_6  and  C_27
REMARK    3  A    between atoms: C_11  and  N_17
REMARK    4  A    between atoms: C_27  and  C_28
REMARK    5  A    between atoms: C_28  and  C_29
REMARK    6  A    between atoms: C_32  and  O_35
REMARK    7  A    between atoms: C_33  and  O_37
REMARK                            x       y       z     vdW  Elec       q    Type
REMARK                         _______ _______ _______ _____ _____    ______ ____
ROOT
ATOM      1  O   UNL     1      33.895 -21.160 -19.667  0.00  0.00    -0.270 OA
ATOM      2  N   UNL     1      36.018 -20.168 -19.782  0.00  0.00    -0.265 N 
ATOM      3  N   UNL     1      36.419 -18.019 -22.480  0.00  0.00    -0.239 N 
ATOM      4  N   UNL     1      36.933 -18.603 -21.384  0.00  0.00    -0.166 NA
ATOM      5  C   UNL     1      35.041 -20.999 -19.217  0.00  0.00    +0.251 C 
ATOM      6  C   UNL     1      35.128 -18.378 -22.742  0.00  0.00    +0.046 C 
ATOM      7  C   UNL     1      35.924 -19.358 -20.941  0.00  0.00    +0.153 C 
ATOM      8  C   UNL     1      34.775 -19.258 -21.748  0.00  0.00    +0.048 C 
ATOM      9  H   UNL     1      36.883 -20.143 -19.313  0.00  0.00    +0.157 HD
ATOM     10  H   UNL     1      36.926 -17.390 -23.042  0.00  0.00    +0.174 HD
ENDROOT
BRANCH   5  16
ATOM     11  C   UNL     1      36.215 -23.144 -15.749  0.00  0.00    +0.048 C 
ATOM     12  C   UNL     1      34.919 -23.280 -16.248  0.00  0.00    +0.015 C 
ATOM     13  C   UNL     1      37.126 -22.304 -16.390  0.00  0.00    +0.015 C 
ATOM     14  C   UNL     1      34.534 -22.575 -17.387  0.00  0.00    +0.006 C 
ATOM     15  C   UNL     1      36.739 -21.600 -17.530  0.00  0.00    +0.006 C 
ATOM     16  C   UNL     1      35.444 -21.735 -18.029  0.00  0.00    +0.054 C 
BRANCH  11  17
ATOM     17  N   UNL     1      36.604 -23.851 -14.605  0.00  0.00    -0.312 N 
ATOM     18  N   UNL     1      37.466 -25.088 -12.187  0.00  0.00    +0.389 N 
ATOM     19  C   UNL     1      38.060 -25.484 -13.468  0.00  0.00    -0.042 C 
ATOM     20  C   UNL     1      36.057 -24.720 -12.362  0.00  0.00    -0.042 C 
ATOM     21  C   UNL     1      37.984 -24.334 -14.483  0.00  0.00    +0.069 C 
ATOM     22  C   UNL     1      35.922 -23.545 -13.340  0.00  0.00    +0.069 C 
ATOM     23  C   UNL     1      35.463 -24.358 -11.002  0.00  0.00    -0.022 C 
ATOM     24  C   UNL     1      39.512 -25.902 -13.239  0.00  0.00    -0.022 C 
ATOM     25  H   UNL     1      37.978 -24.287 -11.814  0.00  0.00    -0.084 HD
ATOM     26  H   UNL     1      37.523 -25.875 -11.541  0.00  0.00    -0.084 HD
ENDBRANCH  11  17
ENDBRANCH   5  16
BRANCH   6  27
ATOM     27  C   UNL     1      34.386 -17.848 -23.896  0.00  0.00    +0.047 C 
BRANCH  27  28
ATOM     28  C   UNL     1      34.911 -16.495 -24.440  0.00  0.00    +0.033 C 
BRANCH  28  29
ATOM     29  C   UNL     1      34.376 -15.307 -23.676  0.00  0.00    -0.016 C 
ATOM     30  C   UNL     1      34.289 -15.353 -22.285  0.00  0.00    +0.033 C 
ATOM     31  C   UNL     1      33.972 -14.163 -24.363  0.00  0.00    +0.033 C 
ATOM     32  C   UNL     1      33.478 -13.064 -23.659  0.00  0.00    +0.141 C 
ATOM     33  C   UNL     1      33.797 -14.254 -21.581  0.00  0.00    +0.141 C 
ATOM     34  C   UNL     1      33.391 -13.110 -22.267  0.00  0.00    +0.074 C 
BRANCH  32  35
ATOM     35  O   UNL     1      33.083 -11.947 -24.329  0.00  0.00    -0.471 OA
ATOM     36  C   UNL     1      33.058 -10.725 -23.592  0.00  0.00    +0.252 C 
ENDBRANCH  32  35
BRANCH  33  37
ATOM     37  O   UNL     1      33.713 -14.298 -20.223  0.00  0.00    -0.471 OA
ATOM     38  C   UNL     1      32.406 -14.243 -19.652  0.00  0.00    +0.252 C 
ENDBRANCH  33  37
ENDBRANCH  28  29
ENDBRANCH  27  28
ENDBRANCH   6  27
TORSDOF 7
ENDMDL
MODEL 2
REMARK VINA RESULT:     -12.0      0.035      1.927
REMARK  Name = 51039095
REMARK  7 active torsions:
REMARK  status: ('A' for Active; 'I' for Inactive)
REMARK    1  A    between atoms: C_5  and  C_16
REMARK    2  A    between atoms: C_6  and  C_27
REMARK    3  A    between atoms: C_11  and  N_17
REMARK    4  A    between atoms: C_27  and  C_28
REMARK    5  A    between atoms: C_28  and  C_29
REMARK    6  A    between atoms: C_32  and  O_35
REMARK    7  A    between atoms: C_33  and  O_37
REMARK                            x       y       z     vdW  Elec       q    Type
REMARK                         _______ _______ _______ _____ _____    ______ ____
ROOT
ATOM      1  O   UNL     1      33.906 -21.165 -19.647  0.00  0.00    -0.270 OA
ATOM      2  N   UNL     1      36.032 -20.179 -19.758  0.00  0.00    -0.265 N 
ATOM      3  N   UNL     1      36.446 -18.033 -22.456  0.00  0.00    -0.239 N 
ATOM      4  N   UNL     1      36.955 -18.618 -21.358  0.00  0.00    -0.166 NA
ATOM      5  C   UNL     1      35.051 -21.007 -19.195  0.00  0.00    +0.251 C 
ATOM      6  C   UNL     1      35.155 -18.388 -22.720  0.00  0.00    +0.046 C 
ATOM      7  C   UNL     1      35.944 -19.370 -20.918  0.00  0.00    +0.153 C 
ATOM      8  C   UNL     1      34.797 -19.266 -21.727  0.00  0.00    +0.048 C 
ATOM      9  H   UNL     1      36.896 -20.157 -19.287  0.00  0.00    +0.157 HD
ATOM     10  H   UNL     1      36.956 -17.405 -23.016  0.00  0.00    +0.174 HD
ENDROOT
BRANCH   5  16
ATOM     11  C   UNL     1      36.210 -23.155 -15.723  0.00  0.00    +0.048 C 
ATOM     12  C   UNL     1      34.921 -23.301 -16.236  0.00  0.00    +0.015 C 
ATOM     13  C   UNL     1      37.119 -22.304 -16.352  0.00  0.00    +0.015 C 
ATOM     14  C   UNL     1      34.540 -22.595 -17.376  0.00  0.00    +0.006 C 
ATOM     15  C   UNL     1      36.738 -21.599 -17.493  0.00  0.00    +0.006 C 
ATOM     16  C   UNL     1      35.449 -21.744 -18.006  0.00  0.00    +0.054 C 
BRANCH  11  17
ATOM     17  N   UNL     1      36.594 -23.863 -14.578  0.00  0.00    -0.312 N 
ATOM     18  N   UNL     1      37.447 -25.102 -12.158  0.00  0.00    +0.389 N 
ATOM     19  C   UNL     1      38.038 -25.504 -13.438  0.00  0.00    -0.042 C 
ATOM     20  C   UNL     1      36.041 -24.724 -12.333  0.00  0.00    -0.042 C 
ATOM     21  C   UNL     1      37.970 -24.355 -14.455  0.00  0.00    +0.069 C 
ATOM     22  C   UNL     1      35.914 -23.549 -13.314  0.00  0.00    +0.069 C 
ATOM     23  C   UNL     1      35.450 -24.356 -10.974  0.00  0.00    -0.022 C 
ATOM     24  C   UNL     1      39.487 -25.932 -13.209  0.00  0.00    -0.022 C 
ATOM     25  H   UNL     1      37.965 -24.304 -11.786  0.00  0.00    -0.084 HD
ATOM     26  H   UNL     1      37.499 -25.888 -11.510  0.00  0.00    -0.084 HD
ENDBRANCH  11  17
ENDBRANCH   5  16
BRANCH   6  27
ATOM     27  C   UNL     1      34.417 -17.856 -23.877  0.00  0.00    +0.047 C 
BRANCH  27  28
ATOM     28  C   UNL     1      34.944 -16.502 -24.415  0.00  0.00    +0.033 C 
BRANCH  28  29
ATOM     29  C   UNL     1      34.401 -15.315 -23.656  0.00  0.00    -0.016 C 
ATOM     30  C   UNL     1      33.989 -14.174 -24.345  0.00  0.00    +0.033 C 
ATOM     31  C   UNL     1      34.308 -15.361 -22.266  0.00  0.00    +0.033 C 
ATOM     32  C   UNL     1      33.806 -14.266 -21.563  0.00  0.00    +0.141 C 
ATOM     33  C   UNL     1      33.486 -13.079 -23.644  0.00  0.00    +0.141 C 
ATOM     34  C   UNL     1      33.395 -13.124 -22.252  0.00  0.00    +0.074 C 
BRANCH  32  35
ATOM     35  O   UNL     1      33.716 -14.309 -20.205  0.00  0.00    -0.471 OA
ATOM     36  C   UNL     1      32.405 -14.282 -19.643  0.00  0.00    +0.252 C 
ENDBRANCH  32  35
BRANCH  33  37
ATOM     37  O   UNL     1      33.084 -11.966 -24.315  0.00  0.00    -0.471 OA
ATOM     38  C   UNL     1      33.140 -10.727 -23.610  0.00  0.00    +0.252 C 
ENDBRANCH  33  37
ENDBRANCH  28  29
ENDBRANCH  27  28
ENDBRANCH   6  27
TORSDOF 7
ENDMDL
MODEL 3
REMARK VINA RESULT:     -12.0      4.135     13.514
REMARK  Name = 51039095
REMARK  7 active torsions:
REMARK  status: ('A' for Active; 'I' for Inactive)
REMARK    1  A    between atoms: C_5  and  C_16
REMARK    2  A    between atoms: C_6  and  C_27
REMARK    3  A    between atoms: C_11  and  N_17
REMARK    4  A    between atoms: C_27  and  C_28
REMARK    5  A    between atoms: C_28  and  C_29
REMARK    6  A    between atoms: C_32  and  O_35
REMARK    7  A    between atoms: C_33  and  O_37
REMARK                            x       y       z     vdW  Elec       q    Type
REMARK                         _______ _______ _______ _____ _____    ______ ____
ROOT
ATOM      1  O   UNL     1      34.051 -13.936 -24.171  0.00  0.00    -0.270 OA
ATOM      2  N   UNL     1      34.239 -13.748 -21.840  0.00  0.00    -0.265 N 
ATOM      3  N   UNL     1      35.208 -16.688 -20.268  0.00  0.00    -0.239 N 
ATOM      4  N   UNL     1      34.861 -15.392 -20.179  0.00  0.00    -0.166 NA
ATOM      5  C   UNL     1      33.974 -13.265 -23.129  0.00  0.00    +0.251 C 
ATOM      6  C   UNL     1      35.211 -17.171 -21.544  0.00  0.00    +0.046 C 
ATOM      7  C   UNL     1      34.637 -15.050 -21.450  0.00  0.00    +0.153 C 
ATOM      8  C   UNL     1      34.839 -16.118 -22.344  0.00  0.00    +0.048 C 
ATOM      9  H   UNL     1      34.134 -13.097 -21.109  0.00  0.00    +0.157 HD
ATOM     10  H   UNL     1      35.440 -17.236 -19.484  0.00  0.00    +0.174 HD
ENDROOT
BRANCH   5  16
ATOM     11  C   UNL     1      32.743  -9.211 -23.374  0.00  0.00    +0.048 C 
ATOM     12  C   UNL     1      31.883 -10.170 -22.838  0.00  0.00    +0.015 C 
ATOM     13  C   UNL     1      34.008  -9.584 -23.830  0.00  0.00    +0.015 C 
ATOM     14  C   UNL     1      32.288 -11.501 -22.757  0.00  0.00    +0.006 C 
ATOM     15  C   UNL     1      34.412 -10.916 -23.749  0.00  0.00    +0.006 C 
ATOM     16  C   UNL     1      33.553 -11.875 -23.212  0.00  0.00    +0.054 C 
BRANCH  11  17
ATOM     17  N   UNL     1      32.338  -7.874 -23.455  0.00  0.00    -0.312 N 
ATOM     18  N   UNL     1      31.303  -5.228 -23.682  0.00  0.00    +0.389 N 
ATOM     19  C   UNL     1      32.425  -5.653 -24.525  0.00  0.00    -0.042 C 
ATOM     20  C   UNL     1      31.364  -5.884 -22.371  0.00  0.00    -0.042 C 
ATOM     21  C   UNL     1      32.397  -7.173 -24.744  0.00  0.00    +0.069 C 
ATOM     22  C   UNL     1      31.300  -7.410 -22.525  0.00  0.00    +0.069 C 
ATOM     23  C   UNL     1      30.208  -5.382 -21.508  0.00  0.00    -0.022 C 
ATOM     24  C   UNL     1      32.353  -4.918 -25.862  0.00  0.00    -0.022 C 
ATOM     25  H   UNL     1      30.426  -5.477 -24.141  0.00  0.00    -0.084 HD
ATOM     26  H   UNL     1      31.357  -4.219 -23.547  0.00  0.00    -0.084 HD
ENDBRANCH  11  17
ENDBRANCH   5  16
BRANCH   6  27
ATOM     27  C   UNL     1      35.564 -18.566 -21.853  0.00  0.00    +0.047 C 
BRANCH  27  28
ATOM     28  C   UNL     1      34.395 -19.574 -21.721  0.00  0.00    +0.033 C 
BRANCH  28  29
ATOM     29  C   UNL     1      34.487 -20.422 -20.474  0.00  0.00    -0.016 C 
ATOM     30  C   UNL     1      33.329 -20.942 -19.897  0.00  0.00    +0.033 C 
ATOM     31  C   UNL     1      35.730 -20.686 -19.902  0.00  0.00    +0.033 C 
ATOM     32  C   UNL     1      35.817 -21.469 -18.751  0.00  0.00    +0.141 C 
ATOM     33  C   UNL     1      33.415 -21.725 -18.746  0.00  0.00    +0.141 C 
ATOM     34  C   UNL     1      34.659 -21.989 -18.173  0.00  0.00    +0.074 C 
BRANCH  32  35
ATOM     35  O   UNL     1      37.031 -21.727 -18.192  0.00  0.00    -0.471 OA
ATOM     36  C   UNL     1      37.085 -21.803 -16.768  0.00  0.00    +0.252 C 
ENDBRANCH  32  35
BRANCH  33  37
ATOM     37  O   UNL     1      32.285 -22.234 -18.182  0.00  0.00    -0.471 OA
ATOM     38  C   UNL     1      32.412 -22.813 -16.884  0.00  0.00    +0.252 C 
ENDBRANCH  33  37
ENDBRANCH  28  29
ENDBRANCH  27  28
ENDBRANCH   6  27
TORSDOF 7
ENDMDL
MODEL 4
REMARK VINA RESULT:     -12.0      4.144     13.554
REMARK  Name = 51039095
REMARK  7 active torsions:
REMARK  status: ('A' for Active; 'I' for Inactive)
REMARK    1  A    between atoms: C_5  and  C_16
REMARK    2  A    between atoms: C_6  and  C_27
REMARK    3  A    between atoms: C_11  and  N_17
REMARK    4  A    between atoms: C_27  and  C_28
REMARK    5  A    between atoms: C_28  and  C_29
REMARK    6  A    between atoms: C_32  and  O_35
REMARK    7  A    between atoms: C_33  and  O_37
REMARK                            x       y       z     vdW  Elec       q    Type
REMARK                         _______ _______ _______ _____ _____    ______ ____
ROOT
ATOM      1  O   UNL     1      34.040 -13.919 -24.185  0.00  0.00    -0.270 OA
ATOM      2  N   UNL     1      34.238 -13.725 -21.855  0.00  0.00    -0.265 N 
ATOM      3  N   UNL     1      35.215 -16.662 -20.280  0.00  0.00    -0.239 N 
ATOM      4  N   UNL     1      34.868 -15.366 -20.193  0.00  0.00    -0.166 NA
ATOM      5  C   UNL     1      33.967 -13.246 -23.144  0.00  0.00    +0.251 C 
ATOM      6  C   UNL     1      35.212 -17.148 -21.556  0.00  0.00    +0.046 C 
ATOM      7  C   UNL     1      34.638 -15.027 -21.464  0.00  0.00    +0.153 C 
ATOM      8  C   UNL     1      34.836 -16.097 -22.357  0.00  0.00    +0.048 C 
ATOM      9  H   UNL     1      34.137 -13.073 -21.125  0.00  0.00    +0.157 HD
ATOM     10  H   UNL     1      35.451 -17.209 -19.497  0.00  0.00    +0.174 HD
ENDROOT
BRANCH   5  16
ATOM     11  C   UNL     1      32.742  -9.190 -23.387  0.00  0.00    +0.048 C 
ATOM     12  C   UNL     1      34.015  -9.561 -23.820  0.00  0.00    +0.015 C 
ATOM     13  C   UNL     1      31.870 -10.151 -22.875  0.00  0.00    +0.015 C 
ATOM     14  C   UNL     1      34.417 -10.894 -23.740  0.00  0.00    +0.006 C 
ATOM     15  C   UNL     1      32.274 -11.485 -22.796  0.00  0.00    +0.006 C 
ATOM     16  C   UNL     1      33.546 -11.856 -23.228  0.00  0.00    +0.054 C 
BRANCH  11  17
ATOM     17  N   UNL     1      32.337  -7.853 -23.467  0.00  0.00    -0.312 N 
ATOM     18  N   UNL     1      31.299  -5.207 -23.686  0.00  0.00    +0.389 N 
ATOM     19  C   UNL     1      32.407  -5.637 -24.546  0.00  0.00    -0.042 C 
ATOM     20  C   UNL     1      31.381  -5.858 -22.374  0.00  0.00    -0.042 C 
ATOM     21  C   UNL     1      32.375  -7.157 -24.758  0.00  0.00    +0.069 C 
ATOM     22  C   UNL     1      31.314  -7.385 -22.521  0.00  0.00    +0.069 C 
ATOM     23  C   UNL     1      30.240  -5.352 -21.494  0.00  0.00    -0.022 C 
ATOM     24  C   UNL     1      32.313  -4.906 -25.885  0.00  0.00    -0.022 C 
ATOM     25  H   UNL     1      30.415  -5.458 -24.129  0.00  0.00    -0.084 HD
ATOM     26  H   UNL     1      31.355  -4.198 -23.557  0.00  0.00    -0.084 HD
ENDBRANCH  11  17
ENDBRANCH   5  16
BRANCH   6  27
ATOM     27  C   UNL     1      35.563 -18.544 -21.863  0.00  0.00    +0.047 C 
BRANCH  27  28
ATOM     28  C   UNL     1      34.393 -19.551 -21.729  0.00  0.00    +0.033 C 
BRANCH  28  29
ATOM     29  C   UNL     1      34.491 -20.405 -20.488  0.00  0.00    -0.016 C 
ATOM     30  C   UNL     1      35.736 -20.663 -19.914  0.00  0.00    +0.033 C 
ATOM     31  C   UNL     1      33.336 -20.934 -19.913  0.00  0.00    +0.033 C 
ATOM     32  C   UNL     1      33.425 -21.723 -18.766  0.00  0.00    +0.141 C 
ATOM     33  C   UNL     1      35.826 -21.451 -18.767  0.00  0.00    +0.141 C 
ATOM     34  C   UNL     1      34.671 -21.982 -18.193  0.00  0.00    +0.074 C 
BRANCH  32  35
ATOM     35  O   UNL     1      32.298 -22.240 -18.205  0.00  0.00    -0.471 OA
ATOM     36  C   UNL     1      32.422 -22.792 -16.895  0.00  0.00    +0.252 C 
ENDBRANCH  32  35
BRANCH  33  37
ATOM     37  O   UNL     1      37.041 -21.703 -18.207  0.00  0.00    -0.471 OA
ATOM     38  C   UNL     1      37.119 -21.666 -16.783  0.00  0.00    +0.252 C 
ENDBRANCH  33  37
ENDBRANCH  28  29
ENDBRANCH  27  28
ENDBRANCH   6  27
TORSDOF 7
ENDMDL
MODEL 5
REMARK VINA RESULT:     -12.0      3.967     13.439
REMARK  Name = 51039095
REMARK  7 active torsions:
REMARK  status: ('A' for Active; 'I' for Inactive)
REMARK    1  A    between atoms: C_5  and  C_16
REMARK    2  A    between atoms: C_6  and  C_27
REMARK    3  A    between atoms: C_11  and  N_17
REMARK    4  A    between atoms: C_27  and  C_28
REMARK    5  A    between atoms: C_28  and  C_29
REMARK    6  A    between atoms: C_32  and  O_35
REMARK    7  A    between atoms: C_33  and  O_37
REMARK                            x       y       z     vdW  Elec       q    Type
REMARK                         _______ _______ _______ _____ _____    ______ ____
ROOT
ATOM      1  O   UNL     1      33.529 -13.845 -20.550  0.00  0.00    -0.270 OA
ATOM      2  N   UNL     1      34.210 -14.226 -22.762  0.00  0.00    -0.265 N 
ATOM      3  N   UNL     1      35.562 -17.380 -23.291  0.00  0.00    -0.239 N 
ATOM      4  N   UNL     1      35.213 -16.178 -23.780  0.00  0.00    -0.166 NA
ATOM      5  C   UNL     1      33.663 -13.462 -21.723  0.00  0.00    +0.251 C 
ATOM      6  C   UNL     1      35.299 -17.532 -21.961  0.00  0.00    +0.046 C 
ATOM      7  C   UNL     1      34.712 -15.550 -22.713  0.00  0.00    +0.153 C 
ATOM      8  C   UNL     1      34.741 -16.345 -21.552  0.00  0.00    +0.048 C 
ATOM      9  H   UNL     1      34.252 -13.786 -23.642  0.00  0.00    +0.157 HD
ATOM     10  H   UNL     1      35.968 -18.087 -23.843  0.00  0.00    +0.174 HD
ENDROOT
BRANCH   5  16
ATOM     11  C   UNL     1      32.478  -9.519 -22.753  0.00  0.00    +0.048 C 
ATOM     12  C   UNL     1      33.405 -10.197 -23.544  0.00  0.00    +0.015 C 
ATOM     13  C   UNL     1      31.938 -10.136 -21.624  0.00  0.00    +0.015 C 
ATOM     14  C   UNL     1      33.794 -11.493 -23.205  0.00  0.00    +0.006 C 
ATOM     15  C   UNL     1      32.328 -11.432 -21.287  0.00  0.00    +0.006 C 
ATOM     16  C   UNL     1      33.255 -12.111 -22.076  0.00  0.00    +0.054 C 
BRANCH  11  17
ATOM     17  N   UNL     1      32.086  -8.219 -23.092  0.00  0.00    -0.312 N 
ATOM     18  N   UNL     1      31.500  -5.500 -23.714  0.00  0.00    +0.389 N 
ATOM     19  C   UNL     1      30.697  -6.216 -22.717  0.00  0.00    -0.042 C 
ATOM     20  C   UNL     1      31.950  -6.414 -24.768  0.00  0.00    -0.042 C 
ATOM     21  C   UNL     1      31.514  -7.341 -22.065  0.00  0.00    +0.069 C 
ATOM     22  C   UNL     1      32.808  -7.542 -24.178  0.00  0.00    +0.069 C 
ATOM     23  C   UNL     1      32.742  -5.625 -25.809  0.00  0.00    -0.022 C 
ATOM     24  C   UNL     1      30.211  -5.225 -21.661  0.00  0.00    -0.022 C 
ATOM     25  H   UNL     1      32.314  -5.090 -23.256  0.00  0.00    -0.084 HD
ATOM     26  H   UNL     1      30.926  -4.769 -24.134  0.00  0.00    -0.084 HD
ENDBRANCH  11  17
ENDBRANCH   5  16
BRANCH   6  27
ATOM     27  C   UNL     1      35.607 -18.775 -21.237  0.00  0.00    +0.047 C 
BRANCH  27  28
ATOM     28  C   UNL     1      34.454 -19.810 -21.206  0.00  0.00    +0.033 C 
BRANCH  28  29
ATOM     29  C   UNL     1      34.499 -20.705 -19.991  0.00  0.00    -0.016 C 
ATOM     30  C   UNL     1      33.317 -21.219 -19.458  0.00  0.00    +0.033 C 
ATOM     31  C   UNL     1      35.724 -21.020 -19.403  0.00  0.00    +0.033 C 
ATOM     32  C   UNL     1      35.768 -21.848 -18.281  0.00  0.00    +0.141 C 
ATOM     33  C   UNL     1      33.360 -22.047 -18.337  0.00  0.00    +0.141 C 
ATOM     34  C   UNL     1      34.585 -22.361 -17.748  0.00  0.00    +0.074 C 
BRANCH  32  35
ATOM     35  O   UNL     1      36.963 -22.156 -17.707  0.00  0.00    -0.471 OA
ATOM     36  C   UNL     1      37.094 -21.903 -16.309  0.00  0.00    +0.252 C 
ENDBRANCH  32  35
BRANCH  33  37
ATOM     37  O   UNL     1      32.207 -22.550 -17.816  0.00  0.00    -0.471 OA
ATOM     38  C   UNL     1      32.252 -23.012 -16.467  0.00  0.00    +0.252 C 
ENDBRANCH  33  37
ENDBRANCH  28  29
ENDBRANCH  27  28
ENDBRANCH   6  27
TORSDOF 7
ENDMDL
MODEL 6
REMARK VINA RESULT:     -12.0      3.965     13.443
REMARK  Name = 51039095
REMARK  7 active torsions:
REMARK  status: ('A' for Active; 'I' for Inactive)
REMARK    1  A    between atoms: C_5  and  C_16
REMARK    2  A    between atoms: C_6  and  C_27
REMARK    3  A    between atoms: C_11  and  N_17
REMARK    4  A    between atoms: C_27  and  C_28
REMARK    5  A    between atoms: C_28  and  C_29
REMARK    6  A    between atoms: C_32  and  O_35
REMARK    7  A    between atoms: C_33  and  O_37
REMARK                            x       y       z     vdW  Elec       q    Type
REMARK                         _______ _______ _______ _____ _____    ______ ____
ROOT
ATOM      1  O   UNL     1      33.495 -13.863 -20.559  0.00  0.00    -0.270 OA
ATOM      2  N   UNL     1      34.222 -14.227 -22.760  0.00  0.00    -0.265 N 
ATOM      3  N   UNL     1      35.592 -17.373 -23.286  0.00  0.00    -0.239 N 
ATOM      4  N   UNL     1      35.250 -16.168 -23.772  0.00  0.00    -0.166 NA
ATOM      5  C   UNL     1      33.651 -13.471 -21.726  0.00  0.00    +0.251 C 
ATOM      6  C   UNL     1      35.303 -17.535 -21.962  0.00  0.00    +0.046 C 
ATOM      7  C   UNL     1      34.726 -15.550 -22.711  0.00  0.00    +0.153 C 
ATOM      8  C   UNL     1      34.733 -16.353 -21.555  0.00  0.00    +0.048 C 
ATOM      9  H   UNL     1      34.280 -13.780 -23.636  0.00  0.00    +0.157 HD
ATOM     10  H   UNL     1      36.011 -18.075 -23.834  0.00  0.00    +0.174 HD
ENDROOT
BRANCH   5  16
ATOM     11  C   UNL     1      32.477  -9.523 -22.751  0.00  0.00    +0.048 C 
ATOM     12  C   UNL     1      33.406 -10.202 -23.541  0.00  0.00    +0.015 C 
ATOM     13  C   UNL     1      31.933 -10.142 -21.625  0.00  0.00    +0.015 C 
ATOM     14  C   UNL     1      33.791 -11.499 -23.204  0.00  0.00    +0.006 C 
ATOM     15  C   UNL     1      32.319 -11.440 -21.289  0.00  0.00    +0.006 C 
ATOM     16  C   UNL     1      33.247 -12.119 -22.078  0.00  0.00    +0.054 C 
BRANCH  11  17
ATOM     17  N   UNL     1      32.089  -8.222 -23.088  0.00  0.00    -0.312 N 
ATOM     18  N   UNL     1      31.510  -5.500 -23.706  0.00  0.00    +0.389 N 
ATOM     19  C   UNL     1      30.704  -6.216 -22.710  0.00  0.00    -0.042 C 
ATOM     20  C   UNL     1      31.958  -6.414 -24.761  0.00  0.00    -0.042 C 
ATOM     21  C   UNL     1      31.519  -7.344 -22.059  0.00  0.00    +0.069 C 
ATOM     22  C   UNL     1      32.813  -7.546 -24.173  0.00  0.00    +0.069 C 
ATOM     23  C   UNL     1      32.752  -5.625 -25.800  0.00  0.00    -0.022 C 
ATOM     24  C   UNL     1      30.220  -5.226 -21.653  0.00  0.00    -0.022 C 
ATOM     25  H   UNL     1      32.325  -5.093 -23.246  0.00  0.00    -0.084 HD
ATOM     26  H   UNL     1      30.938  -4.768 -24.125  0.00  0.00    -0.084 HD
ENDBRANCH  11  17
ENDBRANCH   5  16
BRANCH   6  27
ATOM     27  C   UNL     1      35.600 -18.783 -21.241  0.00  0.00    +0.047 C 
BRANCH  27  28
ATOM     28  C   UNL     1      34.425 -19.792 -21.181  0.00  0.00    +0.033 C 
BRANCH  28  29
ATOM     29  C   UNL     1      34.490 -20.700 -19.976  0.00  0.00    -0.016 C 
ATOM     30  C   UNL     1      35.721 -21.001 -19.394  0.00  0.00    +0.033 C 
ATOM     31  C   UNL     1      33.318 -21.236 -19.445  0.00  0.00    +0.033 C 
ATOM     32  C   UNL     1      33.376 -22.074 -18.331  0.00  0.00    +0.141 C 
ATOM     33  C   UNL     1      35.780 -21.838 -18.281  0.00  0.00    +0.141 C 
ATOM     34  C   UNL     1      34.608 -22.375 -17.749  0.00  0.00    +0.074 C 
BRANCH  32  35
ATOM     35  O   UNL     1      32.232 -22.597 -17.811  0.00  0.00    -0.471 OA
ATOM     36  C   UNL     1      32.277 -23.029 -16.452  0.00  0.00    +0.252 C 
ENDBRANCH  32  35
BRANCH  33  37
ATOM     37  O   UNL     1      36.981 -22.131 -17.712  0.00  0.00    -0.471 OA
ATOM     38  C   UNL     1      37.106 -21.909 -16.307  0.00  0.00    +0.252 C 
ENDBRANCH  33  37
ENDBRANCH  28  29
ENDBRANCH  27  28
ENDBRANCH   6  27
TORSDOF 7
ENDMDL
MODEL 7
REMARK VINA RESULT:     -11.3      0.495      1.741
REMARK  Name = 51039095
REMARK  7 active torsions:
REMARK  status: ('A' for Active; 'I' for Inactive)
REMARK    1  A    between atoms: C_5  and  C_16
REMARK    2  A    between atoms: C_6  and  C_27
REMARK    3  A    between atoms: C_11  and  N_17
REMARK    4  A    between atoms: C_27  and  C_28
REMARK    5  A    between atoms: C_28  and  C_29
REMARK    6  A    between atoms: C_32  and  O_35
REMARK    7  A    between atoms: C_33  and  O_37
REMARK                            x       y       z     vdW  Elec       q    Type
REMARK                         _______ _______ _______ _____ _____    ______ ____
ROOT
ATOM      1  O   UNL     1      33.936 -21.201 -19.759  0.00  0.00    -0.270 OA
ATOM      2  N   UNL     1      36.001 -20.091 -19.839  0.00  0.00    -0.265 N 
ATOM      3  N   UNL     1      36.343 -17.956 -22.555  0.00  0.00    -0.239 N 
ATOM      4  N   UNL     1      36.863 -18.496 -21.440  0.00  0.00    -0.166 NA
ATOM      5  C   UNL     1      35.060 -20.970 -19.285  0.00  0.00    +0.251 C 
ATOM      6  C   UNL     1      35.082 -18.391 -22.842  0.00  0.00    +0.046 C 
ATOM      7  C   UNL     1      35.889 -19.302 -21.010  0.00  0.00    +0.153 C 
ATOM      8  C   UNL     1      34.756 -19.277 -21.844  0.00  0.00    +0.048 C 
ATOM      9  H   UNL     1      36.852 -20.011 -19.350  0.00  0.00    +0.157 HD
ATOM     10  H   UNL     1      36.827 -17.305 -23.113  0.00  0.00    +0.174 HD
ENDROOT
BRANCH   5  16
ATOM     11  C   UNL     1      36.277 -23.008 -15.767  0.00  0.00    +0.048 C 
ATOM     12  C   UNL     1      37.187 -22.211 -16.462  0.00  0.00    +0.015 C 
ATOM     13  C   UNL     1      34.966 -23.134 -16.227  0.00  0.00    +0.015 C 
ATOM     14  C   UNL     1      36.787 -21.541 -17.618  0.00  0.00    +0.006 C 
ATOM     15  C   UNL     1      34.567 -22.464 -17.384  0.00  0.00    +0.006 C 
ATOM     16  C   UNL     1      35.476 -21.667 -18.079  0.00  0.00    +0.054 C 
BRANCH  11  17
ATOM     17  N   UNL     1      36.677 -23.680 -14.607  0.00  0.00    -0.312 N 
ATOM     18  N   UNL     1      37.430 -25.247 -12.349  0.00  0.00    +0.389 N 
ATOM     19  C   UNL     1      36.390 -24.222 -12.218  0.00  0.00    -0.042 C 
ATOM     20  C   UNL     1      38.441 -24.836 -13.328  0.00  0.00    -0.042 C 
ATOM     21  C   UNL     1      35.690 -23.981 -13.564  0.00  0.00    +0.069 C 
ATOM     22  C   UNL     1      37.804 -24.617 -14.707  0.00  0.00    +0.069 C 
ATOM     23  C   UNL     1      39.529 -25.906 -13.402  0.00  0.00    -0.022 C 
ATOM     24  C   UNL     1      35.380 -24.665 -11.160  0.00  0.00    -0.022 C 
ATOM     25  H   UNL     1      37.001 -26.121 -12.656  0.00  0.00    -0.084 HD
ATOM     26  H   UNL     1      37.881 -25.375 -11.443  0.00  0.00    -0.084 HD
ENDBRANCH  11  17
ENDBRANCH   5  16
BRANCH   6  27
ATOM     27  C   UNL     1      34.338 -17.918 -24.020  0.00  0.00    +0.047 C 
BRANCH  27  28
ATOM     28  C   UNL     1      34.861 -16.592 -24.628  0.00  0.00    +0.033 C 
BRANCH  28  29
ATOM     29  C   UNL     1      34.382 -15.372 -23.879  0.00  0.00    -0.016 C 
ATOM     30  C   UNL     1      34.325 -15.386 -22.485  0.00  0.00    +0.033 C 
ATOM     31  C   UNL     1      34.000 -14.230 -24.581  0.00  0.00    +0.033 C 
ATOM     32  C   UNL     1      33.558 -13.101 -23.890  0.00  0.00    +0.141 C 
ATOM     33  C   UNL     1      33.884 -14.258 -21.794  0.00  0.00    +0.141 C 
ATOM     34  C   UNL     1      33.500 -13.116 -22.496  0.00  0.00    +0.074 C 
BRANCH  32  35
ATOM     35  O   UNL     1      33.184 -11.985 -24.575  0.00  0.00    -0.471 OA
ATOM     36  C   UNL     1      32.977 -10.797 -23.813  0.00  0.00    +0.252 C 
ENDBRANCH  32  35
BRANCH  33  37
ATOM     37  O   UNL     1      33.828 -14.271 -20.434  0.00  0.00    -0.471 OA
ATOM     38  C   UNL     1      34.603 -15.263 -19.762  0.00  0.00    +0.252 C 
ENDBRANCH  33  37
ENDBRANCH  28  29
ENDBRANCH  27  28
ENDBRANCH   6  27
TORSDOF 7
ENDMDL
MODEL 8
REMARK VINA RESULT:     -10.9      4.457     13.839
REMARK  Name = 51039095
REMARK  7 active torsions:
REMARK  status: ('A' for Active; 'I' for Inactive)
REMARK    1  A    between atoms: C_5  and  C_16
REMARK    2  A    between atoms: C_6  and  C_27
REMARK    3  A    between atoms: C_11  and  N_17
REMARK    4  A    between atoms: C_27  and  C_28
REMARK    5  A    between atoms: C_28  and  C_29
REMARK    6  A    between atoms: C_32  and  O_35
REMARK    7  A    between atoms: C_33  and  O_37
REMARK                            x       y       z     vdW  Elec       q    Type
REMARK                         _______ _______ _______ _____ _____    ______ ____
ROOT
ATOM      1  O   UNL     1      34.068 -13.100 -24.393  0.00  0.00    -0.270 OA
ATOM      2  N   UNL     1      34.125 -13.069 -22.048  0.00  0.00    -0.265 N 
ATOM      3  N   UNL     1      34.989 -16.115 -20.623  0.00  0.00    -0.239 N 
ATOM      4  N   UNL     1      34.644 -14.826 -20.468  0.00  0.00    -0.166 NA
ATOM      5  C   UNL     1      33.936 -12.500 -23.315  0.00  0.00    +0.251 C 
ATOM      6  C   UNL     1      35.061 -16.513 -21.927  0.00  0.00    +0.046 C 
ATOM      7  C   UNL     1      34.494 -14.398 -21.724  0.00  0.00    +0.153 C 
ATOM      8  C   UNL     1      34.740 -15.406 -22.675  0.00  0.00    +0.048 C 
ATOM      9  H   UNL     1      33.983 -12.467 -21.282  0.00  0.00    +0.157 HD
ATOM     10  H   UNL     1      35.173 -16.717 -19.867  0.00  0.00    +0.174 HD
ENDROOT
BRANCH   5  16
ATOM     11  C   UNL     1      32.744  -8.427 -23.358  0.00  0.00    +0.048 C 
ATOM     12  C   UNL     1      31.790  -9.431 -23.188  0.00  0.00    +0.015 C 
ATOM     13  C   UNL     1      34.089  -8.760 -23.512  0.00  0.00    +0.015 C 
ATOM     14  C   UNL     1      32.182 -10.769 -23.174  0.00  0.00    +0.006 C 
ATOM     15  C   UNL     1      34.481 -10.099 -23.498  0.00  0.00    +0.006 C 
ATOM     16  C   UNL     1      33.528 -11.104 -23.328  0.00  0.00    +0.054 C 
BRANCH  11  17
ATOM     17  N   UNL     1      32.352  -7.083 -23.372  0.00  0.00    -0.312 N 
ATOM     18  N   UNL     1      31.756  -4.297 -23.297  0.00  0.00    +0.389 N 
ATOM     19  C   UNL     1      30.883  -5.255 -22.610  0.00  0.00    -0.042 C 
ATOM     20  C   UNL     1      32.325  -4.894 -24.509  0.00  0.00    -0.042 C 
ATOM     21  C   UNL     1      31.665  -6.514 -22.207  0.00  0.00    +0.069 C 
ATOM     22  C   UNL     1      33.153  -6.140 -24.163  0.00  0.00    +0.069 C 
ATOM     23  C   UNL     1      33.189  -3.854 -25.220  0.00  0.00    -0.022 C 
ATOM     24  C   UNL     1      30.276  -4.585 -21.378  0.00  0.00    -0.022 C 
ATOM     25  H   UNL     1      32.514  -4.026 -22.670  0.00  0.00    -0.084 HD
ATOM     26  H   UNL     1      31.205  -3.480 -23.559  0.00  0.00    -0.084 HD
ENDBRANCH  11  17
ENDBRANCH   5  16
BRANCH   6  27
ATOM     27  C   UNL     1      35.423 -17.887 -22.308  0.00  0.00    +0.047 C 
BRANCH  27  28
ATOM     28  C   UNL     1      36.519 -18.537 -21.428  0.00  0.00    +0.033 C 
BRANCH  28  29
ATOM     29  C   UNL     1      35.978 -19.601 -20.503  0.00  0.00    -0.016 C 
ATOM     30  C   UNL     1      36.841 -20.293 -19.653  0.00  0.00    +0.033 C 
ATOM     31  C   UNL     1      34.614 -19.891 -20.498  0.00  0.00    +0.033 C 
ATOM     32  C   UNL     1      34.112 -20.873 -19.644  0.00  0.00    +0.141 C 
ATOM     33  C   UNL     1      36.340 -21.274 -18.798  0.00  0.00    +0.141 C 
ATOM     34  C   UNL     1      34.976 -21.565 -18.794  0.00  0.00    +0.074 C 
BRANCH  32  35
ATOM     35  O   UNL     1      32.781 -21.156 -19.638  0.00  0.00    -0.471 OA
ATOM     36  C   UNL     1      32.233 -21.667 -18.424  0.00  0.00    +0.252 C 
ENDBRANCH  32  35
BRANCH  33  37
ATOM     37  O   UNL     1      37.181 -21.948 -17.968  0.00  0.00    -0.471 OA
ATOM     38  C   UNL     1      36.951 -21.819 -16.565  0.00  0.00    +0.252 C 
ENDBRANCH  33  37
ENDBRANCH  28  29
ENDBRANCH  27  28
ENDBRANCH   6  27
TORSDOF 7
ENDMDL
MODEL 9
REMARK VINA RESULT:     -10.8      1.608      2.784
REMARK  Name = 51039095
REMARK  7 active torsions:
REMARK  status: ('A' for Active; 'I' for Inactive)
REMARK    1  A    between atoms: C_5  and  C_16
REMARK    2  A    between atoms: C_6  and  C_27
REMARK    3  A    between atoms: C_11  and  N_17
REMARK    4  A    between atoms: C_27  and  C_28
REMARK    5  A    between atoms: C_28  and  C_29
REMARK    6  A    between atoms: C_32  and  O_35
REMARK    7  A    between atoms: C_33  and  O_37
REMARK                            x       y       z     vdW  Elec       q    Type
REMARK                         _______ _______ _______ _____ _____    ______ ____
ROOT
ATOM      1  O   UNL     1      34.721 -20.406 -21.863  0.00  0.00    -0.270 OA
ATOM      2  N   UNL     1      35.160 -18.500 -20.567  0.00  0.00    -0.265 N 
ATOM      3  N   UNL     1      35.159 -15.538 -22.380  0.00  0.00    -0.239 N 
ATOM      4  N   UNL     1      35.300 -16.170 -21.201  0.00  0.00    -0.166 NA
ATOM      5  C   UNL     1      34.974 -19.874 -20.770  0.00  0.00    +0.251 C 
ATOM      6  C   UNL     1      34.881 -16.374 -23.423  0.00  0.00    +0.046 C 
ATOM      7  C   UNL     1      35.104 -17.452 -21.519  0.00  0.00    +0.153 C 
ATOM      8  C   UNL     1      34.839 -17.639 -22.889  0.00  0.00    +0.048 C 
ATOM      9  H   UNL     1      35.355 -18.226 -19.642  0.00  0.00    +0.157 HD
ATOM     10  H   UNL     1      35.246 -14.563 -22.480  0.00  0.00    +0.174 HD
ENDROOT
BRANCH   5  16
ATOM     11  C   UNL     1      35.402 -22.325 -17.331  0.00  0.00    +0.048 C 
ATOM     12  C   UNL     1      34.171 -22.248 -17.984  0.00  0.00    +0.015 C 
ATOM     13  C   UNL     1      36.492 -21.597 -17.808  0.00  0.00    +0.015 C 
ATOM     14  C   UNL     1      34.031 -21.443 -19.114  0.00  0.00    +0.006 C 
ATOM     15  C   UNL     1      36.351 -20.792 -18.939  0.00  0.00    +0.006 C 
ATOM     16  C   UNL     1      35.121 -20.715 -19.592  0.00  0.00    +0.054 C 
BRANCH  11  17
ATOM     17  N   UNL     1      35.544 -23.132 -16.197  0.00  0.00    -0.312 N 
ATOM     18  N   UNL     1      35.796 -24.587 -13.759  0.00  0.00    +0.389 N 
ATOM     19  C   UNL     1      36.919 -24.529 -14.701  0.00  0.00    -0.042 C 
ATOM     20  C   UNL     1      34.518 -24.574 -14.478  0.00  0.00    -0.042 C 
ATOM     21  C   UNL     1      36.855 -23.250 -15.548  0.00  0.00    +0.069 C 
ATOM     22  C   UNL     1      34.380 -23.294 -15.316  0.00  0.00    +0.069 C 
ATOM     23  C   UNL     1      33.377 -24.681 -13.469  0.00  0.00    -0.022 C 
ATOM     24  C   UNL     1      38.231 -24.588 -13.919  0.00  0.00    -0.022 C 
ATOM     25  H   UNL     1      35.839 -23.779 -13.137  0.00  0.00    -0.084 HD
ATOM     26  H   UNL     1      35.863 -25.450 -13.221  0.00  0.00    -0.084 HD
ENDBRANCH  11  17
ENDBRANCH   5  16
BRANCH   6  27
ATOM     27  C   UNL     1      34.691 -15.878 -24.795  0.00  0.00    +0.047 C 
BRANCH  27  28
ATOM     28  C   UNL     1      33.380 -15.083 -25.020  0.00  0.00    +0.033 C 
BRANCH  28  29
ATOM     29  C   UNL     1      33.271 -13.864 -24.136  0.00  0.00    -0.016 C 
ATOM     30  C   UNL     1      33.969 -12.700 -24.461  0.00  0.00    +0.033 C 
ATOM     31  C   UNL     1      32.471 -13.900 -22.995  0.00  0.00    +0.033 C 
ATOM     32  C   UNL     1      32.369 -12.775 -22.177  0.00  0.00    +0.141 C 
ATOM     33  C   UNL     1      33.867 -11.575 -23.645  0.00  0.00    +0.141 C 
ATOM     34  C   UNL     1      33.068 -11.612 -22.502  0.00  0.00    +0.074 C 
BRANCH  32  35
ATOM     35  O   UNL     1      31.588 -12.810 -21.063  0.00  0.00    -0.471 OA
ATOM     36  C   UNL     1      32.148 -13.414 -19.898  0.00  0.00    +0.252 C 
ENDBRANCH  32  35
BRANCH  33  37
ATOM     37  O   UNL     1      34.547 -10.439 -23.962  0.00  0.00    -0.471 OA
ATOM     38  C   UNL     1      34.074  -9.219 -23.393  0.00  0.00    +0.252 C 
ENDBRANCH  33  37
ENDBRANCH  28  29
ENDBRANCH  27  28
ENDBRANCH   6  27
TORSDOF 7
ENDMDL
