MODEL 1
REMARK VINA RESULT:     -11.6      0.000      0.000
REMARK  Name = 2929
REMARK  5 active torsions:
REMARK  status: ('A' for Active; 'I' for Inactive)
REMARK    1  A    between atoms: N_1  and  C_22
REMARK    2  A    between atoms: C_4  and  C_11
REMARK    3  A    between atoms: C_11  and  C_14
REMARK    4  A    between atoms: N_13  and  C_17
REMARK    5  A    between atoms: C_22  and  C_24
REMARK                            x       y       z     vdW  Elec       q    Type
REMARK                         _______ _______ _______ _____ _____    ______ ____
ROOT
ATOM      1  N   UNL     1      34.058 -23.622 -14.493  0.00  0.00    -0.281 N 
ATOM      2  C   UNL     1      32.702 -23.386 -14.541  0.00  0.00    +0.052 C 
ATOM      3  C   UNL     1      32.362 -23.214 -15.885  0.00  0.00    +0.018 C 
ATOM      4  C   UNL     1      33.560 -23.353 -16.640  0.00  0.00    +0.060 C 
ATOM      5  C   UNL     1      34.585 -23.604 -15.757  0.00  0.00    +0.069 C 
ATOM      6  C   UNL     1      31.762 -23.315 -13.508  0.00  0.00    +0.015 C 
ATOM      7  C   UNL     1      31.017 -22.955 -16.215  0.00  0.00    +0.001 C 
ATOM      8  C   UNL     1      30.434 -23.058 -13.860  0.00  0.00    +0.001 C 
ATOM      9  C   UNL     1      30.065 -22.882 -15.192  0.00  0.00    +0.000 C 
ENDROOT
BRANCH   4  11
ATOM     10  O   UNL     1      33.842 -24.233 -18.828  0.00  0.00    -0.282 OA
ATOM     11  C   UNL     1      33.726 -23.261 -18.063  0.00  0.00    +0.250 C 
BRANCH  11  14
ATOM     12  O   UNL     1      32.760 -21.284 -18.840  0.00  0.00    -0.266 OA
ATOM     13  N   UNL     1      35.051 -21.688 -19.287  0.00  0.00    -0.278 N 
ATOM     14  C   UNL     1      33.790 -21.934 -18.789  0.00  0.00    +0.289 C 
ATOM     15  H   UNL     1      35.734 -22.377 -19.117  0.00  0.00    +0.155 HD
BRANCH  13  17
ATOM     16  N   UNL     1      36.293 -18.314 -21.440  0.00  0.00    -0.242 NA
ATOM     17  C   UNL     1      35.471 -20.550 -20.014  0.00  0.00    +0.054 C 
ATOM     18  C   UNL     1      34.576 -19.911 -20.849  0.00  0.00    +0.035 C 
ATOM     19  C   UNL     1      36.767 -20.096 -19.876  0.00  0.00    +0.035 C 
ATOM     20  C   UNL     1      35.035 -18.800 -21.539  0.00  0.00    +0.100 C 
ATOM     21  C   UNL     1      37.129 -18.977 -20.609  0.00  0.00    +0.100 C 
ENDBRANCH  13  17
ENDBRANCH  11  14
ENDBRANCH   4  11
BRANCH   1  22
ATOM     22  C   UNL     1      34.830 -23.856 -13.292  0.00  0.00    +0.122 C 
BRANCH  22  24
ATOM     23 CL   UNL     1      40.335 -25.870 -14.582  0.00  0.00    -0.082 Cl
ATOM     24  C   UNL     1      36.211 -24.361 -13.616  0.00  0.00    -0.002 C 
ATOM     25  C   UNL     1      36.540 -25.680 -13.332  0.00  0.00    -0.002 C 
ATOM     26  C   UNL     1      37.135 -23.502 -14.194  0.00  0.00    -0.002 C 
ATOM     27  C   UNL     1      37.820 -26.147 -13.632  0.00  0.00    +0.011 C 
ATOM     28  C   UNL     1      38.414 -23.970 -14.493  0.00  0.00    +0.011 C 
ATOM     29  C   UNL     1      38.757 -25.293 -14.213  0.00  0.00    +0.058 C 
ENDBRANCH  22  24
ENDBRANCH   1  22
TORSDOF 5
ENDMDL
MODEL 2
REMARK VINA RESULT:     -10.8      3.042      5.495
REMARK  Name = 2929
REMARK  5 active torsions:
REMARK  status: ('A' for Active; 'I' for Inactive)
REMARK    1  A    between atoms: N_1  and  C_22
REMARK    2  A    between atoms: C_4  and  C_11
REMARK    3  A    between atoms: C_11  and  C_14
REMARK    4  A    between atoms: N_13  and  C_17
REMARK    5  A    between atoms: C_22  and  C_24
REMARK                            x       y       z     vdW  Elec       q    Type
REMARK                         _______ _______ _______ _____ _____    ______ ____
ROOT
ATOM      1  N   UNL     1      32.828 -23.814 -15.121  0.00  0.00    -0.281 N 
ATOM      2  C   UNL     1      34.139 -23.494 -14.846  0.00  0.00    +0.052 C 
ATOM      3  C   UNL     1      34.750 -23.184 -16.062  0.00  0.00    +0.018 C 
ATOM      4  C   UNL     1      33.763 -23.329 -17.076  0.00  0.00    +0.060 C 
ATOM      5  C   UNL     1      32.591 -23.717 -16.466  0.00  0.00    +0.069 C 
ATOM      6  C   UNL     1      34.821 -23.456 -13.625  0.00  0.00    +0.015 C 
ATOM      7  C   UNL     1      36.111 -22.818 -16.062  0.00  0.00    +0.001 C 
ATOM      8  C   UNL     1      36.170 -23.090 -13.650  0.00  0.00    +0.001 C 
ATOM      9  C   UNL     1      36.807 -22.775 -14.849  0.00  0.00    +0.000 C 
ENDROOT
BRANCH   4  11
ATOM     10  O   UNL     1      34.027 -24.026 -19.331  0.00  0.00    -0.282 OA
ATOM     11  C   UNL     1      33.905 -23.120 -18.489  0.00  0.00    +0.250 C 
BRANCH  11  14
ATOM     12  O   UNL     1      32.942 -21.048 -18.962  0.00  0.00    -0.266 OA
ATOM     13  N   UNL     1      35.128 -21.499 -19.756  0.00  0.00    -0.278 N 
ATOM     14  C   UNL     1      33.935 -21.739 -19.108  0.00  0.00    +0.289 C 
ATOM     15  H   UNL     1      35.793 -22.225 -19.739  0.00  0.00    +0.155 HD
BRANCH  13  17
ATOM     16  N   UNL     1      36.232 -18.004 -21.788  0.00  0.00    -0.242 NA
ATOM     17  C   UNL     1      35.500 -20.319 -20.441  0.00  0.00    +0.054 C 
ATOM     18  C   UNL     1      36.758 -19.786 -20.241  0.00  0.00    +0.035 C 
ATOM     19  C   UNL     1      34.600 -19.720 -21.299  0.00  0.00    +0.035 C 
ATOM     20  C   UNL     1      37.075 -18.630 -20.937  0.00  0.00    +0.100 C 
ATOM     21  C   UNL     1      35.012 -18.567 -21.947  0.00  0.00    +0.100 C 
ENDBRANCH  13  17
ENDBRANCH  11  14
ENDBRANCH   4  11
BRANCH   1  22
ATOM     22  C   UNL     1      31.832 -24.199 -14.144  0.00  0.00    +0.122 C 
BRANCH  22  24
ATOM     23 CL   UNL     1      26.359 -22.318 -15.735  0.00  0.00    -0.082 Cl
ATOM     24  C   UNL     1      30.460 -23.727 -14.544  0.00  0.00    -0.002 C 
ATOM     25  C   UNL     1      30.069 -22.429 -14.245  0.00  0.00    -0.002 C 
ATOM     26  C   UNL     1      29.604 -24.596 -15.206  0.00  0.00    -0.002 C 
ATOM     27  C   UNL     1      28.797 -21.992 -14.615  0.00  0.00    +0.011 C 
ATOM     28  C   UNL     1      28.332 -24.159 -15.574  0.00  0.00    +0.011 C 
ATOM     29  C   UNL     1      27.929 -22.857 -15.280  0.00  0.00    +0.058 C 
ENDBRANCH  22  24
ENDBRANCH   1  22
TORSDOF 5
ENDMDL
MODEL 3
REMARK VINA RESULT:     -10.4      3.500      7.256
REMARK  Name = 2929
REMARK  5 active torsions:
REMARK  status: ('A' for Active; 'I' for Inactive)
REMARK    1  A    between atoms: N_1  and  C_22
REMARK    2  A    between atoms: C_4  and  C_11
REMARK    3  A    between atoms: C_11  and  C_14
REMARK    4  A    between atoms: N_13  and  C_17
REMARK    5  A    between atoms: C_22  and  C_24
REMARK                            x       y       z     vdW  Elec       q    Type
REMARK                         _______ _______ _______ _____ _____    ______ ____
ROOT
ATOM      1  N   UNL     1      36.933 -23.135 -15.031  0.00  0.00    -0.281 N 
ATOM      2  C   UNL     1      37.700 -24.132 -14.471  0.00  0.00    +0.052 C 
ATOM      3  C   UNL     1      36.938 -24.719 -13.459  0.00  0.00    +0.018 C 
ATOM      4  C   UNL     1      35.688 -24.040 -13.431  0.00  0.00    +0.060 C 
ATOM      5  C   UNL     1      35.715 -23.072 -14.409  0.00  0.00    +0.069 C 
ATOM      6  C   UNL     1      38.998 -24.554 -14.782  0.00  0.00    +0.015 C 
ATOM      7  C   UNL     1      37.497 -25.779 -12.719  0.00  0.00    +0.001 C 
ATOM      8  C   UNL     1      39.531 -25.608 -14.034  0.00  0.00    +0.001 C 
ATOM      9  C   UNL     1      38.794 -26.212 -13.018  0.00  0.00    +0.000 C 
ENDROOT
BRANCH   4  11
ATOM     10  O   UNL     1      34.627 -24.888 -11.482  0.00  0.00    -0.282 OA
ATOM     11  C   UNL     1      34.569 -24.280 -12.564  0.00  0.00    +0.250 C 
BRANCH  11  14
ATOM     12  O   UNL     1      32.683 -22.961 -12.174  0.00  0.00    -0.266 OA
ATOM     13  N   UNL     1      32.667 -24.463 -14.006  0.00  0.00    -0.278 N 
ATOM     14  C   UNL     1      33.169 -23.813 -12.899  0.00  0.00    +0.289 C 
ATOM     15  H   UNL     1      33.257 -25.127 -14.432  0.00  0.00    +0.155 HD
BRANCH  13  17
ATOM     16  N   UNL     1      28.901 -23.910 -15.757  0.00  0.00    -0.242 NA
ATOM     17  C   UNL     1      31.396 -24.277 -14.598  0.00  0.00    +0.054 C 
ATOM     18  C   UNL     1      30.383 -25.174 -14.325  0.00  0.00    +0.035 C 
ATOM     19  C   UNL     1      31.190 -23.200 -15.437  0.00  0.00    +0.035 C 
ATOM     20  C   UNL     1      29.156 -24.947 -14.928  0.00  0.00    +0.100 C 
ATOM     21  C   UNL     1      29.928 -23.062 -15.991  0.00  0.00    +0.100 C 
ENDBRANCH  13  17
ENDBRANCH  11  14
ENDBRANCH   4  11
BRANCH   1  22
ATOM     22  C   UNL     1      37.338 -22.270 -16.118  0.00  0.00    +0.122 C 
BRANCH  22  24
ATOM     23 CL   UNL     1      32.860 -21.418 -20.022  0.00  0.00    -0.082 Cl
ATOM     24  C   UNL     1      36.216 -22.057 -17.098  0.00  0.00    -0.002 C 
ATOM     25  C   UNL     1      36.430 -21.273 -18.223  0.00  0.00    -0.002 C 
ATOM     26  C   UNL     1      34.981 -22.646 -16.861  0.00  0.00    -0.002 C 
ATOM     27  C   UNL     1      35.388 -21.076 -19.131  0.00  0.00    +0.011 C 
ATOM     28  C   UNL     1      33.940 -22.448 -17.768  0.00  0.00    +0.011 C 
ATOM     29  C   UNL     1      34.144 -21.663 -18.903  0.00  0.00    +0.058 C 
ENDBRANCH  22  24
ENDBRANCH   1  22
TORSDOF 5
ENDMDL
MODEL 4
REMARK VINA RESULT:     -10.2     11.171     15.907
REMARK  Name = 2929
REMARK  5 active torsions:
REMARK  status: ('A' for Active; 'I' for Inactive)
REMARK    1  A    between atoms: N_1  and  C_22
REMARK    2  A    between atoms: C_4  and  C_11
REMARK    3  A    between atoms: C_11  and  C_14
REMARK    4  A    between atoms: N_13  and  C_17
REMARK    5  A    between atoms: C_22  and  C_24
REMARK                            x       y       z     vdW  Elec       q    Type
REMARK                         _______ _______ _______ _____ _____    ______ ____
ROOT
ATOM      1  N   UNL     1      33.181  -7.992 -21.763  0.00  0.00    -0.281 N 
ATOM      2  C   UNL     1      32.454  -8.632 -20.784  0.00  0.00    +0.052 C 
ATOM      3  C   UNL     1      32.208  -9.929 -21.236  0.00  0.00    +0.018 C 
ATOM      4  C   UNL     1      32.811 -10.047 -22.519  0.00  0.00    +0.060 C 
ATOM      5  C   UNL     1      33.402  -8.840 -22.815  0.00  0.00    +0.069 C 
ATOM      6  C   UNL     1      32.002  -8.163 -19.545  0.00  0.00    +0.015 C 
ATOM      7  C   UNL     1      31.472 -10.805 -20.413  0.00  0.00    +0.001 C 
ATOM      8  C   UNL     1      31.274  -9.050 -18.746  0.00  0.00    +0.001 C 
ATOM      9  C   UNL     1      31.013 -10.351 -19.171  0.00  0.00    +0.000 C 
ENDROOT
BRANCH   4  11
ATOM     10  O   UNL     1      32.843 -11.137 -24.628  0.00  0.00    -0.282 OA
ATOM     11  C   UNL     1      32.833 -11.189 -23.387  0.00  0.00    +0.250 C 
BRANCH  11  14
ATOM     12  O   UNL     1      31.755 -13.177 -22.808  0.00  0.00    -0.266 OA
ATOM     13  N   UNL     1      34.102 -13.025 -22.520  0.00  0.00    -0.278 N 
ATOM     14  C   UNL     1      32.832 -12.609 -22.862  0.00  0.00    +0.289 C 
ATOM     15  H   UNL     1      34.829 -12.375 -22.654  0.00  0.00    +0.155 HD
BRANCH  13  17
ATOM     16  N   UNL     1      35.194 -16.765 -20.979  0.00  0.00    -0.242 NA
ATOM     17  C   UNL     1      34.471 -14.287 -22.000  0.00  0.00    +0.054 C 
ATOM     18  C   UNL     1      34.393 -14.510 -20.640  0.00  0.00    +0.035 C 
ATOM     19  C   UNL     1      34.902 -15.276 -22.861  0.00  0.00    +0.035 C 
ATOM     20  C   UNL     1      34.765 -15.763 -20.180  0.00  0.00    +0.100 C 
ATOM     21  C   UNL     1      35.252 -16.494 -22.303  0.00  0.00    +0.100 C 
ENDBRANCH  13  17
ENDBRANCH  11  14
ENDBRANCH   4  11
BRANCH   1  22
ATOM     22  C   UNL     1      33.651  -6.624 -21.705  0.00  0.00    +0.122 C 
BRANCH  22  24
ATOM     23 CL   UNL     1      29.997  -2.930 -24.709  0.00  0.00    -0.082 Cl
ATOM     24  C   UNL     1      32.735  -5.697 -22.458  0.00  0.00    -0.002 C 
ATOM     25  C   UNL     1      31.718  -5.041 -21.779  0.00  0.00    -0.002 C 
ATOM     26  C   UNL     1      32.920  -5.512 -23.821  0.00  0.00    -0.002 C 
ATOM     27  C   UNL     1      30.869  -4.183 -22.478  0.00  0.00    +0.011 C 
ATOM     28  C   UNL     1      32.071  -4.654 -24.520  0.00  0.00    +0.011 C 
ATOM     29  C   UNL     1      31.045  -3.989 -23.848  0.00  0.00    +0.058 C 
ENDBRANCH  22  24
ENDBRANCH   1  22
TORSDOF 5
ENDMDL
MODEL 5
REMARK VINA RESULT:     -10.2     11.611     16.820
REMARK  Name = 2929
REMARK  5 active torsions:
REMARK  status: ('A' for Active; 'I' for Inactive)
REMARK    1  A    between atoms: N_1  and  C_22
REMARK    2  A    between atoms: C_4  and  C_11
REMARK    3  A    between atoms: C_11  and  C_14
REMARK    4  A    between atoms: N_13  and  C_17
REMARK    5  A    between atoms: C_22  and  C_24
REMARK                            x       y       z     vdW  Elec       q    Type
REMARK                         _______ _______ _______ _____ _____    ______ ____
ROOT
ATOM      1  N   UNL     1      31.982  -7.121 -23.774  0.00  0.00    -0.281 N 
ATOM      2  C   UNL     1      32.279  -6.932 -22.443  0.00  0.00    +0.052 C 
ATOM      3  C   UNL     1      32.289  -8.191 -21.841  0.00  0.00    +0.018 C 
ATOM      4  C   UNL     1      31.988  -9.142 -22.855  0.00  0.00    +0.060 C 
ATOM      5  C   UNL     1      31.804  -8.454 -24.033  0.00  0.00    +0.069 C 
ATOM      6  C   UNL     1      32.537  -5.753 -21.735  0.00  0.00    +0.015 C 
ATOM      7  C   UNL     1      32.569  -8.281 -20.463  0.00  0.00    +0.001 C 
ATOM      8  C   UNL     1      32.813  -5.866 -20.370  0.00  0.00    +0.001 C 
ATOM      9  C   UNL     1      32.830  -7.110 -19.741  0.00  0.00    +0.000 C 
ENDROOT
BRANCH   4  11
ATOM     10  O   UNL     1      30.926 -11.167 -22.210  0.00  0.00    -0.282 OA
ATOM     11  C   UNL     1      31.883 -10.568 -22.730  0.00  0.00    +0.250 C 
BRANCH  11  14
ATOM     12  O   UNL     1      33.944 -11.000 -23.736  0.00  0.00    -0.266 OA
ATOM     13  N   UNL     1      32.631 -12.827 -22.995  0.00  0.00    -0.278 N 
ATOM     14  C   UNL     1      32.963 -11.508 -23.222  0.00  0.00    +0.289 C 
ATOM     15  H   UNL     1      31.765 -12.994 -22.556  0.00  0.00    +0.155 HD
BRANCH  13  17
ATOM     16  N   UNL     1      34.913 -16.205 -23.964  0.00  0.00    -0.242 NA
ATOM     17  C   UNL     1      33.402 -13.966 -23.322  0.00  0.00    +0.054 C 
ATOM     18  C   UNL     1      34.305 -14.461 -22.403  0.00  0.00    +0.035 C 
ATOM     19  C   UNL     1      33.237 -14.566 -24.555  0.00  0.00    +0.035 C 
ATOM     20  C   UNL     1      35.035 -15.580 -22.771  0.00  0.00    +0.100 C 
ATOM     21  C   UNL     1      34.015 -15.679 -24.827  0.00  0.00    +0.100 C 
ENDBRANCH  13  17
ENDBRANCH  11  14
ENDBRANCH   4  11
BRANCH   1  22
ATOM     22  C   UNL     1      31.869  -6.076 -24.769  0.00  0.00    +0.122 C 
BRANCH  22  24
ATOM     23 CL   UNL     1      36.982  -5.413 -27.841  0.00  0.00    -0.082 Cl
ATOM     24  C   UNL     1      33.152  -5.911 -25.540  0.00  0.00    -0.002 C 
ATOM     25  C   UNL     1      34.344  -5.731 -24.851  0.00  0.00    -0.002 C 
ATOM     26  C   UNL     1      33.124  -5.939 -26.927  0.00  0.00    -0.002 C 
ATOM     27  C   UNL     1      35.532  -5.578 -25.566  0.00  0.00    +0.011 C 
ATOM     28  C   UNL     1      34.312  -5.784 -27.641  0.00  0.00    +0.011 C 
ATOM     29  C   UNL     1      35.517  -5.604 -26.960  0.00  0.00    +0.058 C 
ENDBRANCH  22  24
ENDBRANCH   1  22
TORSDOF 5
ENDMDL
MODEL 6
REMARK VINA RESULT:     -10.2      2.792      5.252
REMARK  Name = 2929
REMARK  5 active torsions:
REMARK  status: ('A' for Active; 'I' for Inactive)
REMARK    1  A    between atoms: N_1  and  C_22
REMARK    2  A    between atoms: C_4  and  C_11
REMARK    3  A    between atoms: C_11  and  C_14
REMARK    4  A    between atoms: N_13  and  C_17
REMARK    5  A    between atoms: C_22  and  C_24
REMARK                            x       y       z     vdW  Elec       q    Type
REMARK                         _______ _______ _______ _____ _____    ______ ____
ROOT
ATOM      1  N   UNL     1      34.906 -23.629 -13.571  0.00  0.00    -0.281 N 
ATOM      2  C   UNL     1      36.003 -24.456 -13.467  0.00  0.00    +0.052 C 
ATOM      3  C   UNL     1      36.894 -24.084 -14.475  0.00  0.00    +0.018 C 
ATOM      4  C   UNL     1      36.296 -23.007 -15.186  0.00  0.00    +0.060 C 
ATOM      5  C   UNL     1      35.074 -22.750 -14.607  0.00  0.00    +0.069 C 
ATOM      6  C   UNL     1      36.269 -25.493 -12.566  0.00  0.00    +0.015 C 
ATOM      7  C   UNL     1      38.113 -24.782 -14.592  0.00  0.00    +0.001 C 
ATOM      8  C   UNL     1      37.484 -26.170 -12.702  0.00  0.00    +0.001 C 
ATOM      9  C   UNL     1      38.393 -25.821 -13.698  0.00  0.00    +0.000 C 
ENDROOT
BRANCH   4  11
ATOM     10  O   UNL     1      37.971 -21.811 -16.371  0.00  0.00    -0.282 OA
ATOM     11  C   UNL     1      36.824 -22.284 -16.308  0.00  0.00    +0.250 C 
BRANCH  11  14
ATOM     12  O   UNL     1      35.073 -22.757 -17.777  0.00  0.00    -0.266 OA
ATOM     13  N   UNL     1      36.493 -20.919 -18.247  0.00  0.00    -0.278 N 
ATOM     14  C   UNL     1      36.009 -22.009 -17.554  0.00  0.00    +0.289 C 
ATOM     15  H   UNL     1      37.278 -20.467 -17.863  0.00  0.00    +0.155 HD
BRANCH  13  17
ATOM     16  N   UNL     1      34.969 -19.324 -21.810  0.00  0.00    -0.242 NA
ATOM     17  C   UNL     1      35.978 -20.380 -19.449  0.00  0.00    +0.054 C 
ATOM     18  C   UNL     1      36.786 -19.585 -20.237  0.00  0.00    +0.035 C 
ATOM     19  C   UNL     1      34.677 -20.659 -19.815  0.00  0.00    +0.035 C 
ATOM     20  C   UNL     1      36.236 -19.082 -21.405  0.00  0.00    +0.100 C 
ATOM     21  C   UNL     1      34.220 -20.108 -21.001  0.00  0.00    +0.100 C 
ENDBRANCH  13  17
ENDBRANCH  11  14
ENDBRANCH   4  11
BRANCH   1  22
ATOM     22  C   UNL     1      33.737 -23.669 -12.718  0.00  0.00    +0.122 C 
BRANCH  22  24
ATOM     23 CL   UNL     1      28.727 -24.538 -15.906  0.00  0.00    -0.082 Cl
ATOM     24  C   UNL     1      32.481 -23.887 -13.518  0.00  0.00    -0.002 C 
ATOM     25  C   UNL     1      31.951 -22.839 -14.257  0.00  0.00    -0.002 C 
ATOM     26  C   UNL     1      31.871 -25.134 -13.506  0.00  0.00    -0.002 C 
ATOM     27  C   UNL     1      30.786 -23.041 -14.998  0.00  0.00    +0.011 C 
ATOM     28  C   UNL     1      30.706 -25.336 -14.246  0.00  0.00    +0.011 C 
ATOM     29  C   UNL     1      30.164 -24.289 -14.993  0.00  0.00    +0.058 C 
ENDBRANCH  22  24
ENDBRANCH   1  22
TORSDOF 5
ENDMDL
MODEL 7
REMARK VINA RESULT:     -10.1     10.804     15.692
REMARK  Name = 2929
REMARK  5 active torsions:
REMARK  status: ('A' for Active; 'I' for Inactive)
REMARK    1  A    between atoms: N_1  and  C_22
REMARK    2  A    between atoms: C_4  and  C_11
REMARK    3  A    between atoms: C_11  and  C_14
REMARK    4  A    between atoms: N_13  and  C_17
REMARK    5  A    between atoms: C_22  and  C_24
REMARK                            x       y       z     vdW  Elec       q    Type
REMARK                         _______ _______ _______ _____ _____    ______ ____
ROOT
ATOM      1  N   UNL     1      32.968  -7.887 -21.996  0.00  0.00    -0.281 N 
ATOM      2  C   UNL     1      32.391  -8.543 -20.932  0.00  0.00    +0.052 C 
ATOM      3  C   UNL     1      32.278  -9.888 -21.291  0.00  0.00    +0.018 C 
ATOM      4  C   UNL     1      32.806 -10.015 -22.606  0.00  0.00    +0.060 C 
ATOM      5  C   UNL     1      33.223  -8.768 -23.012  0.00  0.00    +0.069 C 
ATOM      6  C   UNL     1      31.966  -8.053 -19.693  0.00  0.00    +0.015 C 
ATOM      7  C   UNL     1      31.711 -10.789 -20.369  0.00  0.00    +0.001 C 
ATOM      8  C   UNL     1      31.407  -8.966 -18.794  0.00  0.00    +0.001 C 
ATOM      9  C   UNL     1      31.281 -10.314 -19.124  0.00  0.00    +0.000 C 
ENDROOT
BRANCH   4  11
ATOM     10  O   UNL     1      33.018 -11.213 -24.645  0.00  0.00    -0.282 OA
ATOM     11  C   UNL     1      32.912 -11.201 -23.407  0.00  0.00    +0.250 C 
BRANCH  11  14
ATOM     12  O   UNL     1      31.797 -13.089 -22.607  0.00  0.00    -0.266 OA
ATOM     13  N   UNL     1      34.166 -13.066 -22.584  0.00  0.00    -0.278 N 
ATOM     14  C   UNL     1      32.892 -12.591 -22.808  0.00  0.00    +0.289 C 
ATOM     15  H   UNL     1      34.909 -12.469 -22.831  0.00  0.00    +0.155 HD
BRANCH  13  17
ATOM     16  N   UNL     1      35.216 -16.787 -20.968  0.00  0.00    -0.242 NA
ATOM     17  C   UNL     1      34.522 -14.322 -22.038  0.00  0.00    +0.054 C 
ATOM     18  C   UNL     1      34.433 -14.519 -20.675  0.00  0.00    +0.035 C 
ATOM     19  C   UNL     1      34.949 -15.330 -22.879  0.00  0.00    +0.035 C 
ATOM     20  C   UNL     1      34.791 -15.767 -20.190  0.00  0.00    +0.100 C 
ATOM     21  C   UNL     1      35.285 -16.541 -22.296  0.00  0.00    +0.100 C 
ENDBRANCH  13  17
ENDBRANCH  11  14
ENDBRANCH   4  11
BRANCH   1  22
ATOM     22  C   UNL     1      33.269  -6.472 -22.050  0.00  0.00    +0.122 C 
BRANCH  22  24
ATOM     23 CL   UNL     1      34.942  -4.796 -27.565  0.00  0.00    -0.082 Cl
ATOM     24  C   UNL     1      33.688  -6.052 -23.433  0.00  0.00    -0.002 C 
ATOM     25  C   UNL     1      34.995  -6.271 -23.847  0.00  0.00    -0.002 C 
ATOM     26  C   UNL     1      32.763  -5.452 -24.276  0.00  0.00    -0.002 C 
ATOM     27  C   UNL     1      35.384  -5.882 -25.129  0.00  0.00    +0.011 C 
ATOM     28  C   UNL     1      33.152  -5.062 -25.557  0.00  0.00    +0.011 C 
ATOM     29  C   UNL     1      34.462  -5.277 -25.984  0.00  0.00    +0.058 C 
ENDBRANCH  22  24
ENDBRANCH   1  22
TORSDOF 5
ENDMDL
MODEL 8
REMARK VINA RESULT:     -10.1      7.227     12.414
REMARK  Name = 2929
REMARK  5 active torsions:
REMARK  status: ('A' for Active; 'I' for Inactive)
REMARK    1  A    between atoms: N_1  and  C_22
REMARK    2  A    between atoms: C_4  and  C_11
REMARK    3  A    between atoms: C_11  and  C_14
REMARK    4  A    between atoms: N_13  and  C_17
REMARK    5  A    between atoms: C_22  and  C_24
REMARK                            x       y       z     vdW  Elec       q    Type
REMARK                         _______ _______ _______ _____ _____    ______ ____
ROOT
ATOM      1  N   UNL     1      33.236 -13.167 -23.439  0.00  0.00    -0.281 N 
ATOM      2  C   UNL     1      32.910 -13.235 -22.104  0.00  0.00    +0.052 C 
ATOM      3  C   UNL     1      33.500 -14.393 -21.595  0.00  0.00    +0.018 C 
ATOM      4  C   UNL     1      34.190 -15.018 -22.670  0.00  0.00    +0.060 C 
ATOM      5  C   UNL     1      34.010 -14.240 -23.792  0.00  0.00    +0.069 C 
ATOM      6  C   UNL     1      32.146 -12.366 -21.316  0.00  0.00    +0.015 C 
ATOM      7  C   UNL     1      33.318 -14.703 -20.232  0.00  0.00    +0.001 C 
ATOM      8  C   UNL     1      31.980 -12.694 -19.967  0.00  0.00    +0.001 C 
ATOM      9  C   UNL     1      32.557 -13.844 -19.432  0.00  0.00    +0.000 C 
ENDROOT
BRANCH   4  11
ATOM     10  O   UNL     1      35.566 -16.705 -23.620  0.00  0.00    -0.282 OA
ATOM     11  C   UNL     1      34.952 -16.234 -22.648  0.00  0.00    +0.250 C 
BRANCH  11  14
ATOM     12  O   UNL     1      35.320 -16.516 -20.360  0.00  0.00    -0.266 OA
ATOM     13  N   UNL     1      34.887 -18.428 -21.691  0.00  0.00    -0.278 N 
ATOM     14  C   UNL     1      35.076 -17.092 -21.407  0.00  0.00    +0.289 C 
ATOM     15  H   UNL     1      34.700 -18.656 -22.631  0.00  0.00    +0.155 HD
BRANCH  13  17
ATOM     16  N   UNL     1      35.014 -21.620 -18.980  0.00  0.00    -0.242 NA
ATOM     17  C   UNL     1      34.930 -19.506 -20.777  0.00  0.00    +0.054 C 
ATOM     18  C   UNL     1      36.148 -19.935 -20.291  0.00  0.00    +0.035 C 
ATOM     19  C   UNL     1      33.752 -20.110 -20.385  0.00  0.00    +0.035 C 
ATOM     20  C   UNL     1      36.137 -20.994 -19.397  0.00  0.00    +0.100 C 
ATOM     21  C   UNL     1      33.847 -21.161 -19.487  0.00  0.00    +0.100 C 
ENDBRANCH  13  17
ENDBRANCH  11  14
ENDBRANCH   4  11
BRANCH   1  22
ATOM     22  C   UNL     1      32.829 -12.121 -24.354  0.00  0.00    +0.122 C 
BRANCH  22  24
ATOM     23 CL   UNL     1      35.372  -6.871 -22.943  0.00  0.00    -0.082 Cl
ATOM     24  C   UNL     1      33.467 -10.804 -24.001  0.00  0.00    -0.002 C 
ATOM     25  C   UNL     1      34.848 -10.678 -24.054  0.00  0.00    -0.002 C 
ATOM     26  C   UNL     1      32.665  -9.735 -23.627  0.00  0.00    -0.002 C 
ATOM     27  C   UNL     1      35.439  -9.457 -23.726  0.00  0.00    +0.011 C 
ATOM     28  C   UNL     1      33.256  -8.515 -23.299  0.00  0.00    +0.011 C 
ATOM     29  C   UNL     1      34.643  -8.376 -23.349  0.00  0.00    +0.058 C 
ENDBRANCH  22  24
ENDBRANCH   1  22
TORSDOF 5
ENDMDL
MODEL 9
REMARK VINA RESULT:      -9.9     11.751     15.683
REMARK  Name = 2929
REMARK  5 active torsions:
REMARK  status: ('A' for Active; 'I' for Inactive)
REMARK    1  A    between atoms: N_1  and  C_22
REMARK    2  A    between atoms: C_4  and  C_11
REMARK    3  A    between atoms: C_11  and  C_14
REMARK    4  A    between atoms: N_13  and  C_17
REMARK    5  A    between atoms: C_22  and  C_24
REMARK                            x       y       z     vdW  Elec       q    Type
REMARK                         _______ _______ _______ _____ _____    ______ ____
ROOT
ATOM      1  N   UNL     1      32.159 -10.358 -22.197  0.00  0.00    -0.281 N 
ATOM      2  C   UNL     1      31.961  -9.717 -20.995  0.00  0.00    +0.052 C 
ATOM      3  C   UNL     1      32.663  -8.512 -21.051  0.00  0.00    +0.018 C 
ATOM      4  C   UNL     1      33.288  -8.452 -22.327  0.00  0.00    +0.060 C 
ATOM      5  C   UNL     1      32.960  -9.601 -23.009  0.00  0.00    +0.069 C 
ATOM      6  C   UNL     1      31.221 -10.110 -19.874  0.00  0.00    +0.015 C 
ATOM      7  C   UNL     1      32.627  -7.654 -19.934  0.00  0.00    +0.001 C 
ATOM      8  C   UNL     1      31.199  -9.243 -18.778  0.00  0.00    +0.001 C 
ATOM      9  C   UNL     1      31.890  -8.033 -18.806  0.00  0.00    +0.000 C 
ENDROOT
BRANCH   4  11
ATOM     10  O   UNL     1      35.361  -7.434 -22.885  0.00  0.00    -0.282 OA
ATOM     11  C   UNL     1      34.119  -7.408 -22.859  0.00  0.00    +0.250 C 
BRANCH  11  14
ATOM     12  O   UNL     1      34.156  -5.635 -24.376  0.00  0.00    -0.266 OA
ATOM     13  N   UNL     1      32.396  -5.747 -22.793  0.00  0.00    -0.278 N 
ATOM     14  C   UNL     1      33.548  -6.135 -23.445  0.00  0.00    +0.289 C 
ATOM     15  H   UNL     1      32.093  -6.323 -22.054  0.00  0.00    +0.155 HD
BRANCH  13  17
ATOM     16  N   UNL     1      30.044  -2.382 -23.629  0.00  0.00    -0.242 NA
ATOM     17  C   UNL     1      31.602  -4.612 -23.075  0.00  0.00    +0.054 C 
ATOM     18  C   UNL     1      31.382  -3.675 -22.085  0.00  0.00    +0.035 C 
ATOM     19  C   UNL     1      31.060  -4.459 -24.335  0.00  0.00    +0.035 C 
ATOM     20  C   UNL     1      30.598  -2.580 -22.412  0.00  0.00    +0.100 C 
ATOM     21  C   UNL     1      30.290  -3.329 -24.561  0.00  0.00    +0.100 C 
ENDBRANCH  13  17
ENDBRANCH  11  14
ENDBRANCH   4  11
BRANCH   1  22
ATOM     22  C   UNL     1      31.609 -11.646 -22.566  0.00  0.00    +0.122 C 
BRANCH  22  24
ATOM     23 CL   UNL     1      35.064 -16.147 -20.611  0.00  0.00    -0.082 Cl
ATOM     24  C   UNL     1      32.476 -12.774 -22.075  0.00  0.00    -0.002 C 
ATOM     25  C   UNL     1      33.492 -13.258 -22.888  0.00  0.00    -0.002 C 
ATOM     26  C   UNL     1      32.247 -13.315 -20.818  0.00  0.00    -0.002 C 
ATOM     27  C   UNL     1      34.295 -14.304 -22.433  0.00  0.00    +0.011 C 
ATOM     28  C   UNL     1      33.049 -14.361 -20.364  0.00  0.00    +0.011 C 
ATOM     29  C   UNL     1      34.074 -14.856 -21.171  0.00  0.00    +0.058 C 
ENDBRANCH  22  24
ENDBRANCH   1  22
TORSDOF 5
ENDMDL
