MODEL 1
REMARK VINA RESULT:     -12.4      0.000      0.000
REMARK  Name = 10157080
REMARK  5 active torsions:
REMARK  status: ('A' for Active; 'I' for Inactive)
REMARK    1  A    between atoms: C_3  and  O_8
REMARK    2  A    between atoms: C_6  and  O_18
REMARK    3  A    between atoms: O_8  and  C_13
REMARK    4  A    between atoms: O_18  and  C_20
REMARK    5  A    between atoms: C_19  and  N_25
REMARK                            x       y       z     vdW  Elec       q    Type
REMARK                         _______ _______ _______ _____ _____    ______ ____
ROOT
ATOM      1  N   UNL     1      34.670 -23.213 -16.290  0.00  0.00    -0.277 NA
ATOM      2  N   UNL     1      32.294 -23.204 -16.694  0.00  0.00    -0.319 NA
ATOM      3  C   UNL     1      34.398 -23.060 -14.984  0.00  0.00    +0.278 C 
ATOM      4  C   UNL     1      33.136 -22.970 -14.452  0.00  0.00    +0.156 C 
ATOM      5  C   UNL     1      32.106 -23.050 -15.367  0.00  0.00    +0.113 C 
ATOM      6  C   UNL     1      33.582 -23.277 -17.081  0.00  0.00    +0.317 C 
ATOM      7  C   UNL     1      30.694 -22.964 -14.895  0.00  0.00    +0.063 C 
ENDROOT
BRANCH   3   8
ATOM      8  O   UNL     1      35.486 -22.992 -14.131  0.00  0.00    -0.429 OA
BRANCH   8  13
ATOM      9  O   UNL     1      40.002 -24.669 -14.339  0.00  0.00    -0.435 OA
ATOM     10  O   UNL     1      39.243 -26.956 -14.356  0.00  0.00    -0.435 OA
ATOM     11  C   UNL     1      38.646 -24.764 -14.289  0.00  0.00    +0.179 C 
ATOM     12  C   UNL     1      38.212 -26.070 -14.298  0.00  0.00    +0.177 C 
ATOM     13  C   UNL     1      36.397 -24.002 -14.188  0.00  0.00    +0.151 C 
ATOM     14  C   UNL     1      37.761 -23.706 -14.233  0.00  0.00    +0.078 C 
ATOM     15  C   UNL     1      36.870 -26.390 -14.254  0.00  0.00    +0.043 C 
ATOM     16  C   UNL     1      35.954 -25.337 -14.197  0.00  0.00    +0.041 C 
ATOM     17  C   UNL     1      40.374 -26.062 -14.381  0.00  0.00    +0.429 C 
ENDBRANCH   8  13
ENDBRANCH   3   8
BRANCH   6  18
ATOM     18  O   UNL     1      33.811 -23.430 -18.429  0.00  0.00    -0.375 OA
BRANCH  18  20
ATOM     19  C   UNL     1      34.663 -20.003 -20.609  0.00  0.00    +0.057 C 
ATOM     20  C   UNL     1      34.094 -22.293 -19.153  0.00  0.00    +0.161 C 
ATOM     21  C   UNL     1      33.343 -20.308 -20.278  0.00  0.00    +0.018 C 
ATOM     22  C   UNL     1      35.696 -20.849 -20.208  0.00  0.00    +0.018 C 
ATOM     23  C   UNL     1      33.056 -21.460 -19.544  0.00  0.00    +0.040 C 
ATOM     24  C   UNL     1      35.411 -22.001 -19.475  0.00  0.00    +0.040 C 
BRANCH  19  25
ATOM     25  N   UNL     1      34.946 -18.862 -21.337  0.00  0.00    -0.246 N 
ATOM     26  N   UNL     1      35.489 -16.744 -21.776  0.00  0.00    -0.224 NA
ATOM     27  C   UNL     1      34.955 -18.742 -22.704  0.00  0.00    +0.092 C 
ATOM     28  C   UNL     1      35.274 -17.629 -20.828  0.00  0.00    +0.172 C 
ATOM     29  C   UNL     1      35.291 -17.432 -22.946  0.00  0.00    +0.117 C 
ENDBRANCH  19  25
ENDBRANCH  18  20
ENDBRANCH   6  18
TORSDOF 5
ENDMDL
MODEL 2
REMARK VINA RESULT:     -12.0      2.587      5.598
REMARK  Name = 10157080
REMARK  5 active torsions:
REMARK  status: ('A' for Active; 'I' for Inactive)
REMARK    1  A    between atoms: C_3  and  O_8
REMARK    2  A    between atoms: C_6  and  O_18
REMARK    3  A    between atoms: O_8  and  C_13
REMARK    4  A    between atoms: O_18  and  C_20
REMARK    5  A    between atoms: C_19  and  N_25
REMARK                            x       y       z     vdW  Elec       q    Type
REMARK                         _______ _______ _______ _____ _____    ______ ____
ROOT
ATOM      1  N   UNL     1      33.401 -23.233 -16.216  0.00  0.00    -0.277 NA
ATOM      2  N   UNL     1      35.756 -22.902 -16.607  0.00  0.00    -0.319 NA
ATOM      3  C   UNL     1      33.654 -23.123 -14.902  0.00  0.00    +0.278 C 
ATOM      4  C   UNL     1      34.897 -22.908 -14.358  0.00  0.00    +0.156 C 
ATOM      5  C   UNL     1      35.926 -22.803 -15.272  0.00  0.00    +0.113 C 
ATOM      6  C   UNL     1      34.486 -23.114 -17.004  0.00  0.00    +0.317 C 
ATOM      7  C   UNL     1      37.317 -22.569 -14.788  0.00  0.00    +0.063 C 
ENDROOT
BRANCH   3   8
ATOM      8  O   UNL     1      32.568 -23.236 -14.052  0.00  0.00    -0.429 OA
BRANCH   8  13
ATOM      9  O   UNL     1      28.648 -22.082 -16.613  0.00  0.00    -0.435 OA
ATOM     10  O   UNL     1      27.711 -24.284 -16.332  0.00  0.00    -0.435 OA
ATOM     11  C   UNL     1      29.454 -22.896 -15.879  0.00  0.00    +0.179 C 
ATOM     12  C   UNL     1      28.919 -24.154 -15.719  0.00  0.00    +0.177 C 
ATOM     13  C   UNL     1      31.358 -23.528 -14.608  0.00  0.00    +0.151 C 
ATOM     14  C   UNL     1      30.674 -22.552 -15.335  0.00  0.00    +0.078 C 
ATOM     15  C   UNL     1      29.574 -25.137 -15.005  0.00  0.00    +0.043 C 
ATOM     16  C   UNL     1      30.812 -24.814 -14.444  0.00  0.00    +0.041 C 
ATOM     17  C   UNL     1      27.546 -22.968 -16.898  0.00  0.00    +0.429 C 
ENDBRANCH   8  13
ENDBRANCH   3   8
BRANCH   6  18
ATOM     18  O   UNL     1      34.276 -23.223 -18.359  0.00  0.00    -0.375 OA
BRANCH  18  20
ATOM     19  C   UNL     1      34.830 -19.803 -20.644  0.00  0.00    +0.057 C 
ATOM     20  C   UNL     1      34.460 -22.088 -19.117  0.00  0.00    +0.161 C 
ATOM     21  C   UNL     1      33.544 -20.184 -20.259  0.00  0.00    +0.018 C 
ATOM     22  C   UNL     1      35.929 -20.572 -20.261  0.00  0.00    +0.018 C 
ATOM     23  C   UNL     1      33.358 -21.333 -19.490  0.00  0.00    +0.040 C 
ATOM     24  C   UNL     1      35.744 -21.720 -19.493  0.00  0.00    +0.040 C 
BRANCH  19  25
ATOM     25  N   UNL     1      35.014 -18.664 -21.407  0.00  0.00    -0.246 N 
ATOM     26  N   UNL     1      35.188 -17.358 -23.205  0.00  0.00    -0.224 NA
ATOM     27  C   UNL     1      35.268 -17.399 -20.940  0.00  0.00    +0.092 C 
ATOM     28  C   UNL     1      34.977 -18.583 -22.777  0.00  0.00    +0.172 C 
ATOM     29  C   UNL     1      35.370 -16.616 -22.066  0.00  0.00    +0.117 C 
ENDBRANCH  19  25
ENDBRANCH  18  20
ENDBRANCH   6  18
TORSDOF 5
ENDMDL
MODEL 3
REMARK VINA RESULT:     -11.4      4.645      8.563
REMARK  Name = 10157080
REMARK  5 active torsions:
REMARK  status: ('A' for Active; 'I' for Inactive)
REMARK    1  A    between atoms: C_3  and  O_8
REMARK    2  A    between atoms: C_6  and  O_18
REMARK    3  A    between atoms: O_8  and  C_13
REMARK    4  A    between atoms: O_18  and  C_20
REMARK    5  A    between atoms: C_19  and  N_25
REMARK                            x       y       z     vdW  Elec       q    Type
REMARK                         _______ _______ _______ _____ _____    ______ ____
ROOT
ATOM      1  N   UNL     1      35.341 -17.337 -20.610  0.00  0.00    -0.277 NA
ATOM      2  N   UNL     1      34.642 -16.027 -22.509  0.00  0.00    -0.319 NA
ATOM      3  C   UNL     1      35.576 -18.350 -21.458  0.00  0.00    +0.278 C 
ATOM      4  C   UNL     1      35.378 -18.298 -22.817  0.00  0.00    +0.156 C 
ATOM      5  C   UNL     1      34.903 -17.093 -23.293  0.00  0.00    +0.113 C 
ATOM      6  C   UNL     1      34.880 -16.216 -21.196  0.00  0.00    +0.317 C 
ATOM      7  C   UNL     1      34.653 -16.928 -24.755  0.00  0.00    +0.063 C 
ENDROOT
BRANCH   3   8
ATOM      8  O   UNL     1      36.054 -19.524 -20.902  0.00  0.00    -0.429 OA
BRANCH   8  13
ATOM      9  O   UNL     1      35.015 -22.886 -17.605  0.00  0.00    -0.435 OA
ATOM     10  O   UNL     1      32.646 -22.643 -17.978  0.00  0.00    -0.435 OA
ATOM     11  C   UNL     1      34.735 -21.951 -18.553  0.00  0.00    +0.179 C 
ATOM     12  C   UNL     1      33.382 -21.812 -18.766  0.00  0.00    +0.177 C 
ATOM     13  C   UNL     1      35.178 -20.287 -20.189  0.00  0.00    +0.151 C 
ATOM     14  C   UNL     1      35.660 -21.202 -19.250  0.00  0.00    +0.078 C 
ATOM     15  C   UNL     1      32.880 -20.916 -19.688  0.00  0.00    +0.043 C 
ATOM     16  C   UNL     1      33.796 -20.145 -20.407  0.00  0.00    +0.041 C 
ATOM     17  C   UNL     1      33.687 -23.320 -17.244  0.00  0.00    +0.429 C 
ENDBRANCH   8  13
ENDBRANCH   3   8
BRANCH   6  18
ATOM     18  O   UNL     1      34.621 -15.150 -20.366  0.00  0.00    -0.375 OA
BRANCH  18  20
ATOM     19  C   UNL     1      32.823 -11.817 -22.064  0.00  0.00    +0.057 C 
ATOM     20  C   UNL     1      34.024 -14.044 -20.930  0.00  0.00    +0.161 C 
ATOM     21  C   UNL     1      33.917 -12.414 -22.690  0.00  0.00    +0.018 C 
ATOM     22  C   UNL     1      32.333 -12.341 -20.868  0.00  0.00    +0.018 C 
ATOM     23  C   UNL     1      34.522 -13.535 -22.120  0.00  0.00    +0.040 C 
ATOM     24  C   UNL     1      32.936 -13.461 -20.297  0.00  0.00    +0.040 C 
BRANCH  19  25
ATOM     25  N   UNL     1      32.224 -10.706 -22.630  0.00  0.00    -0.246 N 
ATOM     26  N   UNL     1      31.875  -9.004 -24.026  0.00  0.00    -0.224 NA
ATOM     27  C   UNL     1      31.081 -10.083 -22.198  0.00  0.00    +0.092 C 
ATOM     28  C   UNL     1      32.661 -10.015 -23.733  0.00  0.00    +0.172 C 
ATOM     29  C   UNL     1      30.889  -9.040 -23.073  0.00  0.00    +0.117 C 
ENDBRANCH  19  25
ENDBRANCH  18  20
ENDBRANCH   6  18
TORSDOF 5
ENDMDL
MODEL 4
REMARK VINA RESULT:     -11.0      1.572      2.328
REMARK  Name = 10157080
REMARK  5 active torsions:
REMARK  status: ('A' for Active; 'I' for Inactive)
REMARK    1  A    between atoms: C_3  and  O_8
REMARK    2  A    between atoms: C_6  and  O_18
REMARK    3  A    between atoms: O_8  and  C_13
REMARK    4  A    between atoms: O_18  and  C_20
REMARK    5  A    between atoms: C_19  and  N_25
REMARK                            x       y       z     vdW  Elec       q    Type
REMARK                         _______ _______ _______ _____ _____    ______ ____
ROOT
ATOM      1  N   UNL     1      36.463 -22.048 -17.375  0.00  0.00    -0.277 NA
ATOM      2  N   UNL     1      34.265 -22.738 -18.084  0.00  0.00    -0.319 NA
ATOM      3  C   UNL     1      36.079 -22.296 -16.112  0.00  0.00    +0.278 C 
ATOM      4  C   UNL     1      34.837 -22.754 -15.746  0.00  0.00    +0.156 C 
ATOM      5  C   UNL     1      33.958 -22.961 -16.790  0.00  0.00    +0.113 C 
ATOM      6  C   UNL     1      35.516 -22.288 -18.302  0.00  0.00    +0.317 C 
ATOM      7  C   UNL     1      32.581 -23.459 -16.503  0.00  0.00    +0.063 C 
ENDROOT
BRANCH   3   8
ATOM      8  O   UNL     1      37.021 -22.066 -15.124  0.00  0.00    -0.429 OA
BRANCH   8  13
ATOM      9  O   UNL     1      40.404 -25.502 -15.050  0.00  0.00    -0.435 OA
ATOM     10  O   UNL     1      39.552 -26.416 -12.989  0.00  0.00    -0.435 OA
ATOM     11  C   UNL     1      39.322 -24.817 -14.589  0.00  0.00    +0.179 C 
ATOM     12  C   UNL     1      38.835 -25.339 -13.413  0.00  0.00    +0.177 C 
ATOM     13  C   UNL     1      37.629 -23.151 -14.567  0.00  0.00    +0.151 C 
ATOM     14  C   UNL     1      38.740 -23.722 -15.192  0.00  0.00    +0.078 C 
ATOM     15  C   UNL     1      37.740 -24.795 -12.774  0.00  0.00    +0.043 C 
ATOM     16  C   UNL     1      37.132 -23.684 -13.364  0.00  0.00    +0.041 C 
ATOM     17  C   UNL     1      40.544 -26.513 -14.031  0.00  0.00    +0.429 C 
ENDBRANCH   8  13
ENDBRANCH   3   8
BRANCH   6  18
ATOM     18  O   UNL     1      35.863 -22.046 -19.611  0.00  0.00    -0.375 OA
BRANCH  18  20
ATOM     19  C   UNL     1      35.330 -18.181 -21.026  0.00  0.00    +0.057 C 
ATOM     20  C   UNL     1      35.686 -20.763 -20.081  0.00  0.00    +0.161 C 
ATOM     21  C   UNL     1      36.617 -18.668 -20.795  0.00  0.00    +0.018 C 
ATOM     22  C   UNL     1      34.223 -18.993 -20.782  0.00  0.00    +0.018 C 
ATOM     23  C   UNL     1      36.797 -19.967 -20.320  0.00  0.00    +0.040 C 
ATOM     24  C   UNL     1      34.402 -20.292 -20.307  0.00  0.00    +0.040 C 
BRANCH  19  25
ATOM     25  N   UNL     1      35.153 -16.893 -21.497  0.00  0.00    -0.246 N 
ATOM     26  N   UNL     1      35.072 -15.181 -22.924  0.00  0.00    -0.224 NA
ATOM     27  C   UNL     1      34.779 -15.796 -20.762  0.00  0.00    +0.092 C 
ATOM     28  C   UNL     1      35.317 -16.466 -22.792  0.00  0.00    +0.172 C 
ATOM     29  C   UNL     1      34.738 -14.758 -21.662  0.00  0.00    +0.117 C 
ENDBRANCH  19  25
ENDBRANCH  18  20
ENDBRANCH   6  18
TORSDOF 5
ENDMDL
MODEL 5
REMARK VINA RESULT:     -10.7      1.971      2.950
REMARK  Name = 10157080
REMARK  5 active torsions:
REMARK  status: ('A' for Active; 'I' for Inactive)
REMARK    1  A    between atoms: C_3  and  O_8
REMARK    2  A    between atoms: C_6  and  O_18
REMARK    3  A    between atoms: O_8  and  C_13
REMARK    4  A    between atoms: O_18  and  C_20
REMARK    5  A    between atoms: C_19  and  N_25
REMARK                            x       y       z     vdW  Elec       q    Type
REMARK                         _______ _______ _______ _____ _____    ______ ____
ROOT
ATOM      1  N   UNL     1      34.890 -23.415 -16.713  0.00  0.00    -0.277 NA
ATOM      2  N   UNL     1      32.545 -22.913 -16.467  0.00  0.00    -0.319 NA
ATOM      3  C   UNL     1      34.993 -23.352 -15.375  0.00  0.00    +0.278 C 
ATOM      4  C   UNL     1      33.952 -23.080 -14.521  0.00  0.00    +0.156 C 
ATOM      5  C   UNL     1      32.733 -22.866 -15.132  0.00  0.00    +0.113 C 
ATOM      6  C   UNL     1      33.650 -23.188 -17.187  0.00  0.00    +0.317 C 
ATOM      7  C   UNL     1      31.536 -22.564 -14.296  0.00  0.00    +0.063 C 
ENDROOT
BRANCH   3   8
ATOM      8  O   UNL     1      36.248 -23.582 -14.841  0.00  0.00    -0.429 OA
BRANCH   8  13
ATOM      9  O   UNL     1      34.905 -25.251 -10.521  0.00  0.00    -0.435 OA
ATOM     10  O   UNL     1      36.578 -23.932  -9.395  0.00  0.00    -0.435 OA
ATOM     11  C   UNL     1      35.646 -24.508 -11.387  0.00  0.00    +0.179 C 
ATOM     12  C   UNL     1      36.601 -23.755 -10.745  0.00  0.00    +0.177 C 
ATOM     13  C   UNL     1      36.356 -23.647 -13.484  0.00  0.00    +0.151 C 
ATOM     14  C   UNL     1      35.498 -24.476 -12.758  0.00  0.00    +0.078 C 
ATOM     15  C   UNL     1      37.461 -22.927 -11.437  0.00  0.00    +0.043 C 
ATOM     16  C   UNL     1      37.333 -22.877 -12.827  0.00  0.00    +0.041 C 
ATOM     17  C   UNL     1      35.502 -24.882  -9.261  0.00  0.00    +0.429 C 
ENDBRANCH   8  13
ENDBRANCH   3   8
BRANCH   6  18
ATOM     18  O   UNL     1      33.497 -23.239 -18.553  0.00  0.00    -0.375 OA
BRANCH  18  20
ATOM     19  C   UNL     1      34.532 -19.844 -20.704  0.00  0.00    +0.057 C 
ATOM     20  C   UNL     1      33.840 -22.112 -19.267  0.00  0.00    +0.161 C 
ATOM     21  C   UNL     1      35.527 -20.695 -20.222  0.00  0.00    +0.018 C 
ATOM     22  C   UNL     1      33.190 -20.135 -20.463  0.00  0.00    +0.018 C 
ATOM     23  C   UNL     1      35.180 -21.837 -19.499  0.00  0.00    +0.040 C 
ATOM     24  C   UNL     1      32.841 -21.276 -19.741  0.00  0.00    +0.040 C 
BRANCH  19  25
ATOM     25  N   UNL     1      34.878 -18.713 -21.420  0.00  0.00    -0.246 N 
ATOM     26  N   UNL     1      35.254 -17.378 -23.165  0.00  0.00    -0.224 NA
ATOM     27  C   UNL     1      35.286 -17.509 -20.902  0.00  0.00    +0.092 C 
ATOM     28  C   UNL     1      34.877 -18.579 -22.786  0.00  0.00    +0.172 C 
ATOM     29  C   UNL     1      35.511 -16.707 -21.996  0.00  0.00    +0.117 C 
ENDBRANCH  19  25
ENDBRANCH  18  20
ENDBRANCH   6  18
TORSDOF 5
ENDMDL
MODEL 6
REMARK VINA RESULT:     -10.6      2.036      3.077
REMARK  Name = 10157080
REMARK  5 active torsions:
REMARK  status: ('A' for Active; 'I' for Inactive)
REMARK    1  A    between atoms: C_3  and  O_8
REMARK    2  A    between atoms: C_6  and  O_18
REMARK    3  A    between atoms: O_8  and  C_13
REMARK    4  A    between atoms: O_18  and  C_20
REMARK    5  A    between atoms: C_19  and  N_25
REMARK                            x       y       z     vdW  Elec       q    Type
REMARK                         _______ _______ _______ _____ _____    ______ ____
ROOT
ATOM      1  N   UNL     1      36.639 -22.097 -17.601  0.00  0.00    -0.277 NA
ATOM      2  N   UNL     1      34.380 -22.533 -18.322  0.00  0.00    -0.319 NA
ATOM      3  C   UNL     1      36.248 -22.410 -16.355  0.00  0.00    +0.278 C 
ATOM      4  C   UNL     1      34.974 -22.785 -16.003  0.00  0.00    +0.156 C 
ATOM      5  C   UNL     1      34.069 -22.830 -17.044  0.00  0.00    +0.113 C 
ATOM      6  C   UNL     1      35.664 -22.179 -18.527  0.00  0.00    +0.317 C 
ATOM      7  C   UNL     1      32.656 -23.227 -16.772  0.00  0.00    +0.063 C 
ENDROOT
BRANCH   3   8
ATOM      8  O   UNL     1      37.217 -22.343 -15.369  0.00  0.00    -0.429 OA
BRANCH   8  13
ATOM      9  O   UNL     1      35.580 -23.697 -11.040  0.00  0.00    -0.435 OA
ATOM     10  O   UNL     1      36.769 -25.791 -11.150  0.00  0.00    -0.435 OA
ATOM     11  C   UNL     1      36.284 -23.831 -12.197  0.00  0.00    +0.179 C 
ATOM     12  C   UNL     1      36.963 -25.027 -12.260  0.00  0.00    +0.177 C 
ATOM     13  C   UNL     1      37.126 -23.224 -14.333  0.00  0.00    +0.151 C 
ATOM     14  C   UNL     1      36.346 -22.908 -13.219  0.00  0.00    +0.078 C 
ATOM     15  C   UNL     1      37.741 -25.364 -13.348  0.00  0.00    +0.043 C 
ATOM     16  C   UNL     1      37.820 -24.446 -14.398  0.00  0.00    +0.041 C 
ATOM     17  C   UNL     1      35.891 -24.943 -10.383  0.00  0.00    +0.429 C 
ENDBRANCH   8  13
ENDBRANCH   3   8
BRANCH   6  18
ATOM     18  O   UNL     1      36.016 -21.865 -19.819  0.00  0.00    -0.375 OA
BRANCH  18  20
ATOM     19  C   UNL     1      35.339 -17.966 -21.071  0.00  0.00    +0.057 C 
ATOM     20  C   UNL     1      35.791 -20.571 -20.235  0.00  0.00    +0.161 C 
ATOM     21  C   UNL     1      36.642 -18.409 -20.845  0.00  0.00    +0.018 C 
ATOM     22  C   UNL     1      34.264 -18.833 -20.878  0.00  0.00    +0.018 C 
ATOM     23  C   UNL     1      36.870 -19.720 -20.424  0.00  0.00    +0.040 C 
ATOM     24  C   UNL     1      34.491 -20.143 -20.458  0.00  0.00    +0.040 C 
BRANCH  19  25
ATOM     25  N   UNL     1      35.114 -16.667 -21.488  0.00  0.00    -0.246 N 
ATOM     26  N   UNL     1      34.952 -14.905 -22.845  0.00  0.00    -0.224 NA
ATOM     27  C   UNL     1      34.723 -15.611 -20.703  0.00  0.00    +0.092 C 
ATOM     28  C   UNL     1      35.238 -16.186 -22.768  0.00  0.00    +0.172 C 
ATOM     29  C   UNL     1      34.631 -14.542 -21.562  0.00  0.00    +0.117 C 
ENDBRANCH  19  25
ENDBRANCH  18  20
ENDBRANCH   6  18
TORSDOF 5
ENDMDL
MODEL 7
REMARK VINA RESULT:     -10.2      3.054      7.730
REMARK  Name = 10157080
REMARK  5 active torsions:
REMARK  status: ('A' for Active; 'I' for Inactive)
REMARK    1  A    between atoms: C_3  and  O_8
REMARK    2  A    between atoms: C_6  and  O_18
REMARK    3  A    between atoms: O_8  and  C_13
REMARK    4  A    between atoms: O_18  and  C_20
REMARK    5  A    between atoms: C_19  and  N_25
REMARK                            x       y       z     vdW  Elec       q    Type
REMARK                         _______ _______ _______ _____ _____    ______ ____
ROOT
ATOM      1  N   UNL     1      33.591 -23.243 -15.749  0.00  0.00    -0.277 NA
ATOM      2  N   UNL     1      31.659 -22.822 -14.370  0.00  0.00    -0.319 NA
ATOM      3  C   UNL     1      32.776 -23.208 -16.815  0.00  0.00    +0.278 C 
ATOM      4  C   UNL     1      31.421 -22.993 -16.759  0.00  0.00    +0.156 C 
ATOM      5  C   UNL     1      30.909 -22.803 -15.491  0.00  0.00    +0.113 C 
ATOM      6  C   UNL     1      32.973 -23.044 -14.569  0.00  0.00    +0.317 C 
ATOM      7  C   UNL     1      29.448 -22.561 -15.317  0.00  0.00    +0.063 C 
ENDROOT
BRANCH   3   8
ATOM      8  O   UNL     1      33.367 -23.404 -18.051  0.00  0.00    -0.429 OA
BRANCH   8  13
ATOM      9  O   UNL     1      36.849 -20.488 -19.672  0.00  0.00    -0.435 OA
ATOM     10  O   UNL     1      35.250 -19.023 -20.724  0.00  0.00    -0.435 OA
ATOM     11  C   UNL     1      35.567 -20.909 -19.494  0.00  0.00    +0.179 C 
ATOM     12  C   UNL     1      34.654 -20.073 -20.095  0.00  0.00    +0.177 C 
ATOM     13  C   UNL     1      33.804 -22.304 -18.724  0.00  0.00    +0.151 C 
ATOM     14  C   UNL     1      35.173 -22.034 -18.800  0.00  0.00    +0.078 C 
ATOM     15  C   UNL     1      33.297 -20.315 -20.034  0.00  0.00    +0.043 C 
ATOM     16  C   UNL     1      32.871 -21.449 -19.338  0.00  0.00    +0.041 C 
ATOM     17  C   UNL     1      36.640 -19.294 -20.453  0.00  0.00    +0.429 C 
ENDBRANCH   8  13
ENDBRANCH   3   8
BRANCH   6  18
ATOM     18  O   UNL     1      33.768 -23.074 -13.447  0.00  0.00    -0.375 OA
BRANCH  18  20
ATOM     19  C   UNL     1      37.577 -24.667 -13.867  0.00  0.00    +0.057 C 
ATOM     20  C   UNL     1      35.033 -23.603 -13.586  0.00  0.00    +0.161 C 
ATOM     21  C   UNL     1      37.294 -23.396 -14.366  0.00  0.00    +0.018 C 
ATOM     22  C   UNL     1      36.580 -25.403 -13.226  0.00  0.00    +0.018 C 
ATOM     23  C   UNL     1      36.014 -22.860 -14.225  0.00  0.00    +0.040 C 
ATOM     24  C   UNL     1      35.301 -24.868 -13.084  0.00  0.00    +0.040 C 
BRANCH  19  25
ATOM     25  N   UNL     1      38.847 -25.198 -14.007  0.00  0.00    -0.246 N 
ATOM     26  N   UNL     1      40.926 -25.472 -14.764  0.00  0.00    -0.224 NA
ATOM     27  C   UNL     1      39.371 -26.261 -13.316  0.00  0.00    +0.092 C 
ATOM     28  C   UNL     1      39.824 -24.761 -14.866  0.00  0.00    +0.172 C 
ATOM     29  C   UNL     1      40.649 -26.408 -13.801  0.00  0.00    +0.117 C 
ENDBRANCH  19  25
ENDBRANCH  18  20
ENDBRANCH   6  18
TORSDOF 5
ENDMDL
MODEL 8
REMARK VINA RESULT:     -10.1     10.047     15.810
REMARK  Name = 10157080
REMARK  5 active torsions:
REMARK  status: ('A' for Active; 'I' for Inactive)
REMARK    1  A    between atoms: C_3  and  O_8
REMARK    2  A    between atoms: C_6  and  O_18
REMARK    3  A    between atoms: O_8  and  C_13
REMARK    4  A    between atoms: O_18  and  C_20
REMARK    5  A    between atoms: C_19  and  N_25
REMARK                            x       y       z     vdW  Elec       q    Type
REMARK                         _______ _______ _______ _____ _____    ______ ____
ROOT
ATOM      1  N   UNL     1      33.425  -9.769 -23.225  0.00  0.00    -0.277 NA
ATOM      2  N   UNL     1      31.877 -11.449 -22.455  0.00  0.00    -0.319 NA
ATOM      3  C   UNL     1      33.003  -8.989 -22.217  0.00  0.00    +0.278 C 
ATOM      4  C   UNL     1      32.044  -9.344 -21.300  0.00  0.00    +0.156 C 
ATOM      5  C   UNL     1      31.508 -10.604 -21.470  0.00  0.00    +0.113 C 
ATOM      6  C   UNL     1      32.826 -10.974 -23.285  0.00  0.00    +0.317 C 
ATOM      7  C   UNL     1      30.459 -11.090 -20.528  0.00  0.00    +0.063 C 
ENDROOT
BRANCH   3   8
ATOM      8  O   UNL     1      33.592  -7.742 -22.113  0.00  0.00    -0.429 OA
BRANCH   8  13
ATOM      9  O   UNL     1      31.236  -4.717 -25.038  0.00  0.00    -0.435 OA
ATOM     10  O   UNL     1      30.454  -3.394 -23.181  0.00  0.00    -0.435 OA
ATOM     11  C   UNL     1      31.669  -5.199 -23.842  0.00  0.00    +0.179 C 
ATOM     12  C   UNL     1      31.222  -4.444 -22.781  0.00  0.00    +0.177 C 
ATOM     13  C   UNL     1      32.809  -6.651 -22.347  0.00  0.00    +0.151 C 
ATOM     14  C   UNL     1      32.465  -6.310 -23.656  0.00  0.00    +0.078 C 
ATOM     15  C   UNL     1      31.548  -4.759 -21.477  0.00  0.00    +0.043 C 
ATOM     16  C   UNL     1      32.352  -5.880 -21.263  0.00  0.00    +0.041 C 
ATOM     17  C   UNL     1      30.466  -3.574 -24.612  0.00  0.00    +0.429 C 
ENDBRANCH   8  13
ENDBRANCH   3   8
BRANCH   6  18
ATOM     18  O   UNL     1      33.224 -11.808 -24.304  0.00  0.00    -0.375 OA
BRANCH  18  20
ATOM     19  C   UNL     1      34.475 -15.622 -23.252  0.00  0.00    +0.057 C 
ATOM     20  C   UNL     1      33.639 -13.074 -23.955  0.00  0.00    +0.161 C 
ATOM     21  C   UNL     1      34.673 -14.557 -22.374  0.00  0.00    +0.018 C 
ATOM     22  C   UNL     1      33.857 -15.406 -24.484  0.00  0.00    +0.018 C 
ATOM     23  C   UNL     1      34.252 -13.274 -22.727  0.00  0.00    +0.040 C 
ATOM     24  C   UNL     1      33.436 -14.125 -24.837  0.00  0.00    +0.040 C 
BRANCH  19  25
ATOM     25  N   UNL     1      34.893 -16.893 -22.902  0.00  0.00    -0.246 N 
ATOM     26  N   UNL     1      35.183 -19.101 -23.007  0.00  0.00    -0.224 NA
ATOM     27  C   UNL     1      35.627 -17.238 -21.795  0.00  0.00    +0.092 C 
ATOM     28  C   UNL     1      34.652 -18.053 -23.596  0.00  0.00    +0.172 C 
ATOM     29  C   UNL     1      35.791 -18.600 -21.884  0.00  0.00    +0.117 C 
ENDBRANCH  19  25
ENDBRANCH  18  20
ENDBRANCH   6  18
TORSDOF 5
ENDMDL
MODEL 9
REMARK VINA RESULT:      -9.9      9.767     15.685
REMARK  Name = 10157080
REMARK  5 active torsions:
REMARK  status: ('A' for Active; 'I' for Inactive)
REMARK    1  A    between atoms: C_3  and  O_8
REMARK    2  A    between atoms: C_6  and  O_18
REMARK    3  A    between atoms: O_8  and  C_13
REMARK    4  A    between atoms: O_18  and  C_20
REMARK    5  A    between atoms: C_19  and  N_25
REMARK                            x       y       z     vdW  Elec       q    Type
REMARK                         _______ _______ _______ _____ _____    ______ ____
ROOT
ATOM      1  N   UNL     1      33.500  -9.745 -23.201  0.00  0.00    -0.277 NA
ATOM      2  N   UNL     1      31.840 -11.355 -22.520  0.00  0.00    -0.319 NA
ATOM      3  C   UNL     1      33.097  -8.971 -22.180  0.00  0.00    +0.278 C 
ATOM      4  C   UNL     1      32.095  -9.296 -21.298  0.00  0.00    +0.156 C 
ATOM      5  C   UNL     1      31.493 -10.518 -21.519  0.00  0.00    +0.113 C 
ATOM      6  C   UNL     1      32.835 -10.911 -23.311  0.00  0.00    +0.317 C 
ATOM      7  C   UNL     1      30.394 -10.970 -20.618  0.00  0.00    +0.063 C 
ENDROOT
BRANCH   3   8
ATOM      8  O   UNL     1      33.753  -7.763 -22.024  0.00  0.00    -0.429 OA
BRANCH   8  13
ATOM      9  O   UNL     1      31.833  -4.914 -25.408  0.00  0.00    -0.435 OA
ATOM     10  O   UNL     1      33.991  -4.480 -26.389  0.00  0.00    -0.435 OA
ATOM     11  C   UNL     1      32.837  -5.557 -24.753  0.00  0.00    +0.179 C 
ATOM     12  C   UNL     1      34.069  -5.309 -25.313  0.00  0.00    +0.177 C 
ATOM     13  C   UNL     1      33.846  -6.950 -23.113  0.00  0.00    +0.151 C 
ATOM     14  C   UNL     1      32.692  -6.374 -23.651  0.00  0.00    +0.078 C 
ATOM     15  C   UNL     1      35.225  -5.865 -24.802  0.00  0.00    +0.043 C 
ATOM     16  C   UNL     1      35.105  -6.696 -23.686  0.00  0.00    +0.041 C 
ATOM     17  C   UNL     1      32.571  -4.233 -26.443  0.00  0.00    +0.429 C 
ENDBRANCH   8  13
ENDBRANCH   3   8
BRANCH   6  18
ATOM     18  O   UNL     1      33.212 -11.737 -24.345  0.00  0.00    -0.375 OA
BRANCH  18  20
ATOM     19  C   UNL     1      34.440 -15.575 -23.353  0.00  0.00    +0.057 C 
ATOM     20  C   UNL     1      33.619 -13.011 -24.016  0.00  0.00    +0.161 C 
ATOM     21  C   UNL     1      34.661 -14.521 -22.466  0.00  0.00    +0.018 C 
ATOM     22  C   UNL     1      33.805 -15.339 -24.572  0.00  0.00    +0.018 C 
ATOM     23  C   UNL     1      34.248 -13.231 -22.799  0.00  0.00    +0.040 C 
ATOM     24  C   UNL     1      33.392 -14.050 -24.906  0.00  0.00    +0.040 C 
BRANCH  19  25
ATOM     25  N   UNL     1      34.850 -16.854 -23.022  0.00  0.00    -0.246 N 
ATOM     26  N   UNL     1      35.845 -18.506 -21.905  0.00  0.00    -0.224 NA
ATOM     27  C   UNL     1      34.556 -18.009 -23.702  0.00  0.00    +0.092 C 
ATOM     28  C   UNL     1      35.629 -17.211 -21.950  0.00  0.00    +0.172 C 
ATOM     29  C   UNL     1      35.180 -19.009 -22.994  0.00  0.00    +0.117 C 
ENDBRANCH  19  25
ENDBRANCH  18  20
ENDBRANCH   6  18
TORSDOF 5
ENDMDL
