MODEL 1
REMARK VINA RESULT:     -12.2      0.000      0.000
REMARK  Name = 52920501
REMARK  9 active torsions:
REMARK  status: ('A' for Active; 'I' for Inactive)
REMARK    1  A    between atoms: N_1  and  C_12
REMARK    2  A    between atoms: C_5  and  O_27
REMARK    3  A    between atoms: C_9  and  C_15
REMARK    4  A    between atoms: C_15  and  S_16
REMARK    5  A    between atoms: S_16  and  N_19
REMARK    6  A    between atoms: N_19  and  C_21
REMARK    7  A    between atoms: C_21  and  C_22
REMARK    8  A    between atoms: C_22  and  N_23
REMARK    9  A    between atoms: O_27  and  C_35
REMARK                            x       y       z     vdW  Elec       q    Type
REMARK                         _______ _______ _______ _____ _____    ______ ____
ROOT
ATOM      1  N   UNL     1      32.598 -22.445 -18.143  0.00  0.00    -0.247 N 
ATOM      2  N   UNL     1      33.268 -22.775 -15.918  0.00  0.00    -0.300 NA
ATOM      3  N   UNL     1      31.070 -23.429 -16.659  0.00  0.00    -0.170 NA
ATOM      4  C   UNL     1      32.298 -22.906 -16.842  0.00  0.00    +0.152 C 
ATOM      5  C   UNL     1      32.946 -23.224 -14.687  0.00  0.00    +0.295 C 
ATOM      6  C   UNL     1      31.725 -23.781 -14.369  0.00  0.00    +0.094 C 
ATOM      7  C   UNL     1      30.816 -23.859 -15.405  0.00  0.00    +0.118 C 
ATOM      8  H   UNL     1      31.861 -22.561 -18.785  0.00  0.00    +0.165 HD
ENDROOT
BRANCH   1  12
ATOM      9  C   UNL     1      34.765 -20.378 -20.320  0.00  0.00    +0.004 C 
ATOM     10  C   UNL     1      33.626 -20.964 -19.768  0.00  0.00    +0.013 C 
ATOM     11  C   UNL     1      36.025 -20.683 -19.806  0.00  0.00    -0.002 C 
ATOM     12  C   UNL     1      33.747 -21.853 -18.701  0.00  0.00    +0.057 C 
ATOM     13  C   UNL     1      36.147 -21.573 -18.738  0.00  0.00    +0.001 C 
ATOM     14  C   UNL     1      35.007 -22.158 -18.186  0.00  0.00    +0.015 C 
BRANCH   9  15
ATOM     15  C   UNL     1      34.635 -19.426 -21.461  0.00  0.00    +0.195 C 
BRANCH  15  16
ATOM     16  S   UNL     1      35.746 -18.085 -21.177  0.00  0.00    +0.045 S 
ATOM     17  O   UNL     1      35.051 -17.065 -20.408  0.00  0.00    -0.157 OA
ATOM     18  O   UNL     1      37.000 -18.638 -20.691  0.00  0.00    -0.157 OA
BRANCH  16  19
ATOM     19  N   UNL     1      35.995 -17.523 -22.773  0.00  0.00    -0.185 NA
ATOM     20  H   UNL     1      36.656 -18.162 -23.215  0.00  0.00    +0.148 HD
BRANCH  19  21
ATOM     21  C   UNL     1      34.838 -17.406 -23.678  0.00  0.00    +0.068 C 
BRANCH  21  22
ATOM     22  C   UNL     1      34.881 -16.054 -24.376  0.00  0.00    -0.058 C 
BRANCH  22  23
ATOM     23  N   UNL     1      33.850 -15.175 -23.838  0.00  0.00    +0.385 N 
ATOM     24  C   UNL     1      34.413 -14.281 -22.824  0.00  0.00    -0.101 C 
ATOM     25  C   UNL     1      33.225 -14.397 -24.909  0.00  0.00    -0.101 C 
ATOM     26  H   UNL     1      33.135 -15.754 -23.398  0.00  0.00    -0.080 HD
ENDBRANCH  22  23
ENDBRANCH  21  22
ENDBRANCH  19  21
ENDBRANCH  16  19
ENDBRANCH  15  16
ENDBRANCH   9  15
ENDBRANCH   1  12
BRANCH   5  27
ATOM     27  O   UNL     1      33.913 -23.112 -13.703  0.00  0.00    -0.427 OA
BRANCH  27  35
ATOM     28  N   UNL     1      39.087 -24.431 -14.946  0.00  0.00    -0.316 N 
ATOM     29  C   UNL     1      37.163 -24.801 -13.880  0.00  0.00    +0.017 C 
ATOM     30  C   UNL     1      37.816 -23.936 -14.760  0.00  0.00    +0.048 C 
ATOM     31  C   UNL     1      39.260 -25.576 -14.216  0.00  0.00    +0.026 C 
ATOM     32  C   UNL     1      38.086 -25.831 -13.545  0.00  0.00    +0.012 C 
ATOM     33  C   UNL     1      35.830 -24.522 -13.517  0.00  0.00    +0.039 C 
ATOM     34  C   UNL     1      37.201 -22.801 -15.298  0.00  0.00    +0.018 C 
ATOM     35  C   UNL     1      35.202 -23.389 -14.048  0.00  0.00    +0.148 C 
ATOM     36  C   UNL     1      35.879 -22.543 -14.924  0.00  0.00    +0.039 C 
ATOM     37  C   UNL     1      40.538 -26.311 -14.234  0.00  0.00    +0.047 C 
ATOM     38  H   UNL     1      39.773 -24.021 -15.521  0.00  0.00    +0.152 HD
ENDBRANCH  27  35
ENDBRANCH   5  27
TORSDOF 9
ENDMDL
MODEL 2
REMARK VINA RESULT:     -11.8      3.451     11.883
REMARK  Name = 52920501
REMARK  9 active torsions:
REMARK  status: ('A' for Active; 'I' for Inactive)
REMARK    1  A    between atoms: N_1  and  C_12
REMARK    2  A    between atoms: C_5  and  O_27
REMARK    3  A    between atoms: C_9  and  C_15
REMARK    4  A    between atoms: C_15  and  S_16
REMARK    5  A    between atoms: S_16  and  N_19
REMARK    6  A    between atoms: N_19  and  C_21
REMARK    7  A    between atoms: C_21  and  C_22
REMARK    8  A    between atoms: C_22  and  N_23
REMARK    9  A    between atoms: O_27  and  C_35
REMARK                            x       y       z     vdW  Elec       q    Type
REMARK                         _______ _______ _______ _____ _____    ______ ____
ROOT
ATOM      1  N   UNL     1      34.846 -18.840 -23.027  0.00  0.00    -0.247 N 
ATOM      2  N   UNL     1      34.771 -16.569 -22.443  0.00  0.00    -0.300 NA
ATOM      3  N   UNL     1      34.363 -17.278 -24.710  0.00  0.00    -0.170 NA
ATOM      4  C   UNL     1      34.650 -17.496 -23.412  0.00  0.00    +0.152 C 
ATOM      5  C   UNL     1      34.578 -15.296 -22.846  0.00  0.00    +0.295 C 
ATOM      6  C   UNL     1      34.278 -14.939 -24.145  0.00  0.00    +0.094 C 
ATOM      7  C   UNL     1      34.183 -15.983 -25.043  0.00  0.00    +0.118 C 
ATOM      8  H   UNL     1      34.748 -19.483 -23.766  0.00  0.00    +0.165 HD
ENDROOT
BRANCH   1  12
ATOM      9  C   UNL     1      34.456 -20.662 -19.827  0.00  0.00    +0.004 C 
ATOM     10  C   UNL     1      34.151 -20.066 -21.051  0.00  0.00    +0.013 C 
ATOM     11  C   UNL     1      35.764 -20.631 -19.344  0.00  0.00    -0.002 C 
ATOM     12  C   UNL     1      35.153 -19.441 -21.792  0.00  0.00    +0.057 C 
ATOM     13  C   UNL     1      36.767 -20.006 -20.085  0.00  0.00    +0.001 C 
ATOM     14  C   UNL     1      36.461 -19.410 -21.309  0.00  0.00    +0.015 C 
BRANCH   9  15
ATOM     15  C   UNL     1      33.383 -21.331 -19.036  0.00  0.00    +0.195 C 
BRANCH  15  16
ATOM     16  S   UNL     1      34.047 -22.828 -18.380  0.00  0.00    +0.045 S 
ATOM     17  O   UNL     1      34.139 -23.801 -19.456  0.00  0.00    -0.157 OA
ATOM     18  O   UNL     1      35.226 -22.490 -17.598  0.00  0.00    -0.157 OA
BRANCH  16  19
ATOM     19  N   UNL     1      32.806 -23.290 -17.298  0.00  0.00    -0.185 NA
ATOM     20  H   UNL     1      32.465 -24.201 -17.606  0.00  0.00    +0.148 HD
BRANCH  19  21
ATOM     21  C   UNL     1      33.117 -23.409 -15.862  0.00  0.00    +0.068 C 
BRANCH  21  22
ATOM     22  C   UNL     1      31.861 -23.126 -15.051  0.00  0.00    -0.058 C 
BRANCH  22  23
ATOM     23  N   UNL     1      30.861 -24.159 -15.291  0.00  0.00    +0.385 N 
ATOM     24  C   UNL     1      30.752 -25.049 -14.134  0.00  0.00    -0.101 C 
ATOM     25  C   UNL     1      29.561 -23.558 -15.593  0.00  0.00    -0.101 C 
ATOM     26  H   UNL     1      31.160 -24.709 -16.097  0.00  0.00    -0.080 HD
ENDBRANCH  22  23
ENDBRANCH  21  22
ENDBRANCH  19  21
ENDBRANCH  16  19
ENDBRANCH  15  16
ENDBRANCH   9  15
ENDBRANCH   1  12
BRANCH   5  27
ATOM     27  O   UNL     1      34.690 -14.306 -21.885  0.00  0.00    -0.427 OA
BRANCH  27  35
ATOM     28  N   UNL     1      30.993 -10.260 -22.007  0.00  0.00    -0.316 N 
ATOM     29  C   UNL     1      32.864 -11.239 -22.725  0.00  0.00    +0.017 C 
ATOM     30  C   UNL     1      31.802 -11.357 -21.825  0.00  0.00    +0.048 C 
ATOM     31  C   UNL     1      31.503  -9.452 -22.987  0.00  0.00    +0.026 C 
ATOM     32  C   UNL     1      32.663 -10.032 -23.451  0.00  0.00    +0.012 C 
ATOM     33  C   UNL     1      33.851 -12.244 -22.747  0.00  0.00    +0.039 C 
ATOM     34  C   UNL     1      31.678 -12.436 -20.943  0.00  0.00    +0.018 C 
ATOM     35  C   UNL     1      33.740 -13.329 -21.870  0.00  0.00    +0.148 C 
ATOM     36  C   UNL     1      32.669 -13.422 -20.982  0.00  0.00    +0.039 C 
ATOM     37  C   UNL     1      30.828  -8.202 -23.380  0.00  0.00    +0.047 C 
ATOM     38  H   UNL     1      30.165 -10.081 -21.504  0.00  0.00    +0.152 HD
ENDBRANCH  27  35
ENDBRANCH   5  27
TORSDOF 9
ENDMDL
MODEL 3
REMARK VINA RESULT:     -11.5      2.851     11.279
REMARK  Name = 52920501
REMARK  9 active torsions:
REMARK  status: ('A' for Active; 'I' for Inactive)
REMARK    1  A    between atoms: N_1  and  C_12
REMARK    2  A    between atoms: C_5  and  O_27
REMARK    3  A    between atoms: C_9  and  C_15
REMARK    4  A    between atoms: C_15  and  S_16
REMARK    5  A    between atoms: S_16  and  N_19
REMARK    6  A    between atoms: N_19  and  C_21
REMARK    7  A    between atoms: C_21  and  C_22
REMARK    8  A    between atoms: C_22  and  N_23
REMARK    9  A    between atoms: O_27  and  C_35
REMARK                            x       y       z     vdW  Elec       q    Type
REMARK                         _______ _______ _______ _____ _____    ______ ____
ROOT
ATOM      1  N   UNL     1      35.047 -20.633 -21.122  0.00  0.00    -0.247 N 
ATOM      2  N   UNL     1      34.960 -18.339 -20.637  0.00  0.00    -0.300 NA
ATOM      3  N   UNL     1      35.363 -19.115 -22.883  0.00  0.00    -0.170 NA
ATOM      4  C   UNL     1      35.127 -19.297 -21.569  0.00  0.00    +0.152 C 
ATOM      5  C   UNL     1      35.044 -17.074 -21.099  0.00  0.00    +0.295 C 
ATOM      6  C   UNL     1      35.281 -16.754 -22.420  0.00  0.00    +0.094 C 
ATOM      7  C   UNL     1      35.434 -17.826 -23.275  0.00  0.00    +0.118 C 
ATOM      8  H   UNL     1      35.174 -21.299 -21.836  0.00  0.00    +0.165 HD
ENDROOT
BRANCH   1  12
ATOM      9  C   UNL     1      35.658 -21.966 -17.722  0.00  0.00    +0.004 C 
ATOM     10  C   UNL     1      35.885 -21.404 -18.978  0.00  0.00    +0.013 C 
ATOM     11  C   UNL     1      34.365 -22.326 -17.342  0.00  0.00    -0.002 C 
ATOM     12  C   UNL     1      34.819 -21.201 -19.854  0.00  0.00    +0.057 C 
ATOM     13  C   UNL     1      33.298 -22.123 -18.218  0.00  0.00    +0.001 C 
ATOM     14  C   UNL     1      33.526 -21.561 -19.474  0.00  0.00    +0.015 C 
BRANCH   9  15
ATOM     15  C   UNL     1      36.798 -22.182 -16.785  0.00  0.00    +0.195 C 
BRANCH  15  16
ATOM     16  S   UNL     1      36.166 -22.958 -15.332  0.00  0.00    +0.045 S 
ATOM     17  O   UNL     1      35.230 -22.047 -14.694  0.00  0.00    -0.157 OA
ATOM     18  O   UNL     1      35.748 -24.304 -15.689  0.00  0.00    -0.157 OA
BRANCH  16  19
ATOM     19  N   UNL     1      37.583 -23.076 -14.381  0.00  0.00    -0.185 NA
ATOM     20  H   UNL     1      38.077 -22.187 -14.469  0.00  0.00    +0.148 HD
BRANCH  19  21
ATOM     21  C   UNL     1      37.455 -23.357 -12.940  0.00  0.00    +0.068 C 
BRANCH  21  22
ATOM     22  C   UNL     1      37.519 -24.861 -12.714  0.00  0.00    -0.058 C 
BRANCH  22  23
ATOM     23  N   UNL     1      38.215 -25.508 -13.820  0.00  0.00    +0.385 N 
ATOM     24  C   UNL     1      39.634 -25.684 -13.505  0.00  0.00    -0.101 C 
ATOM     25  C   UNL     1      37.601 -26.801 -14.130  0.00  0.00    -0.101 C 
ATOM     26  H   UNL     1      38.137 -24.907 -14.640  0.00  0.00    -0.080 HD
ENDBRANCH  22  23
ENDBRANCH  21  22
ENDBRANCH  19  21
ENDBRANCH  16  19
ENDBRANCH  15  16
ENDBRANCH   9  15
ENDBRANCH   1  12
BRANCH   5  27
ATOM     27  O   UNL     1      34.878 -16.054 -20.178  0.00  0.00    -0.427 OA
BRANCH  27  35
ATOM     28  N   UNL     1      32.085 -11.663 -21.901  0.00  0.00    -0.316 N 
ATOM     29  C   UNL     1      33.781 -13.104 -22.058  0.00  0.00    +0.017 C 
ATOM     30  C   UNL     1      32.640 -12.779 -21.320  0.00  0.00    +0.048 C 
ATOM     31  C   UNL     1      32.831 -11.270 -22.979  0.00  0.00    +0.026 C 
ATOM     32  C   UNL     1      33.889 -12.142 -23.102  0.00  0.00    +0.012 C 
ATOM     33  C   UNL     1      34.546 -14.221 -21.670  0.00  0.00    +0.039 C 
ATOM     34  C   UNL     1      32.226 -13.521 -20.208  0.00  0.00    +0.018 C 
ATOM     35  C   UNL     1      34.143 -14.972 -20.560  0.00  0.00    +0.148 C 
ATOM     36  C   UNL     1      33.001 -14.625 -19.841  0.00  0.00    +0.039 C 
ATOM     37  C   UNL     1      32.455 -10.094 -23.784  0.00  0.00    +0.047 C 
ATOM     38  H   UNL     1      31.267 -11.212 -21.587  0.00  0.00    +0.152 HD
ENDBRANCH  27  35
ENDBRANCH   5  27
TORSDOF 9
ENDMDL
MODEL 4
REMARK VINA RESULT:     -11.4      1.588      4.965
REMARK  Name = 52920501
REMARK  9 active torsions:
REMARK  status: ('A' for Active; 'I' for Inactive)
REMARK    1  A    between atoms: N_1  and  C_12
REMARK    2  A    between atoms: C_5  and  O_27
REMARK    3  A    between atoms: C_9  and  C_15
REMARK    4  A    between atoms: C_15  and  S_16
REMARK    5  A    between atoms: S_16  and  N_19
REMARK    6  A    between atoms: N_19  and  C_21
REMARK    7  A    between atoms: C_21  and  C_22
REMARK    8  A    between atoms: C_22  and  N_23
REMARK    9  A    between atoms: O_27  and  C_35
REMARK                            x       y       z     vdW  Elec       q    Type
REMARK                         _______ _______ _______ _____ _____    ______ ____
ROOT
ATOM      1  N   UNL     1      36.405 -21.676 -17.446  0.00  0.00    -0.247 N 
ATOM      2  N   UNL     1      35.376 -23.272 -16.068  0.00  0.00    -0.300 NA
ATOM      3  N   UNL     1      37.635 -22.545 -15.646  0.00  0.00    -0.170 NA
ATOM      4  C   UNL     1      36.475 -22.540 -16.331  0.00  0.00    +0.152 C 
ATOM      5  C   UNL     1      35.478 -24.087 -14.997  0.00  0.00    +0.295 C 
ATOM      6  C   UNL     1      36.609 -24.185 -14.213  0.00  0.00    +0.094 C 
ATOM      7  C   UNL     1      37.667 -23.382 -14.588  0.00  0.00    +0.118 C 
ATOM      8  H   UNL     1      37.230 -21.161 -17.601  0.00  0.00    +0.165 HD
ENDROOT
BRANCH   1  12
ATOM      9  C   UNL     1      34.673 -20.466 -20.486  0.00  0.00    +0.004 C 
ATOM     10  C   UNL     1      35.683 -20.733 -19.563  0.00  0.00    +0.013 C 
ATOM     11  C   UNL     1      33.364 -20.871 -20.224  0.00  0.00    -0.002 C 
ATOM     12  C   UNL     1      35.386 -21.406 -18.378  0.00  0.00    +0.057 C 
ATOM     13  C   UNL     1      33.066 -21.544 -19.039  0.00  0.00    +0.001 C 
ATOM     14  C   UNL     1      34.077 -21.811 -18.116  0.00  0.00    +0.015 C 
BRANCH   9  15
ATOM     15  C   UNL     1      34.992 -19.747 -21.753  0.00  0.00    +0.195 C 
BRANCH  15  16
ATOM     16  S   UNL     1      35.839 -18.258 -21.333  0.00  0.00    +0.045 S 
ATOM     17  O   UNL     1      34.965 -17.450 -20.499  0.00  0.00    -0.157 OA
ATOM     18  O   UNL     1      37.169 -18.616 -20.867  0.00  0.00    -0.157 OA
BRANCH  16  19
ATOM     19  N   UNL     1      35.995 -17.525 -22.871  0.00  0.00    -0.185 NA
ATOM     20  H   UNL     1      36.501 -18.182 -23.465  0.00  0.00    +0.148 HD
BRANCH  19  21
ATOM     21  C   UNL     1      34.777 -17.133 -23.602  0.00  0.00    +0.068 C 
BRANCH  21  22
ATOM     22  C   UNL     1      34.839 -15.646 -23.920  0.00  0.00    -0.058 C 
BRANCH  22  23
ATOM     23  N   UNL     1      33.819 -14.925 -23.168  0.00  0.00    +0.385 N 
ATOM     24  C   UNL     1      34.408 -14.264 -22.001  0.00  0.00    -0.101 C 
ATOM     25  C   UNL     1      33.146 -13.943 -24.020  0.00  0.00    -0.101 C 
ATOM     26  H   UNL     1      33.127 -15.601 -22.842  0.00  0.00    -0.080 HD
ENDBRANCH  22  23
ENDBRANCH  21  22
ENDBRANCH  19  21
ENDBRANCH  16  19
ENDBRANCH  15  16
ENDBRANCH   9  15
ENDBRANCH   1  12
BRANCH   5  27
ATOM     27  O   UNL     1      34.373 -24.860 -14.685  0.00  0.00    -0.427 OA
BRANCH  27  35
ATOM     28  N   UNL     1      29.494 -22.380 -14.350  0.00  0.00    -0.316 N 
ATOM     29  C   UNL     1      30.998 -23.631 -15.424  0.00  0.00    +0.017 C 
ATOM     30  C   UNL     1      30.754 -22.924 -14.244  0.00  0.00    +0.048 C 
ATOM     31  C   UNL     1      28.934 -22.717 -15.552  0.00  0.00    +0.026 C 
ATOM     32  C   UNL     1      29.841 -23.491 -16.240  0.00  0.00    +0.012 C 
ATOM     33  C   UNL     1      32.232 -24.292 -15.577  0.00  0.00    +0.039 C 
ATOM     34  C   UNL     1      31.688 -22.846 -13.205  0.00  0.00    +0.018 C 
ATOM     35  C   UNL     1      33.176 -24.223 -14.545  0.00  0.00    +0.148 C 
ATOM     36  C   UNL     1      32.906 -23.510 -13.379  0.00  0.00    +0.039 C 
ATOM     37  C   UNL     1      27.582 -22.260 -15.922  0.00  0.00    +0.047 C 
ATOM     38  H   UNL     1      29.058 -21.829 -13.660  0.00  0.00    +0.152 HD
ENDBRANCH  27  35
ENDBRANCH   5  27
TORSDOF 9
ENDMDL
MODEL 5
REMARK VINA RESULT:     -11.4      3.139     10.757
REMARK  Name = 52920501
REMARK  9 active torsions:
REMARK  status: ('A' for Active; 'I' for Inactive)
REMARK    1  A    between atoms: N_1  and  C_12
REMARK    2  A    between atoms: C_5  and  O_27
REMARK    3  A    between atoms: C_9  and  C_15
REMARK    4  A    between atoms: C_15  and  S_16
REMARK    5  A    between atoms: S_16  and  N_19
REMARK    6  A    between atoms: N_19  and  C_21
REMARK    7  A    between atoms: C_21  and  C_22
REMARK    8  A    between atoms: C_22  and  N_23
REMARK    9  A    between atoms: O_27  and  C_35
REMARK                            x       y       z     vdW  Elec       q    Type
REMARK                         _______ _______ _______ _____ _____    ______ ____
ROOT
ATOM      1  N   UNL     1      35.307 -21.351 -20.194  0.00  0.00    -0.247 N 
ATOM      2  N   UNL     1      35.402 -19.010 -20.324  0.00  0.00    -0.300 NA
ATOM      3  N   UNL     1      34.883 -20.338 -22.268  0.00  0.00    -0.170 NA
ATOM      4  C   UNL     1      35.191 -20.175 -20.966  0.00  0.00    +0.152 C 
ATOM      5  C   UNL     1      35.284 -17.907 -21.093  0.00  0.00    +0.295 C 
ATOM      6  C   UNL     1      34.972 -17.939 -22.437  0.00  0.00    +0.094 C 
ATOM      7  C   UNL     1      34.781 -19.194 -22.976  0.00  0.00    +0.118 C 
ATOM      8  H   UNL     1      35.145 -22.178 -20.703  0.00  0.00    +0.165 HD
ENDROOT
BRANCH   1  12
ATOM      9  C   UNL     1      35.038 -22.540 -16.698  0.00  0.00    +0.004 C 
ATOM     10  C   UNL     1      34.740 -22.321 -18.042  0.00  0.00    +0.013 C 
ATOM     11  C   UNL     1      36.205 -22.009 -16.147  0.00  0.00    -0.002 C 
ATOM     12  C   UNL     1      35.607 -21.572 -18.837  0.00  0.00    +0.057 C 
ATOM     13  C   UNL     1      37.074 -21.260 -16.942  0.00  0.00    +0.001 C 
ATOM     14  C   UNL     1      36.774 -21.042 -18.286  0.00  0.00    +0.015 C 
BRANCH   9  15
ATOM     15  C   UNL     1      34.110 -23.342 -15.849  0.00  0.00    +0.195 C 
BRANCH  15  16
ATOM     16  S   UNL     1      35.074 -24.171 -14.626  0.00  0.00    +0.045 S 
ATOM     17  O   UNL     1      35.948 -25.122 -15.294  0.00  0.00    -0.157 OA
ATOM     18  O   UNL     1      35.633 -23.164 -13.738  0.00  0.00    -0.157 OA
BRANCH  16  19
ATOM     19  N   UNL     1      33.859 -25.018 -13.771  0.00  0.00    -0.185 NA
ATOM     20  H   UNL     1      34.291 -25.386 -12.923  0.00  0.00    +0.148 HD
BRANCH  19  21
ATOM     21  C   UNL     1      32.642 -24.297 -13.357  0.00  0.00    +0.068 C 
BRANCH  21  22
ATOM     22  C   UNL     1      31.423 -25.159 -13.650  0.00  0.00    -0.058 C 
BRANCH  22  23
ATOM     23  N   UNL     1      30.541 -24.484 -14.595  0.00  0.00    +0.385 N 
ATOM     24  C   UNL     1      29.169 -24.978 -14.463  0.00  0.00    -0.101 C 
ATOM     25  C   UNL     1      30.580 -23.034 -14.391  0.00  0.00    -0.101 C 
ATOM     26  H   UNL     1      30.871 -24.688 -15.538  0.00  0.00    -0.080 HD
ENDBRANCH  22  23
ENDBRANCH  21  22
ENDBRANCH  19  21
ENDBRANCH  16  19
ENDBRANCH  15  16
ENDBRANCH   9  15
ENDBRANCH   1  12
BRANCH   5  27
ATOM     27  O   UNL     1      35.490 -16.685 -20.477  0.00  0.00    -0.427 OA
BRANCH  27  35
ATOM     28  N   UNL     1      32.452 -12.396 -22.037  0.00  0.00    -0.316 N 
ATOM     29  C   UNL     1      33.121 -13.886 -20.517  0.00  0.00    +0.017 C 
ATOM     30  C   UNL     1      33.289 -13.470 -21.840  0.00  0.00    +0.048 C 
ATOM     31  C   UNL     1      31.761 -12.118 -20.889  0.00  0.00    +0.026 C 
ATOM     32  C   UNL     1      32.154 -13.024 -19.929  0.00  0.00    +0.012 C 
ATOM     33  C   UNL     1      33.871 -14.983 -20.050  0.00  0.00    +0.039 C 
ATOM     34  C   UNL     1      34.174 -14.100 -22.722  0.00  0.00    +0.018 C 
ATOM     35  C   UNL     1      34.761 -15.623 -20.922  0.00  0.00    +0.148 C 
ATOM     36  C   UNL     1      34.908 -15.186 -22.237  0.00  0.00    +0.039 C 
ATOM     37  C   UNL     1      30.791 -11.010 -20.826  0.00  0.00    +0.047 C 
ATOM     38  H   UNL     1      32.362 -11.898 -22.882  0.00  0.00    +0.152 HD
ENDBRANCH  27  35
ENDBRANCH   5  27
TORSDOF 9
ENDMDL
MODEL 6
REMARK VINA RESULT:     -11.0      4.593      9.506
REMARK  Name = 52920501
REMARK  9 active torsions:
REMARK  status: ('A' for Active; 'I' for Inactive)
REMARK    1  A    between atoms: N_1  and  C_12
REMARK    2  A    between atoms: C_5  and  O_27
REMARK    3  A    between atoms: C_9  and  C_15
REMARK    4  A    between atoms: C_15  and  S_16
REMARK    5  A    between atoms: S_16  and  N_19
REMARK    6  A    between atoms: N_19  and  C_21
REMARK    7  A    between atoms: C_21  and  C_22
REMARK    8  A    between atoms: C_22  and  N_23
REMARK    9  A    between atoms: O_27  and  C_35
REMARK                            x       y       z     vdW  Elec       q    Type
REMARK                         _______ _______ _______ _____ _____    ______ ____
ROOT
ATOM      1  N   UNL     1      33.003 -14.299 -24.677  0.00  0.00    -0.247 N 
ATOM      2  N   UNL     1      34.400 -15.581 -23.296  0.00  0.00    -0.300 NA
ATOM      3  N   UNL     1      33.395 -16.536 -25.267  0.00  0.00    -0.170 NA
ATOM      4  C   UNL     1      33.631 -15.533 -24.400  0.00  0.00    +0.152 C 
ATOM      5  C   UNL     1      34.983 -16.775 -23.060  0.00  0.00    +0.295 C 
ATOM      6  C   UNL     1      34.823 -17.880 -23.871  0.00  0.00    +0.094 C 
ATOM      7  C   UNL     1      34.010 -17.700 -24.971  0.00  0.00    +0.118 C 
ATOM      8  H   UNL     1      32.451 -14.310 -25.493  0.00  0.00    +0.165 HD
ENDROOT
BRANCH   1  12
ATOM      9  C   UNL     1      31.959 -11.465 -22.536  0.00  0.00    +0.004 C 
ATOM     10  C   UNL     1      31.948 -12.696 -23.191  0.00  0.00    +0.013 C 
ATOM     11  C   UNL     1      33.034 -10.592 -22.709  0.00  0.00    -0.002 C 
ATOM     12  C   UNL     1      33.013 -13.057 -24.017  0.00  0.00    +0.057 C 
ATOM     13  C   UNL     1      34.099 -10.952 -23.536  0.00  0.00    +0.001 C 
ATOM     14  C   UNL     1      34.087 -12.184 -24.190  0.00  0.00    +0.015 C 
BRANCH   9  15
ATOM     15  C   UNL     1      30.821 -11.080 -21.652  0.00  0.00    +0.195 C 
BRANCH  15  16
ATOM     16  S   UNL     1      31.462 -10.807 -20.032  0.00  0.00    +0.045 S 
ATOM     17  O   UNL     1      30.363 -10.432 -19.158  0.00  0.00    -0.157 OA
ATOM     18  O   UNL     1      32.315 -11.935 -19.691  0.00  0.00    -0.157 OA
BRANCH  16  19
ATOM     19  N   UNL     1      32.464  -9.447 -20.301  0.00  0.00    -0.185 NA
ATOM     20  H   UNL     1      32.381  -9.205 -21.289  0.00  0.00    +0.148 HD
BRANCH  19  21
ATOM     21  C   UNL     1      32.215  -8.213 -19.533  0.00  0.00    +0.068 C 
BRANCH  21  22
ATOM     22  C   UNL     1      33.127  -7.109 -20.048  0.00  0.00    -0.058 C 
BRANCH  22  23
ATOM     23  N   UNL     1      32.935  -6.921 -21.480  0.00  0.00    +0.385 N 
ATOM     24  C   UNL     1      32.339  -5.611 -21.753  0.00  0.00    -0.101 C 
ATOM     25  C   UNL     1      34.205  -7.058 -22.195  0.00  0.00    -0.101 C 
ATOM     26  H   UNL     1      32.295  -7.643 -21.813  0.00  0.00    -0.080 HD
ENDBRANCH  22  23
ENDBRANCH  21  22
ENDBRANCH  19  21
ENDBRANCH  16  19
ENDBRANCH  15  16
ENDBRANCH   9  15
ENDBRANCH   1  12
BRANCH   5  27
ATOM     27  O   UNL     1      35.786 -16.874 -21.937  0.00  0.00    -0.427 OA
BRANCH  27  35
ATOM     28  N   UNL     1      35.542 -21.641 -19.238  0.00  0.00    -0.316 N 
ATOM     29  C   UNL     1      34.581 -19.892 -20.237  0.00  0.00    +0.017 C 
ATOM     30  C   UNL     1      35.810 -20.465 -19.902  0.00  0.00    +0.048 C 
ATOM     31  C   UNL     1      34.190 -21.831 -19.141  0.00  0.00    +0.026 C 
ATOM     32  C   UNL     1      33.568 -20.765 -19.751  0.00  0.00    +0.012 C 
ATOM     33  C   UNL     1      34.571 -18.667 -20.931  0.00  0.00    +0.039 C 
ATOM     34  C   UNL     1      37.034 -19.871 -20.228  0.00  0.00    +0.018 C 
ATOM     35  C   UNL     1      35.787 -18.060 -21.264  0.00  0.00    +0.148 C 
ATOM     36  C   UNL     1      36.999 -18.655 -20.917  0.00  0.00    +0.039 C 
ATOM     37  C   UNL     1      33.629 -23.019 -18.472  0.00  0.00    +0.047 C 
ATOM     38  H   UNL     1      36.224 -22.256 -18.884  0.00  0.00    +0.152 HD
ENDBRANCH  27  35
ENDBRANCH   5  27
TORSDOF 9
ENDMDL
MODEL 7
REMARK VINA RESULT:     -11.0      2.788     10.980
REMARK  Name = 52920501
REMARK  9 active torsions:
REMARK  status: ('A' for Active; 'I' for Inactive)
REMARK    1  A    between atoms: N_1  and  C_12
REMARK    2  A    between atoms: C_5  and  O_27
REMARK    3  A    between atoms: C_9  and  C_15
REMARK    4  A    between atoms: C_15  and  S_16
REMARK    5  A    between atoms: S_16  and  N_19
REMARK    6  A    between atoms: N_19  and  C_21
REMARK    7  A    between atoms: C_21  and  C_22
REMARK    8  A    between atoms: C_22  and  N_23
REMARK    9  A    between atoms: O_27  and  C_35
REMARK                            x       y       z     vdW  Elec       q    Type
REMARK                         _______ _______ _______ _____ _____    ______ ____
ROOT
ATOM      1  N   UNL     1      35.194 -21.054 -20.859  0.00  0.00    -0.247 N 
ATOM      2  N   UNL     1      35.261 -18.714 -20.710  0.00  0.00    -0.300 NA
ATOM      3  N   UNL     1      34.892 -19.809 -22.825  0.00  0.00    -0.170 NA
ATOM      4  C   UNL     1      35.111 -19.797 -21.496  0.00  0.00    +0.152 C 
ATOM      5  C   UNL     1      35.177 -17.530 -21.352  0.00  0.00    +0.295 C 
ATOM      6  C   UNL     1      34.956 -17.406 -22.708  0.00  0.00    +0.094 C 
ATOM      7  C   UNL     1      34.820 -18.591 -23.401  0.00  0.00    +0.118 C 
ATOM      8  H   UNL     1      35.078 -21.817 -21.471  0.00  0.00    +0.165 HD
ENDROOT
BRANCH   1  12
ATOM      9  C   UNL     1      34.654 -22.545 -17.514  0.00  0.00    +0.004 C 
ATOM     10  C   UNL     1      34.441 -22.173 -18.841  0.00  0.00    +0.013 C 
ATOM     11  C   UNL     1      35.832 -22.175 -16.866  0.00  0.00    -0.002 C 
ATOM     12  C   UNL     1      35.407 -21.431 -19.520  0.00  0.00    +0.057 C 
ATOM     13  C   UNL     1      36.799 -21.433 -17.545  0.00  0.00    +0.001 C 
ATOM     14  C   UNL     1      36.586 -21.061 -18.872  0.00  0.00    +0.015 C 
BRANCH   9  15
ATOM     15  C   UNL     1      33.621 -23.339 -16.788  0.00  0.00    +0.195 C 
BRANCH  15  16
ATOM     16  S   UNL     1      34.181 -23.572 -15.131  0.00  0.00    +0.045 S 
ATOM     17  O   UNL     1      34.674 -22.300 -14.628  0.00  0.00    -0.157 OA
ATOM     18  O   UNL     1      33.147 -24.294 -14.406  0.00  0.00    -0.157 OA
BRANCH  16  19
ATOM     19  N   UNL     1      35.498 -24.635 -15.377  0.00  0.00    -0.185 NA
ATOM     20  H   UNL     1      36.287 -24.067 -15.687  0.00  0.00    +0.148 HD
BRANCH  19  21
ATOM     21  C   UNL     1      35.975 -25.455 -14.249  0.00  0.00    +0.068 C 
BRANCH  21  22
ATOM     22  C   UNL     1      37.011 -24.669 -13.459  0.00  0.00    -0.058 C 
BRANCH  22  23
ATOM     23  N   UNL     1      36.355 -23.810 -12.480  0.00  0.00    +0.385 N 
ATOM     24  C   UNL     1      35.488 -24.598 -11.601  0.00  0.00    -0.101 C 
ATOM     25  C   UNL     1      37.346 -23.077 -11.690  0.00  0.00    -0.101 C 
ATOM     26  H   UNL     1      35.779 -23.136 -12.984  0.00  0.00    -0.080 HD
ENDBRANCH  22  23
ENDBRANCH  21  22
ENDBRANCH  19  21
ENDBRANCH  16  19
ENDBRANCH  15  16
ENDBRANCH   9  15
ENDBRANCH   1  12
BRANCH   5  27
ATOM     27  O   UNL     1      35.324 -16.386 -20.585  0.00  0.00    -0.427 OA
BRANCH  27  35
ATOM     28  N   UNL     1      32.408 -11.929 -21.887  0.00  0.00    -0.316 N 
ATOM     29  C   UNL     1      33.003 -13.549 -20.473  0.00  0.00    +0.017 C 
ATOM     30  C   UNL     1      33.221 -13.031 -21.752  0.00  0.00    +0.048 C 
ATOM     31  C   UNL     1      31.684 -11.732 -20.743  0.00  0.00    +0.026 C 
ATOM     32  C   UNL     1      32.030 -12.720 -19.848  0.00  0.00    +0.012 C 
ATOM     33  C   UNL     1      33.719 -14.694 -20.073  0.00  0.00    +0.039 C 
ATOM     34  C   UNL     1      34.125 -13.604 -22.654  0.00  0.00    +0.018 C 
ATOM     35  C   UNL     1      34.626 -15.278 -20.965  0.00  0.00    +0.148 C 
ATOM     36  C   UNL     1      34.824 -14.739 -22.235  0.00  0.00    +0.039 C 
ATOM     37  C   UNL     1      30.730 -10.615 -20.621  0.00  0.00    +0.047 C 
ATOM     38  H   UNL     1      32.355 -11.363 -22.692  0.00  0.00    +0.152 HD
ENDBRANCH  27  35
ENDBRANCH   5  27
TORSDOF 9
ENDMDL
MODEL 8
REMARK VINA RESULT:     -10.8      5.422     10.096
REMARK  Name = 52920501
REMARK  9 active torsions:
REMARK  status: ('A' for Active; 'I' for Inactive)
REMARK    1  A    between atoms: N_1  and  C_12
REMARK    2  A    between atoms: C_5  and  O_27
REMARK    3  A    between atoms: C_9  and  C_15
REMARK    4  A    between atoms: C_15  and  S_16
REMARK    5  A    between atoms: S_16  and  N_19
REMARK    6  A    between atoms: N_19  and  C_21
REMARK    7  A    between atoms: C_21  and  C_22
REMARK    8  A    between atoms: C_22  and  N_23
REMARK    9  A    between atoms: O_27  and  C_35
REMARK                            x       y       z     vdW  Elec       q    Type
REMARK                         _______ _______ _______ _____ _____    ______ ____
ROOT
ATOM      1  N   UNL     1      32.863 -14.119 -24.398  0.00  0.00    -0.247 N 
ATOM      2  N   UNL     1      34.343 -15.440 -23.145  0.00  0.00    -0.300 NA
ATOM      3  N   UNL     1      33.421 -16.245 -25.221  0.00  0.00    -0.170 NA
ATOM      4  C   UNL     1      33.578 -15.327 -24.247  0.00  0.00    +0.152 C 
ATOM      5  C   UNL     1      35.010 -16.607 -23.032  0.00  0.00    +0.295 C 
ATOM      6  C   UNL     1      34.936 -17.626 -23.959  0.00  0.00    +0.094 C 
ATOM      7  C   UNL     1      34.117 -17.387 -25.044  0.00  0.00    +0.118 C 
ATOM      8  H   UNL     1      32.318 -14.081 -25.217  0.00  0.00    +0.165 HD
ENDROOT
BRANCH   1  12
ATOM      9  C   UNL     1      33.448 -10.683 -23.151  0.00  0.00    +0.004 C 
ATOM     10  C   UNL     1      33.533 -11.833 -23.936  0.00  0.00    +0.013 C 
ATOM     11  C   UNL     1      32.610 -10.659 -22.037  0.00  0.00    -0.002 C 
ATOM     12  C   UNL     1      32.778 -12.958 -23.607  0.00  0.00    +0.057 C 
ATOM     13  C   UNL     1      31.854 -11.785 -21.708  0.00  0.00    +0.001 C 
ATOM     14  C   UNL     1      31.939 -12.935 -22.493  0.00  0.00    +0.015 C 
BRANCH   9  15
ATOM     15  C   UNL     1      34.255  -9.479 -23.504  0.00  0.00    +0.195 C 
BRANCH  15  16
ATOM     16  S   UNL     1      33.167  -8.091 -23.548  0.00  0.00    +0.045 S 
ATOM     17  O   UNL     1      33.833  -7.005 -24.248  0.00  0.00    -0.157 OA
ATOM     18  O   UNL     1      31.864  -8.558 -23.994  0.00  0.00    -0.157 OA
BRANCH  16  19
ATOM     19  N   UNL     1      33.053  -7.711 -21.884  0.00  0.00    -0.185 NA
ATOM     20  H   UNL     1      33.893  -7.186 -21.640  0.00  0.00    +0.148 HD
BRANCH  19  21
ATOM     21  C   UNL     1      31.900  -6.925 -21.408  0.00  0.00    +0.068 C 
BRANCH  21  22
ATOM     22  C   UNL     1      32.385  -5.570 -20.915  0.00  0.00    -0.058 C 
BRANCH  22  23
ATOM     23  N   UNL     1      31.569  -4.504 -21.483  0.00  0.00    +0.385 N 
ATOM     24  C   UNL     1      32.003  -4.194 -22.847  0.00  0.00    -0.101 C 
ATOM     25  C   UNL     1      30.153  -4.876 -21.473  0.00  0.00    -0.101 C 
ATOM     26  H   UNL     1      31.689  -3.670 -20.908  0.00  0.00    -0.080 HD
ENDBRANCH  22  23
ENDBRANCH  21  22
ENDBRANCH  19  21
ENDBRANCH  16  19
ENDBRANCH  15  16
ENDBRANCH   9  15
ENDBRANCH   1  12
BRANCH   5  27
ATOM     27  O   UNL     1      35.812 -16.770 -21.915  0.00  0.00    -0.427 OA
BRANCH  27  35
ATOM     28  N   UNL     1      35.419 -21.612 -19.373  0.00  0.00    -0.316 N 
ATOM     29  C   UNL     1      34.514 -19.794 -20.297  0.00  0.00    +0.017 C 
ATOM     30  C   UNL     1      35.724 -20.426 -20.001  0.00  0.00    +0.048 C 
ATOM     31  C   UNL     1      34.063 -21.752 -19.261  0.00  0.00    +0.026 C 
ATOM     32  C   UNL     1      33.474 -20.642 -19.824  0.00  0.00    +0.012 C 
ATOM     33  C   UNL     1      34.542 -18.546 -20.950  0.00  0.00    +0.039 C 
ATOM     34  C   UNL     1      36.965 -19.869 -20.328  0.00  0.00    +0.018 C 
ATOM     35  C   UNL     1      35.776 -17.977 -21.283  0.00  0.00    +0.148 C 
ATOM     36  C   UNL     1      36.968 -18.630 -20.976  0.00  0.00    +0.039 C 
ATOM     37  C   UNL     1      33.465 -22.939 -18.622  0.00  0.00    +0.047 C 
ATOM     38  H   UNL     1      36.082 -22.266 -19.051  0.00  0.00    +0.152 HD
ENDBRANCH  27  35
ENDBRANCH   5  27
TORSDOF 9
ENDMDL
MODEL 9
REMARK VINA RESULT:     -10.7      2.096      5.208
REMARK  Name = 52920501
REMARK  9 active torsions:
REMARK  status: ('A' for Active; 'I' for Inactive)
REMARK    1  A    between atoms: N_1  and  C_12
REMARK    2  A    between atoms: C_5  and  O_27
REMARK    3  A    between atoms: C_9  and  C_15
REMARK    4  A    between atoms: C_15  and  S_16
REMARK    5  A    between atoms: S_16  and  N_19
REMARK    6  A    between atoms: N_19  and  C_21
REMARK    7  A    between atoms: C_21  and  C_22
REMARK    8  A    between atoms: C_22  and  N_23
REMARK    9  A    between atoms: O_27  and  C_35
REMARK                            x       y       z     vdW  Elec       q    Type
REMARK                         _______ _______ _______ _____ _____    ______ ____
ROOT
ATOM      1  N   UNL     1      36.769 -22.596 -15.501  0.00  0.00    -0.247 N 
ATOM      2  N   UNL     1      35.291 -23.618 -13.992  0.00  0.00    -0.300 NA
ATOM      3  N   UNL     1      37.573 -23.157 -13.369  0.00  0.00    -0.170 NA
ATOM      4  C   UNL     1      36.532 -23.151 -14.225  0.00  0.00    +0.152 C 
ATOM      5  C   UNL     1      35.100 -24.142 -12.763  0.00  0.00    +0.295 C 
ATOM      6  C   UNL     1      36.083 -24.207 -11.797  0.00  0.00    +0.094 C 
ATOM      7  C   UNL     1      37.312 -23.695 -12.159  0.00  0.00    +0.118 C 
ATOM      8  H   UNL     1      37.689 -22.267 -15.626  0.00  0.00    +0.165 HD
ENDROOT
BRANCH   1  12
ATOM      9  C   UNL     1      35.620 -21.580 -18.871  0.00  0.00    +0.004 C 
ATOM     10  C   UNL     1      36.436 -21.754 -17.753  0.00  0.00    +0.013 C 
ATOM     11  C   UNL     1      34.314 -22.070 -18.864  0.00  0.00    -0.002 C 
ATOM     12  C   UNL     1      35.946 -22.419 -16.629  0.00  0.00    +0.057 C 
ATOM     13  C   UNL     1      33.824 -22.735 -17.740  0.00  0.00    +0.001 C 
ATOM     14  C   UNL     1      34.640 -22.909 -16.623  0.00  0.00    +0.015 C 
BRANCH   9  15
ATOM     15  C   UNL     1      36.144 -20.869 -20.073  0.00  0.00    +0.195 C 
BRANCH  15  16
ATOM     16  S   UNL     1      34.849 -19.856 -20.712  0.00  0.00    +0.045 S 
ATOM     17  O   UNL     1      34.645 -20.196 -22.110  0.00  0.00    -0.157 OA
ATOM     18  O   UNL     1      33.737 -19.910 -19.776  0.00  0.00    -0.157 OA
BRANCH  16  19
ATOM     19  N   UNL     1      35.562 -18.305 -20.600  0.00  0.00    -0.185 NA
ATOM     20  H   UNL     1      36.486 -18.430 -20.186  0.00  0.00    +0.148 HD
BRANCH  19  21
ATOM     21  C   UNL     1      35.744 -17.513 -21.830  0.00  0.00    +0.068 C 
BRANCH  21  22
ATOM     22  C   UNL     1      35.050 -16.168 -21.669  0.00  0.00    -0.058 C 
BRANCH  22  23
ATOM     23  N   UNL     1      35.122 -15.410 -22.912  0.00  0.00    +0.385 N 
ATOM     24  C   UNL     1      34.814 -16.269 -24.058  0.00  0.00    -0.101 C 
ATOM     25  C   UNL     1      34.208 -14.268 -22.874  0.00  0.00    -0.101 C 
ATOM     26  H   UNL     1      36.075 -15.060 -23.017  0.00  0.00    -0.080 HD
ENDBRANCH  22  23
ENDBRANCH  21  22
ENDBRANCH  19  21
ENDBRANCH  16  19
ENDBRANCH  15  16
ENDBRANCH   9  15
ENDBRANCH   1  12
BRANCH   5  27
ATOM     27  O   UNL     1      33.839 -24.634 -12.477  0.00  0.00    -0.427 OA
BRANCH  27  35
ATOM     28  N   UNL     1      29.566 -22.968 -15.481  0.00  0.00    -0.316 N 
ATOM     29  C   UNL     1      30.830 -24.566 -14.572  0.00  0.00    +0.017 C 
ATOM     30  C   UNL     1      30.679 -23.183 -14.702  0.00  0.00    +0.048 C 
ATOM     31  C   UNL     1      29.008 -24.163 -15.849  0.00  0.00    +0.026 C 
ATOM     32  C   UNL     1      29.769 -25.171 -15.302  0.00  0.00    +0.012 C 
ATOM     33  C   UNL     1      31.908 -25.063 -13.814  0.00  0.00    +0.039 C 
ATOM     34  C   UNL     1      31.557 -22.270 -14.107  0.00  0.00    +0.018 C 
ATOM     35  C   UNL     1      32.794 -24.161 -13.213  0.00  0.00    +0.148 C 
ATOM     36  C   UNL     1      32.619 -22.786 -13.359  0.00  0.00    +0.039 C 
ATOM     37  C   UNL     1      27.799 -24.218 -16.691  0.00  0.00    +0.047 C 
ATOM     38  H   UNL     1      29.219 -22.082 -15.737  0.00  0.00    +0.152 HD
ENDBRANCH  27  35
ENDBRANCH   5  27
TORSDOF 9
ENDMDL
