MODEL 1
REMARK VINA RESULT:     -11.0      0.000      0.000
REMARK  Name = 51001932
REMARK  5 active torsions:
REMARK  status: ('A' for Active; 'I' for Inactive)
REMARK    1  A    between atoms: C_8  and  C_18
REMARK    2  A    between atoms: C_11  and  C_26
REMARK    3  A    between atoms: N_15  and  C_21
REMARK    4  A    between atoms: N_24  and  C_29
REMARK    5  A    between atoms: C_29  and  C_34
REMARK                            x       y       z     vdW  Elec       q    Type
REMARK                         _______ _______ _______ _____ _____    ______ ____
ROOT
ATOM      1  O   UNL     1      32.222 -12.260 -20.212  0.00  0.00    -0.473 OA
ATOM      2  N   UNL     1      31.774  -9.483 -21.343  0.00  0.00    -0.273 N 
ATOM      3  N   UNL     1      32.700  -9.194 -23.323  0.00  0.00    -0.385 NA
ATOM      4  C   UNL     1      32.453 -10.095 -22.378  0.00  0.00    +0.186 C 
ATOM      5  C   UNL     1      31.288 -10.064 -20.107  0.00  0.00    +0.141 C 
ATOM      6  C   UNL     1      32.864 -11.510 -22.476  0.00  0.00    +0.078 C 
ATOM      7  C   UNL     1      32.755 -12.469 -21.454  0.00  0.00    +0.142 C 
ATOM      8  C   UNL     1      32.185  -8.006 -22.884  0.00  0.00    +0.177 C 
ATOM      9  C   UNL     1      30.993 -11.541 -20.223  0.00  0.00    +0.227 C 
ATOM     10  C   UNL     1      31.606  -8.159 -21.653  0.00  0.00    +0.157 C 
ATOM     11  C   UNL     1      33.846 -14.147 -22.838  0.00  0.00    +0.006 C 
ATOM     12  C   UNL     1      33.264 -13.767 -21.633  0.00  0.00    +0.037 C 
ATOM     13  C   UNL     1      33.456 -11.926 -23.689  0.00  0.00    +0.007 C 
ATOM     14  C   UNL     1      33.936 -13.226 -23.870  0.00  0.00    +0.000 C 
ENDROOT
BRANCH   8  18
ATOM     15  N   UNL     1      33.370  -6.298 -24.209  0.00  0.00    -0.175 N 
ATOM     16  N   UNL     1      31.149  -5.957 -23.786  0.00  0.00    -0.334 NA
ATOM     17  N   UNL     1      32.935  -5.153 -24.753  0.00  0.00    -0.114 NA
ATOM     18  C   UNL     1      32.252  -6.748 -23.636  0.00  0.00    +0.241 C 
ATOM     19  C   UNL     1      31.614  -4.957 -24.497  0.00  0.00    +0.082 C 
ATOM     20  C   UNL     1      30.848  -3.801 -24.956  0.00  0.00    +0.131 C 
BRANCH  15  21
ATOM     21  C   UNL     1      34.717  -6.777 -24.311  0.00  0.00    +0.100 C 
ATOM     22  C   UNL     1      35.574  -5.866 -25.194  0.00  0.00    +0.024 C 
ATOM     23  C   UNL     1      35.357  -6.957 -22.932  0.00  0.00    +0.024 C 
ENDBRANCH  15  21
ENDBRANCH   8  18
BRANCH  11  26
ATOM     24  N   UNL     1      35.005 -17.514 -22.561  0.00  0.00    -0.205 N 
ATOM     25  N   UNL     1      35.176 -17.418 -23.890  0.00  0.00    -0.176 NA
ATOM     26  C   UNL     1      34.348 -15.480 -23.010  0.00  0.00    +0.037 C 
ATOM     27  C   UNL     1      34.511 -16.381 -21.984  0.00  0.00    +0.086 C 
ATOM     28  C   UNL     1      34.773 -16.174 -24.158  0.00  0.00    +0.119 C 
BRANCH  24  29
ATOM     29  C   UNL     1      35.339 -18.743 -21.882  0.00  0.00    +0.147 C 
ATOM     30  C   UNL     1      34.336 -19.165 -20.785  0.00  0.00    +0.031 C 
ATOM     31  C   UNL     1      35.365 -19.881 -22.930  0.00  0.00    +0.031 C 
BRANCH  29  34
ATOM     32  O   UNL     1      36.895 -18.681 -19.997  0.00  0.00    -0.274 OA
ATOM     33  N   UNL     1      37.774 -18.469 -22.100  0.00  0.00    -0.327 N 
ATOM     34  C   UNL     1      36.728 -18.632 -21.215  0.00  0.00    +0.237 C 
ATOM     35  H   UNL     1      38.696 -18.389 -21.763  0.00  0.00    +0.145 HD
ATOM     36  H   UNL     1      37.599 -18.432 -23.068  0.00  0.00    +0.145 HD
ENDBRANCH  29  34
ENDBRANCH  24  29
ENDBRANCH  11  26
TORSDOF 5
ENDMDL
MODEL 2
REMARK VINA RESULT:     -10.5      6.416     14.264
REMARK  Name = 51001932
REMARK  5 active torsions:
REMARK  status: ('A' for Active; 'I' for Inactive)
REMARK    1  A    between atoms: C_8  and  C_18
REMARK    2  A    between atoms: C_11  and  C_26
REMARK    3  A    between atoms: N_15  and  C_21
REMARK    4  A    between atoms: N_24  and  C_29
REMARK    5  A    between atoms: C_29  and  C_34
REMARK                            x       y       z     vdW  Elec       q    Type
REMARK                         _______ _______ _______ _____ _____    ______ ____
ROOT
ATOM      1  O   UNL     1      32.697 -22.265 -18.624  0.00  0.00    -0.473 OA
ATOM      2  N   UNL     1      34.326 -23.369 -16.317  0.00  0.00    -0.273 N 
ATOM      3  N   UNL     1      36.464 -22.842 -16.437  0.00  0.00    -0.385 NA
ATOM      4  C   UNL     1      35.280 -22.644 -17.006  0.00  0.00    +0.186 C 
ATOM      5  C   UNL     1      32.901 -23.457 -16.564  0.00  0.00    +0.141 C 
ATOM      6  C   UNL     1      35.077 -21.777 -18.184  0.00  0.00    +0.078 C 
ATOM      7  C   UNL     1      33.881 -21.641 -18.908  0.00  0.00    +0.142 C 
ATOM      8  C   UNL     1      36.265 -23.700 -15.392  0.00  0.00    +0.177 C 
ATOM      9  C   UNL     1      32.340 -22.231 -17.246  0.00  0.00    +0.227 C 
ATOM     10  C   UNL     1      34.944 -24.045 -15.298  0.00  0.00    +0.157 C 
ATOM     11  C   UNL     1      34.951 -20.151 -20.505  0.00  0.00    +0.006 C 
ATOM     12  C   UNL     1      33.832 -20.852 -20.070  0.00  0.00    +0.037 C 
ATOM     13  C   UNL     1      36.197 -21.050 -18.648  0.00  0.00    +0.007 C 
ATOM     14  C   UNL     1      36.134 -20.246 -19.789  0.00  0.00    +0.000 C 
ENDROOT
BRANCH   8  18
ATOM     15  N   UNL     1      37.327 -23.973 -13.184  0.00  0.00    -0.175 N 
ATOM     16  N   UNL     1      38.399 -24.872 -14.993  0.00  0.00    -0.334 NA
ATOM     17  N   UNL     1      38.470 -24.578 -12.830  0.00  0.00    -0.114 NA
ATOM     18  C   UNL     1      37.329 -24.180 -14.502  0.00  0.00    +0.241 C 
ATOM     19  C   UNL     1      39.102 -25.110 -13.910  0.00  0.00    +0.082 C 
ATOM     20  C   UNL     1      40.368 -25.833 -13.850  0.00  0.00    +0.131 C 
BRANCH  15  21
ATOM     21  C   UNL     1      36.441 -23.323 -12.264  0.00  0.00    +0.100 C 
ATOM     22  C   UNL     1      35.331 -24.265 -11.789  0.00  0.00    +0.024 C 
ATOM     23  C   UNL     1      37.199 -22.732 -11.074  0.00  0.00    +0.024 C 
ENDBRANCH  15  21
ENDBRANCH   8  18
BRANCH  11  26
ATOM     24  N   UNL     1      34.714 -17.588 -22.982  0.00  0.00    -0.205 N 
ATOM     25  N   UNL     1      34.834 -18.608 -23.850  0.00  0.00    -0.176 NA
ATOM     26  C   UNL     1      34.882 -19.338 -21.686  0.00  0.00    +0.037 C 
ATOM     27  C   UNL     1      34.737 -17.972 -21.673  0.00  0.00    +0.086 C 
ATOM     28  C   UNL     1      34.936 -19.674 -23.052  0.00  0.00    +0.119 C 
BRANCH  24  29
ATOM     29  C   UNL     1      34.577 -16.239 -23.477  0.00  0.00    +0.147 C 
ATOM     30  C   UNL     1      34.118 -15.210 -22.419  0.00  0.00    +0.031 C 
ATOM     31  C   UNL     1      35.959 -15.772 -23.989  0.00  0.00    +0.031 C 
BRANCH  29  34
ATOM     32  O   UNL     1      33.194 -17.188 -25.256  0.00  0.00    -0.274 OA
ATOM     33  N   UNL     1      33.090 -14.925 -24.930  0.00  0.00    -0.327 N 
ATOM     34  C   UNL     1      33.558 -16.189 -24.637  0.00  0.00    +0.237 C 
ATOM     35  H   UNL     1      32.436 -14.797 -25.655  0.00  0.00    +0.145 HD
ATOM     36  H   UNL     1      33.408 -14.150 -24.413  0.00  0.00    +0.145 HD
ENDBRANCH  29  34
ENDBRANCH  24  29
ENDBRANCH  11  26
TORSDOF 5
ENDMDL
MODEL 3
REMARK VINA RESULT:     -10.3      1.066      1.716
REMARK  Name = 51001932
REMARK  5 active torsions:
REMARK  status: ('A' for Active; 'I' for Inactive)
REMARK    1  A    between atoms: C_8  and  C_18
REMARK    2  A    between atoms: C_11  and  C_26
REMARK    3  A    between atoms: N_15  and  C_21
REMARK    4  A    between atoms: N_24  and  C_29
REMARK    5  A    between atoms: C_29  and  C_34
REMARK                            x       y       z     vdW  Elec       q    Type
REMARK                         _______ _______ _______ _____ _____    ______ ____
ROOT
ATOM      1  O   UNL     1      32.276 -12.356 -20.220  0.00  0.00    -0.473 OA
ATOM      2  N   UNL     1      31.791  -9.603 -21.395  0.00  0.00    -0.273 N 
ATOM      3  N   UNL     1      32.709  -9.336 -23.382  0.00  0.00    -0.385 NA
ATOM      4  C   UNL     1      32.475 -10.224 -22.421  0.00  0.00    +0.186 C 
ATOM      5  C   UNL     1      31.315 -10.170 -20.149  0.00  0.00    +0.141 C 
ATOM      6  C   UNL     1      32.904 -11.635 -22.497  0.00  0.00    +0.078 C 
ATOM      7  C   UNL     1      32.809 -12.579 -21.459  0.00  0.00    +0.142 C 
ATOM      8  C   UNL     1      32.180  -8.147 -22.961  0.00  0.00    +0.177 C 
ATOM      9  C   UNL     1      31.038 -11.653 -20.239  0.00  0.00    +0.227 C 
ATOM     10  C   UNL     1      31.606  -8.287 -21.727  0.00  0.00    +0.157 C 
ATOM     11  C   UNL     1      33.918 -14.265 -22.817  0.00  0.00    +0.006 C 
ATOM     12  C   UNL     1      33.334 -13.873 -21.618  0.00  0.00    +0.037 C 
ATOM     13  C   UNL     1      33.499 -12.064 -23.704  0.00  0.00    +0.007 C 
ATOM     14  C   UNL     1      33.995 -13.361 -23.865  0.00  0.00    +0.000 C 
ENDROOT
BRANCH   8  18
ATOM     15  N   UNL     1      31.861  -5.718 -23.238  0.00  0.00    -0.175 N 
ATOM     16  N   UNL     1      32.661  -6.893 -25.030  0.00  0.00    -0.334 NA
ATOM     17  N   UNL     1      32.079  -4.921 -24.294  0.00  0.00    -0.114 NA
ATOM     18  C   UNL     1      32.230  -6.901 -23.734  0.00  0.00    +0.241 C 
ATOM     19  C   UNL     1      32.554  -5.626 -25.355  0.00  0.00    +0.082 C 
ATOM     20  C   UNL     1      32.890  -5.040 -26.650  0.00  0.00    +0.131 C 
BRANCH  15  21
ATOM     21  C   UNL     1      31.364  -5.264 -21.974  0.00  0.00    +0.100 C 
ATOM     22  C   UNL     1      32.492  -5.095 -20.952  0.00  0.00    +0.024 C 
ATOM     23  C   UNL     1      30.561  -3.969 -22.117  0.00  0.00    +0.024 C 
ENDBRANCH  15  21
ENDBRANCH   8  18
BRANCH  11  26
ATOM     24  N   UNL     1      35.106 -17.618 -22.490  0.00  0.00    -0.205 N 
ATOM     25  N   UNL     1      35.300 -17.532 -23.817  0.00  0.00    -0.176 NA
ATOM     26  C   UNL     1      34.437 -15.595 -22.968  0.00  0.00    +0.037 C 
ATOM     27  C   UNL     1      34.590 -16.485 -21.932  0.00  0.00    +0.086 C 
ATOM     28  C   UNL     1      34.890 -16.294 -24.103  0.00  0.00    +0.119 C 
BRANCH  24  29
ATOM     29  C   UNL     1      35.440 -18.838 -21.795  0.00  0.00    +0.147 C 
ATOM     30  C   UNL     1      34.426 -19.255 -20.705  0.00  0.00    +0.031 C 
ATOM     31  C   UNL     1      35.485 -19.986 -22.830  0.00  0.00    +0.031 C 
BRANCH  29  34
ATOM     32  O   UNL     1      36.978 -18.792 -19.895  0.00  0.00    -0.274 OA
ATOM     33  N   UNL     1      37.868 -18.494 -21.982  0.00  0.00    -0.327 N 
ATOM     34  C   UNL     1      36.820 -18.711 -21.112  0.00  0.00    +0.237 C 
ATOM     35  H   UNL     1      38.785 -18.400 -21.636  0.00  0.00    +0.145 HD
ATOM     36  H   UNL     1      37.699 -18.432 -22.950  0.00  0.00    +0.145 HD
ENDBRANCH  29  34
ENDBRANCH  24  29
ENDBRANCH  11  26
TORSDOF 5
ENDMDL
MODEL 4
REMARK VINA RESULT:      -9.8      2.733     11.422
REMARK  Name = 51001932
REMARK  5 active torsions:
REMARK  status: ('A' for Active; 'I' for Inactive)
REMARK    1  A    between atoms: C_8  and  C_18
REMARK    2  A    between atoms: C_11  and  C_26
REMARK    3  A    between atoms: N_15  and  C_21
REMARK    4  A    between atoms: N_24  and  C_29
REMARK    5  A    between atoms: C_29  and  C_34
REMARK                            x       y       z     vdW  Elec       q    Type
REMARK                         _______ _______ _______ _____ _____    ______ ____
ROOT
ATOM      1  O   UNL     1      34.665 -16.844 -24.677  0.00  0.00    -0.473 OA
ATOM      2  N   UNL     1      35.109 -19.033 -22.626  0.00  0.00    -0.273 N 
ATOM      3  N   UNL     1      35.257 -18.269 -20.563  0.00  0.00    -0.385 NA
ATOM      4  C   UNL     1      35.008 -17.916 -21.819  0.00  0.00    +0.186 C 
ATOM      5  C   UNL     1      34.915 -19.138 -24.058  0.00  0.00    +0.141 C 
ATOM      6  C   UNL     1      34.680 -16.535 -22.227  0.00  0.00    +0.078 C 
ATOM      7  C   UNL     1      34.546 -16.079 -23.549  0.00  0.00    +0.142 C 
ATOM      8  C   UNL     1      35.526 -19.609 -20.572  0.00  0.00    +0.177 C 
ATOM      9  C   UNL     1      33.977 -18.089 -24.608  0.00  0.00    +0.227 C 
ATOM     10  C   UNL     1      35.444 -20.107 -21.844  0.00  0.00    +0.157 C 
ATOM     11  C   UNL     1      34.179 -13.799 -22.785  0.00  0.00    +0.006 C 
ATOM     12  C   UNL     1      34.320 -14.718 -23.819  0.00  0.00    +0.037 C 
ATOM     13  C   UNL     1      34.528 -15.579 -21.198  0.00  0.00    +0.007 C 
ATOM     14  C   UNL     1      34.277 -14.232 -21.472  0.00  0.00    +0.000 C 
ENDROOT
BRANCH   8  18
ATOM     15  N   UNL     1      35.103 -21.399 -18.930  0.00  0.00    -0.175 N 
ATOM     16  N   UNL     1      36.980 -20.123 -18.646  0.00  0.00    -0.334 NA
ATOM     17  N   UNL     1      35.801 -21.780 -17.850  0.00  0.00    -0.114 NA
ATOM     18  C   UNL     1      35.858 -20.393 -19.377  0.00  0.00    +0.241 C 
ATOM     19  C   UNL     1      36.915 -21.018 -17.688  0.00  0.00    +0.082 C 
ATOM     20  C   UNL     1      37.880 -21.188 -16.606  0.00  0.00    +0.131 C 
BRANCH  15  21
ATOM     21  C   UNL     1      33.884 -22.015 -19.360  0.00  0.00    +0.100 C 
ATOM     22  C   UNL     1      33.502 -23.197 -18.464  0.00  0.00    +0.024 C 
ATOM     23  C   UNL     1      32.739 -21.003 -19.443  0.00  0.00    +0.024 C 
ENDBRANCH  15  21
ENDBRANCH   8  18
BRANCH  11  26
ATOM     24  N   UNL     1      33.021 -10.431 -23.061  0.00  0.00    -0.205 N 
ATOM     25  N   UNL     1      34.056 -10.291 -23.906  0.00  0.00    -0.176 NA
ATOM     26  C   UNL     1      33.934 -12.415 -23.075  0.00  0.00    +0.037 C 
ATOM     27  C   UNL     1      32.903 -11.685 -22.535  0.00  0.00    +0.086 C 
ATOM     28  C   UNL     1      34.610 -11.506 -23.911  0.00  0.00    +0.119 C 
BRANCH  24  29
ATOM     29  C   UNL     1      32.160  -9.305 -22.789  0.00  0.00    +0.147 C 
ATOM     30  C   UNL     1      31.848  -8.423 -24.019  0.00  0.00    +0.031 C 
ATOM     31  C   UNL     1      30.808  -9.846 -22.269  0.00  0.00    +0.031 C 
BRANCH  29  34
ATOM     32  O   UNL     1      32.429  -8.384 -20.541  0.00  0.00    -0.274 OA
ATOM     33  N   UNL     1      33.794  -7.568 -22.187  0.00  0.00    -0.327 N 
ATOM     34  C   UNL     1      32.790  -8.389 -21.716  0.00  0.00    +0.237 C 
ATOM     35  H   UNL     1      34.253  -6.950 -21.573  0.00  0.00    +0.145 HD
ATOM     36  H   UNL     1      34.052  -7.600 -23.136  0.00  0.00    +0.145 HD
ENDBRANCH  29  34
ENDBRANCH  24  29
ENDBRANCH  11  26
TORSDOF 5
ENDMDL
MODEL 5
REMARK VINA RESULT:      -8.7      2.530      4.719
REMARK  Name = 51001932
REMARK  5 active torsions:
REMARK  status: ('A' for Active; 'I' for Inactive)
REMARK    1  A    between atoms: C_8  and  C_18
REMARK    2  A    between atoms: C_11  and  C_26
REMARK    3  A    between atoms: N_15  and  C_21
REMARK    4  A    between atoms: N_24  and  C_29
REMARK    5  A    between atoms: C_29  and  C_34
REMARK                            x       y       z     vdW  Elec       q    Type
REMARK                         _______ _______ _______ _____ _____    ______ ____
ROOT
ATOM      1  O   UNL     1      33.777 -15.958 -24.658  0.00  0.00    -0.473 OA
ATOM      2  N   UNL     1      33.277 -12.989 -24.296  0.00  0.00    -0.273 N 
ATOM      3  N   UNL     1      33.614 -12.300 -22.228  0.00  0.00    -0.385 NA
ATOM      4  C   UNL     1      33.715 -13.349 -23.036  0.00  0.00    +0.186 C 
ATOM      5  C   UNL     1      33.211 -13.794 -25.499  0.00  0.00    +0.141 C 
ATOM      6  C   UNL     1      34.221 -14.667 -22.600  0.00  0.00    +0.078 C 
ATOM      7  C   UNL     1      34.218 -15.843 -23.368  0.00  0.00    +0.142 C 
ATOM      8  C   UNL     1      33.104 -11.273 -22.973  0.00  0.00    +0.177 C 
ATOM      9  C   UNL     1      34.224 -14.915 -25.518  0.00  0.00    +0.227 C 
ATOM     10  C   UNL     1      32.883 -11.677 -24.261  0.00  0.00    +0.157 C 
ATOM     11  C   UNL     1      35.121 -17.126 -21.508  0.00  0.00    +0.006 C 
ATOM     12  C   UNL     1      34.645 -17.063 -22.813  0.00  0.00    +0.037 C 
ATOM     13  C   UNL     1      34.714 -14.761 -21.279  0.00  0.00    +0.007 C 
ATOM     14  C   UNL     1      35.162 -15.972 -20.742  0.00  0.00    +0.000 C 
ENDROOT
BRANCH   8  18
ATOM     15  N   UNL     1      32.214  -9.708 -21.289  0.00  0.00    -0.175 N 
ATOM     16  N   UNL     1      33.206  -8.814 -23.146  0.00  0.00    -0.334 NA
ATOM     17  N   UNL     1      32.202  -8.367 -21.258  0.00  0.00    -0.114 NA
ATOM     18  C   UNL     1      32.833  -9.929 -22.450  0.00  0.00    +0.241 C 
ATOM     19  C   UNL     1      32.793  -7.843 -22.365  0.00  0.00    +0.082 C 
ATOM     20  C   UNL     1      32.937  -6.414 -22.624  0.00  0.00    +0.131 C 
BRANCH  15  21
ATOM     21  C   UNL     1      31.668 -10.542 -20.260  0.00  0.00    +0.100 C 
ATOM     22  C   UNL     1      31.530  -9.786 -18.935  0.00  0.00    +0.024 C 
ATOM     23  C   UNL     1      30.328 -11.151 -20.681  0.00  0.00    +0.024 C 
ENDBRANCH  15  21
ENDBRANCH   8  18
BRANCH  11  26
ATOM     24  N   UNL     1      35.540 -20.335 -19.997  0.00  0.00    -0.205 N 
ATOM     25  N   UNL     1      36.841 -20.144 -20.278  0.00  0.00    -0.176 NA
ATOM     26  C   UNL     1      35.567 -18.375 -20.961  0.00  0.00    +0.037 C 
ATOM     27  C   UNL     1      34.734 -19.305 -20.386  0.00  0.00    +0.086 C 
ATOM     28  C   UNL     1      36.850 -18.945 -20.866  0.00  0.00    +0.119 C 
BRANCH  24  29
ATOM     29  C   UNL     1      35.120 -21.550 -19.341  0.00  0.00    +0.147 C 
ATOM     30  C   UNL     1      33.604 -21.635 -19.056  0.00  0.00    +0.031 C 
ATOM     31  C   UNL     1      35.472 -22.741 -20.262  0.00  0.00    +0.031 C 
BRANCH  29  34
ATOM     32  O   UNL     1      35.609 -22.630 -17.203  0.00  0.00    -0.274 OA
ATOM     33  N   UNL     1      36.799 -20.748 -17.733  0.00  0.00    -0.327 N 
ATOM     34  C   UNL     1      35.851 -21.716 -17.990  0.00  0.00    +0.237 C 
ATOM     35  H   UNL     1      37.315 -20.774 -16.894  0.00  0.00    +0.145 HD
ATOM     36  H   UNL     1      36.961 -20.031 -18.388  0.00  0.00    +0.145 HD
ENDBRANCH  29  34
ENDBRANCH  24  29
ENDBRANCH  11  26
TORSDOF 5
ENDMDL
MODEL 6
REMARK VINA RESULT:      -8.4      2.514     10.285
REMARK  Name = 51001932
REMARK  5 active torsions:
REMARK  status: ('A' for Active; 'I' for Inactive)
REMARK    1  A    between atoms: C_8  and  C_18
REMARK    2  A    between atoms: C_11  and  C_26
REMARK    3  A    between atoms: N_15  and  C_21
REMARK    4  A    between atoms: N_24  and  C_29
REMARK    5  A    between atoms: C_29  and  C_34
REMARK                            x       y       z     vdW  Elec       q    Type
REMARK                         _______ _______ _______ _____ _____    ______ ____
ROOT
ATOM      1  O   UNL     1      31.500 -11.330 -20.451  0.00  0.00    -0.473 OA
ATOM      2  N   UNL     1      33.002 -13.960 -20.307  0.00  0.00    -0.273 N 
ATOM      3  N   UNL     1      34.284 -14.322 -22.065  0.00  0.00    -0.385 NA
ATOM      4  C   UNL     1      33.492 -13.427 -21.484  0.00  0.00    +0.186 C 
ATOM      5  C   UNL     1      32.113 -13.353 -19.338  0.00  0.00    +0.141 C 
ATOM      6  C   UNL     1      33.218 -12.092 -22.054  0.00  0.00    +0.078 C 
ATOM      7  C   UNL     1      32.285 -11.165 -21.560  0.00  0.00    +0.142 C 
ATOM      8  C   UNL     1      34.290 -15.428 -21.261  0.00  0.00    +0.177 C 
ATOM      9  C   UNL     1      32.195 -11.844 -19.321  0.00  0.00    +0.227 C 
ATOM     10  C   UNL     1      33.499 -15.229 -20.163  0.00  0.00    +0.157 C 
ATOM     11  C   UNL     1      32.755  -9.634 -23.391  0.00  0.00    +0.006 C 
ATOM     12  C   UNL     1      32.045  -9.958 -22.240  0.00  0.00    +0.037 C 
ATOM     13  C   UNL     1      33.926 -11.734 -23.222  0.00  0.00    +0.007 C 
ATOM     14  C   UNL     1      33.701 -10.520 -23.879  0.00  0.00    +0.000 C 
ENDROOT
BRANCH   8  18
ATOM     15  N   UNL     1      34.965 -17.305 -22.709  0.00  0.00    -0.175 N 
ATOM     16  N   UNL     1      35.881 -17.200 -20.616  0.00  0.00    -0.334 NA
ATOM     17  N   UNL     1      35.808 -18.325 -22.488  0.00  0.00    -0.114 NA
ATOM     18  C   UNL     1      35.045 -16.653 -21.548  0.00  0.00    +0.241 C 
ATOM     19  C   UNL     1      36.348 -18.256 -21.242  0.00  0.00    +0.082 C 
ATOM     20  C   UNL     1      37.303 -19.220 -20.703  0.00  0.00    +0.131 C 
BRANCH  15  21
ATOM     21  C   UNL     1      34.246 -17.107 -23.932  0.00  0.00    +0.100 C 
ATOM     22  C   UNL     1      34.978 -16.140 -24.867  0.00  0.00    +0.024 C 
ATOM     23  C   UNL     1      33.957 -18.433 -24.639  0.00  0.00    +0.024 C 
ENDBRANCH  15  21
ENDBRANCH   8  18
BRANCH  11  26
ATOM     24  N   UNL     1      32.850  -6.474 -25.054  0.00  0.00    -0.205 N 
ATOM     25  N   UNL     1      31.513  -6.606 -25.086  0.00  0.00    -0.176 NA
ATOM     26  C   UNL     1      32.508  -8.392 -24.067  0.00  0.00    +0.037 C 
ATOM     27  C   UNL     1      33.494  -7.516 -24.454  0.00  0.00    +0.086 C 
ATOM     28  C   UNL     1      31.310  -7.779 -24.481  0.00  0.00    +0.119 C 
BRANCH  24  29
ATOM     29  C   UNL     1      33.467  -5.302 -25.626  0.00  0.00    +0.147 C 
ATOM     30  C   UNL     1      35.007  -5.260 -25.501  0.00  0.00    +0.031 C 
ATOM     31  C   UNL     1      33.137  -5.272 -27.137  0.00  0.00    +0.031 C 
BRANCH  29  34
ATOM     32  O   UNL     1      32.930  -2.919 -25.506  0.00  0.00    -0.274 OA
ATOM     33  N   UNL     1      32.416  -4.211 -23.688  0.00  0.00    -0.327 N 
ATOM     34  C   UNL     1      32.919  -4.021 -24.958  0.00  0.00    +0.237 C 
ATOM     35  H   UNL     1      32.045  -3.450 -23.185  0.00  0.00    +0.145 HD
ATOM     36  H   UNL     1      32.428  -5.109 -23.283  0.00  0.00    +0.145 HD
ENDBRANCH  29  34
ENDBRANCH  24  29
ENDBRANCH  11  26
TORSDOF 5
ENDMDL
MODEL 7
REMARK VINA RESULT:      -8.4      2.432     11.149
REMARK  Name = 51001932
REMARK  5 active torsions:
REMARK  status: ('A' for Active; 'I' for Inactive)
REMARK    1  A    between atoms: C_8  and  C_18
REMARK    2  A    between atoms: C_11  and  C_26
REMARK    3  A    between atoms: N_15  and  C_21
REMARK    4  A    between atoms: N_24  and  C_29
REMARK    5  A    between atoms: C_29  and  C_34
REMARK                            x       y       z     vdW  Elec       q    Type
REMARK                         _______ _______ _______ _____ _____    ______ ____
ROOT
ATOM      1  O   UNL     1      34.299 -15.540 -24.867  0.00  0.00    -0.473 OA
ATOM      2  N   UNL     1      34.989 -17.878 -23.063  0.00  0.00    -0.273 N 
ATOM      3  N   UNL     1      35.100 -17.324 -20.932  0.00  0.00    -0.385 NA
ATOM      4  C   UNL     1      34.796 -16.868 -22.142  0.00  0.00    +0.186 C 
ATOM      5  C   UNL     1      34.779 -17.851 -24.497  0.00  0.00    +0.141 C 
ATOM      6  C   UNL     1      34.329 -15.490 -22.398  0.00  0.00    +0.078 C 
ATOM      7  C   UNL     1      34.128 -14.913 -23.663  0.00  0.00    +0.142 C 
ATOM      8  C   UNL     1      35.497 -18.623 -21.086  0.00  0.00    +0.177 C 
ATOM      9  C   UNL     1      33.735 -16.846 -24.925  0.00  0.00    +0.227 C 
ATOM     10  C   UNL     1      35.439 -18.991 -22.402  0.00  0.00    +0.157 C 
ATOM     11  C   UNL     1      33.558 -12.772 -22.658  0.00  0.00    +0.006 C 
ATOM     12  C   UNL     1      33.768 -13.560 -23.785  0.00  0.00    +0.037 C 
ATOM     13  C   UNL     1      34.105 -14.666 -21.272  0.00  0.00    +0.007 C 
ATOM     14  C   UNL     1      33.721 -13.328 -21.399  0.00  0.00    +0.000 C 
ENDROOT
BRANCH   8  18
ATOM     15  N   UNL     1      35.245 -20.576 -19.602  0.00  0.00    -0.175 N 
ATOM     16  N   UNL     1      37.062 -19.225 -19.276  0.00  0.00    -0.334 NA
ATOM     17  N   UNL     1      36.011 -21.013 -18.591  0.00  0.00    -0.114 NA
ATOM     18  C   UNL     1      35.924 -19.492 -19.983  0.00  0.00    +0.241 C 
ATOM     19  C   UNL     1      37.088 -20.205 -18.404  0.00  0.00    +0.082 C 
ATOM     20  C   UNL     1      38.109 -20.417 -17.381  0.00  0.00    +0.131 C 
BRANCH  15  21
ATOM     21  C   UNL     1      34.043 -21.220 -20.038  0.00  0.00    +0.100 C 
ATOM     22  C   UNL     1      33.795 -22.526 -19.279  0.00  0.00    +0.024 C 
ATOM     23  C   UNL     1      32.833 -20.290 -19.929  0.00  0.00    +0.024 C 
ENDBRANCH  15  21
ENDBRANCH   8  18
BRANCH  11  26
ATOM     24  N   UNL     1      33.308  -9.233 -23.076  0.00  0.00    -0.205 N 
ATOM     25  N   UNL     1      31.988  -9.451 -22.946  0.00  0.00    -0.176 NA
ATOM     26  C   UNL     1      33.176 -11.396 -22.799  0.00  0.00    +0.037 C 
ATOM     27  C   UNL     1      34.064 -10.366 -22.995  0.00  0.00    +0.086 C 
ATOM     28  C   UNL     1      31.914 -10.773 -22.777  0.00  0.00    +0.119 C 
BRANCH  24  29
ATOM     29  C   UNL     1      33.796  -7.891 -23.279  0.00  0.00    +0.147 C 
ATOM     30  C   UNL     1      35.328  -7.783 -23.455  0.00  0.00    +0.031 C 
ATOM     31  C   UNL     1      33.155  -7.335 -24.572  0.00  0.00    +0.031 C 
BRANCH  29  34
ATOM     32  O   UNL     1      33.667  -7.267 -20.919  0.00  0.00    -0.274 OA
ATOM     33  N   UNL     1      32.737  -5.834 -22.442  0.00  0.00    -0.327 N 
ATOM     34  C   UNL     1      33.407  -6.987 -22.087  0.00  0.00    +0.237 C 
ATOM     35  H   UNL     1      32.450  -5.198 -21.747  0.00  0.00    +0.145 HD
ATOM     36  H   UNL     1      32.546  -5.648 -23.389  0.00  0.00    +0.145 HD
ENDBRANCH  29  34
ENDBRANCH  24  29
ENDBRANCH  11  26
TORSDOF 5
ENDMDL
MODEL 8
REMARK VINA RESULT:      -8.1      2.754     10.676
REMARK  Name = 51001932
REMARK  5 active torsions:
REMARK  status: ('A' for Active; 'I' for Inactive)
REMARK    1  A    between atoms: C_8  and  C_18
REMARK    2  A    between atoms: C_11  and  C_26
REMARK    3  A    between atoms: N_15  and  C_21
REMARK    4  A    between atoms: N_24  and  C_29
REMARK    5  A    between atoms: C_29  and  C_34
REMARK                            x       y       z     vdW  Elec       q    Type
REMARK                         _______ _______ _______ _____ _____    ______ ____
ROOT
ATOM      1  O   UNL     1      31.159  -9.313 -20.018  0.00  0.00    -0.473 OA
ATOM      2  N   UNL     1      32.478 -12.033 -20.258  0.00  0.00    -0.273 N 
ATOM      3  N   UNL     1      33.425 -12.366 -22.222  0.00  0.00    -0.385 NA
ATOM      4  C   UNL     1      32.804 -11.462 -21.473  0.00  0.00    +0.186 C 
ATOM      5  C   UNL     1      31.804 -11.433 -19.125  0.00  0.00    +0.141 C 
ATOM      6  C   UNL     1      32.533 -10.081 -21.922  0.00  0.00    +0.078 C 
ATOM      7  C   UNL     1      31.761  -9.130 -21.233  0.00  0.00    +0.142 C 
ATOM      8  C   UNL     1      33.486 -13.516 -21.486  0.00  0.00    +0.177 C 
ATOM      9  C   UNL     1      31.993  -9.936 -19.047  0.00  0.00    +0.227 C 
ATOM     10  C   UNL     1      32.902 -13.336 -20.262  0.00  0.00    +0.157 C 
ATOM     11  C   UNL     1      32.029  -7.522 -23.039  0.00  0.00    +0.006 C 
ATOM     12  C   UNL     1      31.497  -7.872 -21.803  0.00  0.00    +0.037 C 
ATOM     13  C   UNL     1      33.063  -9.695 -23.173  0.00  0.00    +0.007 C 
ATOM     14  C   UNL     1      32.819  -8.433 -23.723  0.00  0.00    +0.000 C 
ENDROOT
BRANCH   8  18
ATOM     15  N   UNL     1      33.963 -15.220 -23.203  0.00  0.00    -0.175 N 
ATOM     16  N   UNL     1      34.844 -15.543 -21.117  0.00  0.00    -0.334 NA
ATOM     17  N   UNL     1      34.674 -16.355 -23.139  0.00  0.00    -0.114 NA
ATOM     18  C   UNL     1      34.096 -14.766 -21.956  0.00  0.00    +0.241 C 
ATOM     19  C   UNL     1      35.195 -16.540 -21.896  0.00  0.00    +0.082 C 
ATOM     20  C   UNL     1      36.019 -17.682 -21.510  0.00  0.00    +0.131 C 
BRANCH  15  21
ATOM     21  C   UNL     1      33.295 -14.754 -24.382  0.00  0.00    +0.100 C 
ATOM     22  C   UNL     1      33.953 -13.488 -24.939  0.00  0.00    +0.024 C 
ATOM     23  C   UNL     1      33.218 -15.843 -25.454  0.00  0.00    +0.024 C 
ENDBRANCH  15  21
ENDBRANCH   8  18
BRANCH  11  26
ATOM     24  N   UNL     1      31.521  -4.066 -23.785  0.00  0.00    -0.205 N 
ATOM     25  N   UNL     1      31.225  -4.518 -25.016  0.00  0.00    -0.176 NA
ATOM     26  C   UNL     1      31.762  -6.229 -23.601  0.00  0.00    +0.037 C 
ATOM     27  C   UNL     1      31.849  -5.051 -22.900  0.00  0.00    +0.086 C 
ATOM     28  C   UNL     1      31.374  -5.840 -24.897  0.00  0.00    +0.119 C 
BRANCH  24  29
ATOM     29  C   UNL     1      31.471  -2.650 -23.511  0.00  0.00    +0.147 C 
ATOM     30  C   UNL     1      32.098  -2.234 -22.161  0.00  0.00    +0.031 C 
ATOM     31  C   UNL     1      32.260  -1.916 -24.620  0.00  0.00    +0.031 C 
BRANCH  29  34
ATOM     32  O   UNL     1      29.408  -1.831 -22.484  0.00  0.00    -0.274 OA
ATOM     33  N   UNL     1      29.423  -2.097 -24.757  0.00  0.00    -0.327 N 
ATOM     34  C   UNL     1      30.008  -2.151 -23.509  0.00  0.00    +0.237 C 
ATOM     35  H   UNL     1      28.492  -1.790 -24.852  0.00  0.00    +0.145 HD
ATOM     36  H   UNL     1      29.937  -2.365 -25.554  0.00  0.00    +0.145 HD
ENDBRANCH  29  34
ENDBRANCH  24  29
ENDBRANCH  11  26
TORSDOF 5
ENDMDL
