MODEL 1
REMARK VINA RESULT:     -11.6      0.000      0.000
REMARK  Name = 629281
REMARK  7 active torsions:
REMARK  status: ('A' for Active; 'I' for Inactive)
REMARK    1  A    between atoms: C_6  and  C_16
REMARK    2  A    between atoms: C_8  and  O_22
REMARK    3  A    between atoms: O_22  and  C_24
REMARK    4  A    between atoms: C_24  and  C_25
REMARK    5  A    between atoms: C_25  and  C_26
REMARK    6  A    between atoms: C_26  and  C_28
REMARK    7  A    between atoms: C_28  and  O_29
REMARK                            x       y       z     vdW  Elec       q    Type
REMARK                         _______ _______ _______ _____ _____    ______ ____
ROOT
ATOM      1 BR   UNL     1      29.070 -23.065 -16.463  0.00  0.00    -0.049 Br
ATOM      2  O   UNL     1      35.978 -24.093 -12.077  0.00  0.00    -0.269 OA
ATOM      3  N   UNL     1      33.901 -23.425 -12.754  0.00  0.00    -0.279 N 
ATOM      4  N   UNL     1      35.283 -24.363 -15.262  0.00  0.00    -0.224 NA
ATOM      5  C   UNL     1      32.977 -23.504 -15.063  0.00  0.00    +0.031 C 
ATOM      6  C   UNL     1      34.314 -23.643 -15.715  0.00  0.00    +0.082 C 
ATOM      7  C   UNL     1      32.843 -23.316 -13.679  0.00  0.00    +0.052 C 
ATOM      8  C   UNL     1      35.089 -25.145 -14.054  0.00  0.00    +0.352 C 
ATOM      9  C   UNL     1      35.058 -24.165 -12.894  0.00  0.00    +0.292 C 
ATOM     10  C   UNL     1      31.840 -23.448 -15.885  0.00  0.00    +0.009 C 
ATOM     11  C   UNL     1      31.588 -22.969 -13.155  0.00  0.00    +0.015 C 
ATOM     12  C   UNL     1      30.590 -23.150 -15.344  0.00  0.00    +0.035 C 
ATOM     13  C   UNL     1      30.467 -22.894 -13.983  0.00  0.00    +0.008 C 
ATOM     14  H   UNL     1      33.805 -22.918 -11.915  0.00  0.00    +0.155 HD
ENDROOT
BRANCH   6  16
ATOM     15 CL   UNL     1      37.007 -22.147 -15.944  0.00  0.00    -0.082 Cl
ATOM     16  C   UNL     1      34.584 -22.876 -16.965  0.00  0.00    +0.028 C 
ATOM     17  C   UNL     1      35.770 -22.174 -17.150  0.00  0.00    +0.059 C 
ATOM     18  C   UNL     1      33.604 -22.881 -17.953  0.00  0.00    +0.002 C 
ATOM     19  C   UNL     1      35.981 -21.471 -18.337  0.00  0.00    +0.011 C 
ATOM     20  C   UNL     1      33.815 -22.177 -19.140  0.00  0.00    +0.000 C 
ATOM     21  C   UNL     1      35.003 -21.473 -19.332  0.00  0.00    +0.001 C 
ENDBRANCH   6  16
BRANCH   8  22
ATOM     22  O   UNL     1      36.125 -26.086 -13.780  0.00  0.00    -0.421 OA
BRANCH  22  24
ATOM     23  O   UNL     1      36.803 -27.230 -15.664  0.00  0.00    -0.250 OA
ATOM     24  C   UNL     1      36.970 -26.359 -14.822  0.00  0.00    +0.319 C 
BRANCH  24  25
ATOM     25  C   UNL     1      38.147 -25.409 -14.763  0.00  0.00    +0.121 C 
BRANCH  25  26
ATOM     26  C   UNL     1      39.147 -25.764 -13.669  0.00  0.00    +0.121 C 
BRANCH  26  28
ATOM     27  O   UNL     1      41.338 -26.781 -13.611  0.00  0.00    -0.250 OA
ATOM     28  C   UNL     1      40.460 -26.221 -14.255  0.00  0.00    +0.314 C 
BRANCH  28  29
ATOM     29  O   UNL     1      40.557 -25.966 -15.583  0.00  0.00    -0.480 OA
ATOM     30  H   UNL     1      41.111 -25.274 -15.887  0.00  0.00    +0.295 HD
ENDBRANCH  28  29
ENDBRANCH  26  28
ENDBRANCH  25  26
ENDBRANCH  24  25
ENDBRANCH  22  24
ENDBRANCH   8  22
TORSDOF 7
ENDMDL
MODEL 2
REMARK VINA RESULT:      -9.1      4.265      6.885
REMARK  Name = 629281
REMARK  7 active torsions:
REMARK  status: ('A' for Active; 'I' for Inactive)
REMARK    1  A    between atoms: C_6  and  C_16
REMARK    2  A    between atoms: C_8  and  O_22
REMARK    3  A    between atoms: O_22  and  C_24
REMARK    4  A    between atoms: C_24  and  C_25
REMARK    5  A    between atoms: C_25  and  C_26
REMARK    6  A    between atoms: C_26  and  C_28
REMARK    7  A    between atoms: C_28  and  O_29
REMARK                            x       y       z     vdW  Elec       q    Type
REMARK                         _______ _______ _______ _____ _____    ______ ____
ROOT
ATOM      1 BR   UNL     1      36.942 -27.646 -13.709  0.00  0.00    -0.049 Br
ATOM      2  O   UNL     1      37.484 -20.032 -16.828  0.00  0.00    -0.269 OA
ATOM      3  N   UNL     1      37.849 -21.912 -15.585  0.00  0.00    -0.279 N 
ATOM      4  N   UNL     1      35.071 -22.239 -16.706  0.00  0.00    -0.224 NA
ATOM      5  C   UNL     1      36.296 -23.830 -15.271  0.00  0.00    +0.031 C 
ATOM      6  C   UNL     1      35.090 -23.075 -15.725  0.00  0.00    +0.082 C 
ATOM      7  C   UNL     1      37.550 -23.215 -15.138  0.00  0.00    +0.052 C 
ATOM      8  C   UNL     1      36.280 -22.015 -17.478  0.00  0.00    +0.352 C 
ATOM      9  C   UNL     1      37.225 -21.215 -16.599  0.00  0.00    +0.292 C 
ATOM     10  C   UNL     1      36.129 -25.163 -14.860  0.00  0.00    +0.009 C 
ATOM     11  C   UNL     1      38.588 -23.911 -14.498  0.00  0.00    +0.015 C 
ATOM     12  C   UNL     1      37.183 -25.858 -14.269  0.00  0.00    +0.035 C 
ATOM     13  C   UNL     1      38.406 -25.227 -14.073  0.00  0.00    +0.008 C 
ATOM     14  H   UNL     1      38.585 -21.448 -15.123  0.00  0.00    +0.155 HD
ENDROOT
BRANCH   6  16
ATOM     15 CL   UNL     1      32.449 -22.763 -17.296  0.00  0.00    -0.082 Cl
ATOM     16  C   UNL     1      33.809 -23.259 -14.983  0.00  0.00    +0.028 C 
ATOM     17  C   UNL     1      32.576 -23.137 -15.614  0.00  0.00    +0.059 C 
ATOM     18  C   UNL     1      33.882 -23.561 -13.627  0.00  0.00    +0.002 C 
ATOM     19  C   UNL     1      31.402 -23.319 -14.882  0.00  0.00    +0.011 C 
ATOM     20  C   UNL     1      32.708 -23.744 -12.894  0.00  0.00    +0.000 C 
ATOM     21  C   UNL     1      31.469 -23.623 -13.521  0.00  0.00    +0.001 C 
ENDBRANCH   6  16
BRANCH   8  22
ATOM     22  O   UNL     1      36.091 -21.269 -18.679  0.00  0.00    -0.421 OA
BRANCH  22  24
ATOM     23  O   UNL     1      34.806 -22.864 -19.739  0.00  0.00    -0.250 OA
ATOM     24  C   UNL     1      35.074 -21.697 -19.490  0.00  0.00    +0.319 C 
BRANCH  24  25
ATOM     25  C   UNL     1      34.336 -20.491 -20.031  0.00  0.00    +0.121 C 
BRANCH  25  26
ATOM     26  C   UNL     1      35.047 -19.834 -21.209  0.00  0.00    +0.121 C 
BRANCH  26  28
ATOM     27  O   UNL     1      35.383 -17.458 -20.932  0.00  0.00    -0.250 OA
ATOM     28  C   UNL     1      35.797 -18.599 -20.776  0.00  0.00    +0.314 C 
BRANCH  28  29
ATOM     29  O   UNL     1      36.976 -18.889 -20.173  0.00  0.00    -0.480 OA
ATOM     30  H   UNL     1      37.181 -19.774 -19.944  0.00  0.00    +0.295 HD
ENDBRANCH  28  29
ENDBRANCH  26  28
ENDBRANCH  25  26
ENDBRANCH  24  25
ENDBRANCH  22  24
ENDBRANCH   8  22
TORSDOF 7
ENDMDL
