MODEL 1
REMARK VINA RESULT:     -11.8      0.000      0.000
REMARK  Name = 60795
REMARK  7 active torsions:
REMARK  status: ('A' for Active; 'I' for Inactive)
REMARK    1  A    between atoms: C_1  and  N_2
REMARK    2  A    between atoms: C_1  and  C_17
REMARK    3  A    between atoms: N_3  and  C_11
REMARK    4  A    between atoms: C_17  and  C_18
REMARK    5  A    between atoms: C_18  and  C_19
REMARK    6  A    between atoms: C_19  and  O_20
REMARK    7  A    between atoms: O_20  and  C_26
REMARK                            x       y       z     vdW  Elec       q    Type
REMARK                         _______ _______ _______ _____ _____    ______ ____
ROOT
ATOM      1  C   UNL     1      34.784 -17.308 -24.201  0.00  0.00    -0.077 C 
ENDROOT
BRANCH   1   2
ATOM      2  N   UNL     1      34.657 -15.860 -24.035  0.00  0.00    +0.389 N 
ATOM      3  N   UNL     1      33.433 -13.432 -23.158  0.00  0.00    -0.311 N 
ATOM      4  C   UNL     1      33.429 -15.374 -24.676  0.00  0.00    -0.055 C 
ATOM      5  C   UNL     1      34.654 -15.502 -22.612  0.00  0.00    -0.055 C 
ATOM      6  C   UNL     1      33.314 -13.853 -24.560  0.00  0.00    +0.068 C 
ATOM      7  C   UNL     1      34.578 -13.984 -22.426  0.00  0.00    +0.068 C 
ATOM      8  H   UNL     1      35.459 -15.418 -24.483  0.00  0.00    -0.080 HD
BRANCH   3  11
ATOM      9 CL   UNL     1      31.906 -13.329 -20.566  0.00  0.00    -0.080 Cl
ATOM     10 CL   UNL     1      30.771 -10.413 -19.851  0.00  0.00    -0.081 Cl
ATOM     11  C   UNL     1      32.919 -12.182 -22.800  0.00  0.00    +0.059 C 
ATOM     12  C   UNL     1      32.179 -11.972 -21.616  0.00  0.00    +0.081 C 
ATOM     13  C   UNL     1      33.137 -11.073 -23.644  0.00  0.00    +0.015 C 
ATOM     14  C   UNL     1      31.680 -10.710 -21.292  0.00  0.00    +0.069 C 
ATOM     15  C   UNL     1      32.639  -9.811 -23.319  0.00  0.00    +0.002 C 
ATOM     16  C   UNL     1      31.910  -9.630 -22.143  0.00  0.00    +0.012 C 
ENDBRANCH   3  11
ENDBRANCH   1   2
BRANCH   1  17
ATOM     17  C   UNL     1      35.298 -17.946 -22.912  0.00  0.00    -0.019 C 
BRANCH  17  18
ATOM     18  C   UNL     1      34.860 -19.406 -22.804  0.00  0.00    +0.045 C 
BRANCH  18  19
ATOM     19  C   UNL     1      34.455 -19.769 -21.382  0.00  0.00    +0.205 C 
BRANCH  19  20
ATOM     20  O   UNL     1      35.577 -20.302 -20.681  0.00  0.00    -0.475 OA
BRANCH  20  26
ATOM     21  O   UNL     1      37.814 -23.060 -14.529  0.00  0.00    -0.275 OA
ATOM     22  N   UNL     1      37.092 -22.218 -16.540  0.00  0.00    -0.284 N 
ATOM     23  C   UNL     1      34.781 -22.506 -17.243  0.00  0.00    -0.008 C 
ATOM     24  C   UNL     1      34.546 -23.385 -16.049  0.00  0.00    +0.037 C 
ATOM     25  C   UNL     1      36.062 -21.983 -17.468  0.00  0.00    +0.049 C 
ATOM     26  C   UNL     1      35.319 -21.023 -19.555  0.00  0.00    +0.140 C 
ATOM     27  C   UNL     1      35.444 -22.979 -14.890  0.00  0.00    +0.090 C 
ATOM     28  C   UNL     1      36.334 -21.251 -18.627  0.00  0.00    +0.051 C 
ATOM     29  C   UNL     1      33.774 -22.282 -18.187  0.00  0.00    +0.000 C 
ATOM     30  C   UNL     1      34.041 -21.535 -19.335  0.00  0.00    +0.037 C 
ATOM     31  C   UNL     1      36.893 -22.795 -15.301  0.00  0.00    +0.226 C 
ATOM     32  H   UNL     1      38.008 -21.956 -16.789  0.00  0.00    +0.155 HD
ENDBRANCH  20  26
ENDBRANCH  19  20
ENDBRANCH  18  19
ENDBRANCH  17  18
ENDBRANCH   1  17
TORSDOF 7
ENDMDL
MODEL 2
REMARK VINA RESULT:     -11.4      1.928      2.568
REMARK  Name = 60795
REMARK  7 active torsions:
REMARK  status: ('A' for Active; 'I' for Inactive)
REMARK    1  A    between atoms: C_1  and  N_2
REMARK    2  A    between atoms: C_1  and  C_17
REMARK    3  A    between atoms: N_3  and  C_11
REMARK    4  A    between atoms: C_17  and  C_18
REMARK    5  A    between atoms: C_18  and  C_19
REMARK    6  A    between atoms: C_19  and  O_20
REMARK    7  A    between atoms: O_20  and  C_26
REMARK                            x       y       z     vdW  Elec       q    Type
REMARK                         _______ _______ _______ _____ _____    ______ ____
ROOT
ATOM      1  C   UNL     1      35.796 -18.703 -21.931  0.00  0.00    -0.077 C 
ENDROOT
BRANCH   1   2
ATOM      2  N   UNL     1      35.641 -17.263 -22.126  0.00  0.00    +0.389 N 
ATOM      3  N   UNL     1      34.207 -14.804 -22.375  0.00  0.00    -0.311 N 
ATOM      4  C   UNL     1      34.840 -16.988 -23.325  0.00  0.00    -0.055 C 
ATOM      5  C   UNL     1      35.008 -16.649 -20.952  0.00  0.00    -0.055 C 
ATOM      6  C   UNL     1      34.718 -15.484 -23.572  0.00  0.00    +0.068 C 
ATOM      7  C   UNL     1      34.890 -15.132 -21.120  0.00  0.00    +0.068 C 
ATOM      8  H   UNL     1      36.568 -16.857 -22.249  0.00  0.00    -0.080 HD
BRANCH   3  11
ATOM      9 CL   UNL     1      32.069 -14.093 -20.379  0.00  0.00    -0.080 Cl
ATOM     10 CL   UNL     1      30.779 -11.191 -20.845  0.00  0.00    -0.081 Cl
ATOM     11  C   UNL     1      33.614 -13.547 -22.534  0.00  0.00    +0.059 C 
ATOM     12  C   UNL     1      32.596 -13.071 -21.679  0.00  0.00    +0.081 C 
ATOM     13  C   UNL     1      34.035 -12.708 -23.586  0.00  0.00    +0.015 C 
ATOM     14  C   UNL     1      32.027 -11.811 -21.870  0.00  0.00    +0.069 C 
ATOM     15  C   UNL     1      33.467 -11.448 -23.776  0.00  0.00    +0.002 C 
ATOM     16  C   UNL     1      32.462 -11.000 -22.917  0.00  0.00    +0.012 C 
ENDBRANCH   3  11
ENDBRANCH   1   2
BRANCH   1  17
ATOM     17  C   UNL     1      35.041 -19.155 -20.682  0.00  0.00    -0.019 C 
BRANCH  17  18
ATOM     18  C   UNL     1      33.931 -20.145 -21.034  0.00  0.00    +0.045 C 
BRANCH  18  19
ATOM     19  C   UNL     1      33.059 -20.465 -19.828  0.00  0.00    +0.205 C 
BRANCH  19  20
ATOM     20  O   UNL     1      33.125 -21.860 -19.539  0.00  0.00    -0.475 OA
BRANCH  20  26
ATOM     21  O   UNL     1      32.614 -24.645 -13.025  0.00  0.00    -0.275 OA
ATOM     22  N   UNL     1      32.784 -23.695 -15.109  0.00  0.00    -0.284 N 
ATOM     23  C   UNL     1      34.942 -22.968 -15.964  0.00  0.00    -0.008 C 
ATOM     24  C   UNL     1      35.556 -23.277 -14.629  0.00  0.00    +0.037 C 
ATOM     25  C   UNL     1      33.565 -23.151 -16.145  0.00  0.00    +0.049 C 
ATOM     26  C   UNL     1      33.718 -22.223 -18.368  0.00  0.00    +0.140 C 
ATOM     27  C   UNL     1      34.818 -24.418 -13.944  0.00  0.00    +0.090 C 
ATOM     28  C   UNL     1      32.950 -22.771 -17.341  0.00  0.00    +0.051 C 
ATOM     29  C   UNL     1      35.700 -22.405 -16.996  0.00  0.00    +0.000 C 
ATOM     30  C   UNL     1      35.090 -22.043 -18.198  0.00  0.00    +0.037 C 
ATOM     31  C   UNL     1      33.312 -24.238 -13.954  0.00  0.00    +0.226 C 
ATOM     32  H   UNL     1      31.805 -23.687 -15.213  0.00  0.00    +0.155 HD
ENDBRANCH  20  26
ENDBRANCH  19  20
ENDBRANCH  18  19
ENDBRANCH  17  18
ENDBRANCH   1  17
TORSDOF 7
ENDMDL
MODEL 3
REMARK VINA RESULT:     -11.4      2.813      3.616
REMARK  Name = 60795
REMARK  7 active torsions:
REMARK  status: ('A' for Active; 'I' for Inactive)
REMARK    1  A    between atoms: C_1  and  N_2
REMARK    2  A    between atoms: C_1  and  C_17
REMARK    3  A    between atoms: N_3  and  C_11
REMARK    4  A    between atoms: C_17  and  C_18
REMARK    5  A    between atoms: C_18  and  C_19
REMARK    6  A    between atoms: C_19  and  O_20
REMARK    7  A    between atoms: O_20  and  C_26
REMARK                            x       y       z     vdW  Elec       q    Type
REMARK                         _______ _______ _______ _____ _____    ______ ____
ROOT
ATOM      1  C   UNL     1      35.747 -18.980 -21.852  0.00  0.00    -0.077 C 
ENDROOT
BRANCH   1   2
ATOM      2  N   UNL     1      35.628 -17.534 -22.028  0.00  0.00    +0.389 N 
ATOM      3  N   UNL     1      34.253 -15.042 -22.280  0.00  0.00    -0.311 N 
ATOM      4  C   UNL     1      34.867 -17.225 -23.246  0.00  0.00    -0.055 C 
ATOM      5  C   UNL     1      34.974 -16.925 -20.864  0.00  0.00    -0.055 C 
ATOM      6  C   UNL     1      34.784 -15.714 -23.473  0.00  0.00    +0.068 C 
ATOM      7  C   UNL     1      34.892 -15.403 -21.011  0.00  0.00    +0.068 C 
ATOM      8  H   UNL     1      36.566 -17.146 -22.119  0.00  0.00    -0.080 HD
BRANCH   3  11
ATOM      9 CL   UNL     1      32.154 -14.272 -20.265  0.00  0.00    -0.080 Cl
ATOM     10 CL   UNL     1      30.935 -11.338 -20.725  0.00  0.00    -0.081 Cl
ATOM     11  C   UNL     1      33.691 -13.771 -22.437  0.00  0.00    +0.059 C 
ATOM     12  C   UNL     1      32.694 -13.266 -21.573  0.00  0.00    +0.081 C 
ATOM     13  C   UNL     1      34.124 -12.944 -23.494  0.00  0.00    +0.015 C 
ATOM     14  C   UNL     1      32.156 -11.992 -21.761  0.00  0.00    +0.069 C 
ATOM     15  C   UNL     1      33.586 -11.671 -23.681  0.00  0.00    +0.002 C 
ATOM     16  C   UNL     1      32.602 -11.195 -22.815  0.00  0.00    +0.012 C 
ENDBRANCH   3  11
ENDBRANCH   1   2
BRANCH   1  17
ATOM     17  C   UNL     1      34.815 -19.458 -20.740  0.00  0.00    -0.019 C 
BRANCH  17  18
ATOM     18  C   UNL     1      35.471 -20.554 -19.901  0.00  0.00    +0.045 C 
BRANCH  18  19
ATOM     19  C   UNL     1      34.484 -21.659 -19.548  0.00  0.00    +0.205 C 
BRANCH  19  20
ATOM     20  O   UNL     1      35.021 -22.471 -18.505  0.00  0.00    -0.475 OA
BRANCH  20  26
ATOM     21  O   UNL     1      28.570 -22.961 -15.573  0.00  0.00    -0.275 OA
ATOM     22  N   UNL     1      30.661 -22.753 -16.499  0.00  0.00    -0.284 N 
ATOM     23  C   UNL     1      32.652 -23.041 -15.132  0.00  0.00    -0.008 C 
ATOM     24  C   UNL     1      31.780 -23.138 -13.914  0.00  0.00    +0.037 C 
ATOM     25  C   UNL     1      32.061 -22.811 -16.382  0.00  0.00    +0.049 C 
ATOM     26  C   UNL     1      34.244 -22.657 -17.403  0.00  0.00    +0.140 C 
ATOM     27  C   UNL     1      30.425 -23.733 -14.263  0.00  0.00    +0.090 C 
ATOM     28  C   UNL     1      32.855 -22.609 -17.515  0.00  0.00    +0.051 C 
ATOM     29  C   UNL     1      34.047 -23.073 -15.029  0.00  0.00    +0.000 C 
ATOM     30  C   UNL     1      34.839 -22.891 -16.164  0.00  0.00    +0.037 C 
ATOM     31  C   UNL     1      29.791 -23.085 -15.480  0.00  0.00    +0.226 C 
ATOM     32  H   UNL     1      30.280 -22.458 -17.358  0.00  0.00    +0.155 HD
ENDBRANCH  20  26
ENDBRANCH  19  20
ENDBRANCH  18  19
ENDBRANCH  17  18
ENDBRANCH   1  17
TORSDOF 7
ENDMDL
MODEL 4
REMARK VINA RESULT:     -11.4      4.237     11.047
REMARK  Name = 60795
REMARK  7 active torsions:
REMARK  status: ('A' for Active; 'I' for Inactive)
REMARK    1  A    between atoms: C_1  and  N_2
REMARK    2  A    between atoms: C_1  and  C_17
REMARK    3  A    between atoms: N_3  and  C_11
REMARK    4  A    between atoms: C_17  and  C_18
REMARK    5  A    between atoms: C_18  and  C_19
REMARK    6  A    between atoms: C_19  and  O_20
REMARK    7  A    between atoms: O_20  and  C_26
REMARK                            x       y       z     vdW  Elec       q    Type
REMARK                         _______ _______ _______ _____ _____    ______ ____
ROOT
ATOM      1  C   UNL     1      34.759 -16.297 -24.358  0.00  0.00    -0.077 C 
ENDROOT
BRANCH   1   2
ATOM      2  N   UNL     1      35.276 -17.345 -23.480  0.00  0.00    +0.389 N 
ATOM      3  N   UNL     1      35.186 -19.230 -21.335  0.00  0.00    -0.311 N 
ATOM      4  C   UNL     1      35.294 -16.885 -22.085  0.00  0.00    -0.055 C 
ATOM      5  C   UNL     1      34.464 -18.562 -23.594  0.00  0.00    -0.055 C 
ATOM      6  C   UNL     1      35.887 -17.951 -21.163  0.00  0.00    +0.068 C 
ATOM      7  C   UNL     1      35.028 -19.685 -22.720  0.00  0.00    +0.068 C 
ATOM      8  H   UNL     1      36.231 -17.558 -23.768  0.00  0.00    -0.080 HD
BRANCH   3  11
ATOM      9 CL   UNL     1      32.563 -20.306 -20.324  0.00  0.00    -0.080 Cl
ATOM     10 CL   UNL     1      32.872 -22.448 -17.954  0.00  0.00    -0.081 Cl
ATOM     11  C   UNL     1      35.267 -20.170 -20.302  0.00  0.00    +0.059 C 
ATOM     12  C   UNL     1      34.126 -20.764 -19.721  0.00  0.00    +0.081 C 
ATOM     13  C   UNL     1      36.531 -20.551 -19.806  0.00  0.00    +0.015 C 
ATOM     14  C   UNL     1      34.245 -21.698 -18.690  0.00  0.00    +0.069 C 
ATOM     15  C   UNL     1      36.650 -21.485 -18.777  0.00  0.00    +0.002 C 
ATOM     16  C   UNL     1      35.507 -22.058 -18.219  0.00  0.00    +0.012 C 
ENDBRANCH   3  11
ENDBRANCH   1   2
BRANCH   1  17
ATOM     17  C   UNL     1      34.274 -15.105 -23.535  0.00  0.00    -0.019 C 
BRANCH  17  18
ATOM     18  C   UNL     1      33.208 -14.310 -24.288  0.00  0.00    +0.045 C 
BRANCH  18  19
ATOM     19  C   UNL     1      33.098 -12.883 -23.767  0.00  0.00    +0.205 C 
BRANCH  19  20
ATOM     20  O   UNL     1      32.080 -12.809 -22.771  0.00  0.00    -0.475 OA
BRANCH  20  26
ATOM     21  O   UNL     1      33.004  -5.789 -22.207  0.00  0.00    -0.275 OA
ATOM     22  N   UNL     1      32.751  -8.067 -22.361  0.00  0.00    -0.284 N 
ATOM     23  C   UNL     1      31.928  -9.349 -20.465  0.00  0.00    -0.008 C 
ATOM     24  C   UNL     1      31.982  -8.107 -19.624  0.00  0.00    +0.037 C 
ATOM     25  C   UNL     1      32.354  -9.293 -21.799  0.00  0.00    +0.049 C 
ATOM     26  C   UNL     1      32.031 -11.676 -22.018  0.00  0.00    +0.140 C 
ATOM     27  C   UNL     1      31.747  -6.866 -20.472  0.00  0.00    +0.090 C 
ATOM     28  C   UNL     1      32.416 -10.455 -22.573  0.00  0.00    +0.051 C 
ATOM     29  C   UNL     1      31.558 -10.580 -19.915  0.00  0.00    +0.000 C 
ATOM     30  C   UNL     1      31.601 -11.739 -20.693  0.00  0.00    +0.037 C 
ATOM     31  C   UNL     1      32.587  -6.846 -21.735  0.00  0.00    +0.226 C 
ATOM     32  H   UNL     1      33.171  -8.079 -23.252  0.00  0.00    +0.155 HD
ENDBRANCH  20  26
ENDBRANCH  19  20
ENDBRANCH  18  19
ENDBRANCH  17  18
ENDBRANCH   1  17
TORSDOF 7
ENDMDL
MODEL 5
REMARK VINA RESULT:     -11.3      3.247      6.122
REMARK  Name = 60795
REMARK  7 active torsions:
REMARK  status: ('A' for Active; 'I' for Inactive)
REMARK    1  A    between atoms: C_1  and  N_2
REMARK    2  A    between atoms: C_1  and  C_17
REMARK    3  A    between atoms: N_3  and  C_11
REMARK    4  A    between atoms: C_17  and  C_18
REMARK    5  A    between atoms: C_18  and  C_19
REMARK    6  A    between atoms: C_19  and  O_20
REMARK    7  A    between atoms: O_20  and  C_26
REMARK                            x       y       z     vdW  Elec       q    Type
REMARK                         _______ _______ _______ _____ _____    ______ ____
ROOT
ATOM      1  C   UNL     1      35.804 -21.704 -18.698  0.00  0.00    -0.077 C 
ENDROOT
BRANCH   1   2
ATOM      2  N   UNL     1      35.736 -20.897 -19.915  0.00  0.00    +0.389 N 
ATOM      3  N   UNL     1      35.241 -18.546 -21.462  0.00  0.00    -0.311 N 
ATOM      4  C   UNL     1      34.361 -20.442 -20.156  0.00  0.00    -0.055 C 
ATOM      5  C   UNL     1      36.634 -19.740 -19.817  0.00  0.00    -0.055 C 
ATOM      6  C   UNL     1      34.266 -19.645 -21.458  0.00  0.00    +0.068 C 
ATOM      7  C   UNL     1      36.615 -18.916 -21.108  0.00  0.00    +0.068 C 
ATOM      8  H   UNL     1      36.033 -21.478 -20.699  0.00  0.00    -0.080 HD
BRANCH   3  11
ATOM      9 CL   UNL     1      34.945 -15.853 -20.150  0.00  0.00    -0.080 Cl
ATOM     10 CL   UNL     1      34.423 -13.457 -22.221  0.00  0.00    -0.081 Cl
ATOM     11  C   UNL     1      35.013 -17.467 -22.323  0.00  0.00    +0.059 C 
ATOM     12  C   UNL     1      34.852 -16.143 -21.859  0.00  0.00    +0.081 C 
ATOM     13  C   UNL     1      34.938 -17.691 -23.713  0.00  0.00    +0.015 C 
ATOM     14  C   UNL     1      34.625 -15.091 -22.748  0.00  0.00    +0.069 C 
ATOM     15  C   UNL     1      34.712 -16.639 -24.601  0.00  0.00    +0.002 C 
ATOM     16  C   UNL     1      34.556 -15.340 -24.119  0.00  0.00    +0.012 C 
ENDBRANCH   3  11
ENDBRANCH   1   2
BRANCH   1  17
ATOM     17  C   UNL     1      36.877 -21.158 -17.758  0.00  0.00    -0.019 C 
BRANCH  17  18
ATOM     18  C   UNL     1      37.190 -22.151 -16.640  0.00  0.00    +0.045 C 
BRANCH  18  19
ATOM     19  C   UNL     1      36.044 -22.256 -15.643  0.00  0.00    +0.205 C 
BRANCH  19  20
ATOM     20  O   UNL     1      35.492 -23.571 -15.678  0.00  0.00    -0.475 OA
BRANCH  20  26
ATOM     21  O   UNL     1      28.572 -22.408 -16.779  0.00  0.00    -0.275 OA
ATOM     22  N   UNL     1      30.809 -22.746 -16.384  0.00  0.00    -0.284 N 
ATOM     23  C   UNL     1      31.545 -24.005 -14.437  0.00  0.00    -0.008 C 
ATOM     24  C   UNL     1      30.123 -24.056 -13.956  0.00  0.00    +0.037 C 
ATOM     25  C   UNL     1      31.844 -23.314 -15.620  0.00  0.00    +0.049 C 
ATOM     26  C   UNL     1      34.200 -23.712 -15.274  0.00  0.00    +0.140 C 
ATOM     27  C   UNL     1      29.153 -24.047 -15.128  0.00  0.00    +0.090 C 
ATOM     28  C   UNL     1      33.170 -23.158 -16.033  0.00  0.00    +0.051 C 
ATOM     29  C   UNL     1      32.587 -24.544 -13.677  0.00  0.00    +0.000 C 
ATOM     30  C   UNL     1      33.910 -24.406 -14.100  0.00  0.00    +0.037 C 
ATOM     31  C   UNL     1      29.467 -22.968 -16.147  0.00  0.00    +0.226 C 
ATOM     32  H   UNL     1      31.057 -22.155 -17.132  0.00  0.00    +0.155 HD
ENDBRANCH  20  26
ENDBRANCH  19  20
ENDBRANCH  18  19
ENDBRANCH  17  18
ENDBRANCH   1  17
TORSDOF 7
ENDMDL
MODEL 6
REMARK VINA RESULT:     -11.3      1.712      2.102
REMARK  Name = 60795
REMARK  7 active torsions:
REMARK  status: ('A' for Active; 'I' for Inactive)
REMARK    1  A    between atoms: C_1  and  N_2
REMARK    2  A    between atoms: C_1  and  C_17
REMARK    3  A    between atoms: N_3  and  C_11
REMARK    4  A    between atoms: C_17  and  C_18
REMARK    5  A    between atoms: C_18  and  C_19
REMARK    6  A    between atoms: C_19  and  O_20
REMARK    7  A    between atoms: O_20  and  C_26
REMARK                            x       y       z     vdW  Elec       q    Type
REMARK                         _______ _______ _______ _____ _____    ______ ____
ROOT
ATOM      1  C   UNL     1      34.829 -16.861 -24.279  0.00  0.00    -0.077 C 
ENDROOT
BRANCH   1   2
ATOM      2  N   UNL     1      34.639 -15.433 -24.030  0.00  0.00    +0.389 N 
ATOM      3  N   UNL     1      33.312 -13.119 -23.008  0.00  0.00    -0.311 N 
ATOM      4  C   UNL     1      33.384 -14.968 -24.634  0.00  0.00    -0.055 C 
ATOM      5  C   UNL     1      34.630 -15.158 -22.588  0.00  0.00    -0.055 C 
ATOM      6  C   UNL     1      33.201 -13.463 -24.431  0.00  0.00    +0.068 C 
ATOM      7  C   UNL     1      34.487 -13.658 -22.315  0.00  0.00    +0.068 C 
ATOM      8  H   UNL     1      35.416 -14.930 -24.456  0.00  0.00    -0.080 HD
BRANCH   3  11
ATOM      9 CL   UNL     1      32.003 -13.178 -20.298  0.00  0.00    -0.080 Cl
ATOM     10 CL   UNL     1      30.733 -10.366 -19.414  0.00  0.00    -0.081 Cl
ATOM     11  C   UNL     1      32.745 -11.916 -22.575  0.00  0.00    +0.059 C 
ATOM     12  C   UNL     1      32.093 -11.784 -21.329  0.00  0.00    +0.081 C 
ATOM     13  C   UNL     1      32.814 -10.776 -23.404  0.00  0.00    +0.015 C 
ATOM     14  C   UNL     1      31.537 -10.568 -20.932  0.00  0.00    +0.069 C 
ATOM     15  C   UNL     1      32.259  -9.560 -23.006  0.00  0.00    +0.002 C 
ATOM     16  C   UNL     1      31.620  -9.456 -21.770  0.00  0.00    +0.012 C 
ENDBRANCH   3  11
ENDBRANCH   1   2
BRANCH   1  17
ATOM     17  C   UNL     1      35.269 -17.569 -22.999  0.00  0.00    -0.019 C 
BRANCH  17  18
ATOM     18  C   UNL     1      34.840 -19.036 -23.002  0.00  0.00    +0.045 C 
BRANCH  18  19
ATOM     19  C   UNL     1      35.214 -19.735 -21.701  0.00  0.00    +0.205 C 
BRANCH  19  20
ATOM     20  O   UNL     1      34.033 -20.157 -21.022  0.00  0.00    -0.475 OA
BRANCH  20  26
ATOM     21  O   UNL     1      31.210 -23.756 -15.588  0.00  0.00    -0.275 OA
ATOM     22  N   UNL     1      32.134 -22.551 -17.311  0.00  0.00    -0.284 N 
ATOM     23  C   UNL     1      34.549 -22.362 -17.532  0.00  0.00    -0.008 C 
ATOM     24  C   UNL     1      34.707 -23.068 -16.216  0.00  0.00    +0.037 C 
ATOM     25  C   UNL     1      33.262 -22.092 -18.016  0.00  0.00    +0.049 C 
ATOM     26  C   UNL     1      34.200 -20.878 -19.880  0.00  0.00    +0.140 C 
ATOM     27  C   UNL     1      33.560 -24.038 -15.980  0.00  0.00    +0.090 C 
ATOM     28  C   UNL     1      33.085 -21.343 -19.182  0.00  0.00    +0.051 C 
ATOM     29  C   UNL     1      35.659 -21.879 -18.232  0.00  0.00    +0.000 C 
ATOM     30  C   UNL     1      35.484 -21.148 -19.408  0.00  0.00    +0.037 C 
ATOM     31  C   UNL     1      32.199 -23.420 -16.239  0.00  0.00    +0.226 C 
ATOM     32  H   UNL     1      31.247 -22.234 -17.599  0.00  0.00    +0.155 HD
ENDBRANCH  20  26
ENDBRANCH  19  20
ENDBRANCH  18  19
ENDBRANCH  17  18
ENDBRANCH   1  17
TORSDOF 7
ENDMDL
MODEL 7
REMARK VINA RESULT:     -11.3      4.314      9.970
REMARK  Name = 60795
REMARK  7 active torsions:
REMARK  status: ('A' for Active; 'I' for Inactive)
REMARK    1  A    between atoms: C_1  and  N_2
REMARK    2  A    between atoms: C_1  and  C_17
REMARK    3  A    between atoms: N_3  and  C_11
REMARK    4  A    between atoms: C_17  and  C_18
REMARK    5  A    between atoms: C_18  and  C_19
REMARK    6  A    between atoms: C_19  and  O_20
REMARK    7  A    between atoms: O_20  and  C_26
REMARK                            x       y       z     vdW  Elec       q    Type
REMARK                         _______ _______ _______ _____ _____    ______ ____
ROOT
ATOM      1  C   UNL     1      35.030 -15.955 -24.567  0.00  0.00    -0.077 C 
ENDROOT
BRANCH   1   2
ATOM      2  N   UNL     1      35.334 -17.029 -23.623  0.00  0.00    +0.389 N 
ATOM      3  N   UNL     1      34.762 -18.965 -21.601  0.00  0.00    -0.311 N 
ATOM      4  C   UNL     1      35.044 -16.603 -22.248  0.00  0.00    -0.055 C 
ATOM      5  C   UNL     1      34.562 -18.234 -23.946  0.00  0.00    -0.055 C 
ATOM      6  C   UNL     1      35.413 -17.698 -21.245  0.00  0.00    +0.068 C 
ATOM      7  C   UNL     1      34.913 -19.384 -22.998  0.00  0.00    +0.068 C 
ATOM      8  H   UNL     1      36.328 -17.245 -23.697  0.00  0.00    -0.080 HD
BRANCH   3  11
ATOM      9 CL   UNL     1      37.260 -19.726 -20.105  0.00  0.00    -0.080 Cl
ATOM     10 CL   UNL     1      36.783 -21.949 -17.839  0.00  0.00    -0.081 Cl
ATOM     11  C   UNL     1      34.606 -19.930 -20.600  0.00  0.00    +0.059 C 
ATOM     12  C   UNL     1      35.683 -20.392 -19.813  0.00  0.00    +0.081 C 
ATOM     13  C   UNL     1      33.330 -20.476 -20.353  0.00  0.00    +0.015 C 
ATOM     14  C   UNL     1      35.491 -21.358 -18.824  0.00  0.00    +0.069 C 
ATOM     15  C   UNL     1      33.137 -21.440 -19.364  0.00  0.00    +0.002 C 
ATOM     16  C   UNL     1      34.218 -21.881 -18.600  0.00  0.00    +0.012 C 
ENDBRANCH   3  11
ENDBRANCH   1   2
BRANCH   1  17
ATOM     17  C   UNL     1      33.544 -15.964 -24.920  0.00  0.00    -0.019 C 
BRANCH  17  18
ATOM     18  C   UNL     1      33.086 -14.596 -25.424  0.00  0.00    +0.045 C 
BRANCH  18  19
ATOM     19  C   UNL     1      33.145 -13.543 -24.325  0.00  0.00    +0.205 C 
BRANCH  19  20
ATOM     20  O   UNL     1      32.940 -14.157 -23.055  0.00  0.00    -0.475 OA
BRANCH  20  26
ATOM     21  O   UNL     1      31.809  -7.610 -20.543  0.00  0.00    -0.275 OA
ATOM     22  N   UNL     1      32.224  -9.727 -21.332  0.00  0.00    -0.284 N 
ATOM     23  C   UNL     1      32.085 -11.649 -19.847  0.00  0.00    -0.008 C 
ATOM     24  C   UNL     1      31.883 -10.716 -18.688  0.00  0.00    +0.037 C 
ATOM     25  C   UNL     1      32.289 -11.117 -21.128  0.00  0.00    +0.049 C 
ATOM     26  C   UNL     1      32.660 -13.334 -22.007  0.00  0.00    +0.140 C 
ATOM     27  C   UNL     1      31.177  -9.444 -19.131  0.00  0.00    +0.090 C 
ATOM     28  C   UNL     1      32.586 -11.956 -22.205  0.00  0.00    +0.051 C 
ATOM     29  C   UNL     1      32.176 -13.031 -19.657  0.00  0.00    +0.000 C 
ATOM     30  C   UNL     1      32.453 -13.872 -20.737  0.00  0.00    +0.037 C 
ATOM     31  C   UNL     1      31.792  -8.829 -20.374  0.00  0.00    +0.226 C 
ATOM     32  H   UNL     1      32.502  -9.373 -22.208  0.00  0.00    +0.155 HD
ENDBRANCH  20  26
ENDBRANCH  19  20
ENDBRANCH  18  19
ENDBRANCH  17  18
ENDBRANCH   1  17
TORSDOF 7
ENDMDL
MODEL 8
REMARK VINA RESULT:     -11.2      2.763      4.268
REMARK  Name = 60795
REMARK  7 active torsions:
REMARK  status: ('A' for Active; 'I' for Inactive)
REMARK    1  A    between atoms: C_1  and  N_2
REMARK    2  A    between atoms: C_1  and  C_17
REMARK    3  A    between atoms: N_3  and  C_11
REMARK    4  A    between atoms: C_17  and  C_18
REMARK    5  A    between atoms: C_18  and  C_19
REMARK    6  A    between atoms: C_19  and  O_20
REMARK    7  A    between atoms: O_20  and  C_26
REMARK                            x       y       z     vdW  Elec       q    Type
REMARK                         _______ _______ _______ _____ _____    ______ ____
ROOT
ATOM      1  C   UNL     1      33.405 -13.927 -24.182  0.00  0.00    -0.077 C 
ENDROOT
BRANCH   1   2
ATOM      2  N   UNL     1      33.381 -12.745 -23.322  0.00  0.00    +0.389 N 
ATOM      3  N   UNL     1      32.538 -10.149 -22.480  0.00  0.00    -0.311 N 
ATOM      4  C   UNL     1      33.788 -11.552 -24.074  0.00  0.00    -0.055 C 
ATOM      5  C   UNL     1      32.041 -12.546 -22.756  0.00  0.00    -0.055 C 
ATOM      6  C   UNL     1      33.823 -10.318 -23.171  0.00  0.00    +0.068 C 
ATOM      7  C   UNL     1      32.016 -11.344 -21.809  0.00  0.00    +0.068 C 
ATOM      8  H   UNL     1      34.041 -12.894 -22.559  0.00  0.00    -0.080 HD
BRANCH   3  11
ATOM      9 CL   UNL     1      31.432  -8.189 -24.480  0.00  0.00    -0.080 Cl
ATOM     10 CL   UNL     1      30.744  -5.315 -23.228  0.00  0.00    -0.081 Cl
ATOM     11  C   UNL     1      32.220  -8.880 -21.983  0.00  0.00    +0.059 C 
ATOM     12  C   UNL     1      31.694  -7.853 -22.796  0.00  0.00    +0.081 C 
ATOM     13  C   UNL     1      32.427  -8.597 -20.617  0.00  0.00    +0.015 C 
ATOM     14  C   UNL     1      31.390  -6.598 -22.266  0.00  0.00    +0.069 C 
ATOM     15  C   UNL     1      32.121  -7.343 -20.087  0.00  0.00    +0.002 C 
ATOM     16  C   UNL     1      31.603  -6.344 -20.911  0.00  0.00    +0.012 C 
ENDBRANCH   3  11
ENDBRANCH   1   2
BRANCH   1  17
ATOM     17  C   UNL     1      34.225 -15.040 -23.533  0.00  0.00    -0.019 C 
BRANCH  17  18
ATOM     18  C   UNL     1      34.458 -16.195 -24.506  0.00  0.00    +0.045 C 
BRANCH  18  19
ATOM     19  C   UNL     1      34.655 -17.516 -23.775  0.00  0.00    +0.205 C 
BRANCH  19  20
ATOM     20  O   UNL     1      35.745 -17.406 -22.862  0.00  0.00    -0.475 OA
BRANCH  20  26
ATOM     21  O   UNL     1      32.586 -22.190 -18.668  0.00  0.00    -0.275 OA
ATOM     22  N   UNL     1      33.613 -20.610 -19.981  0.00  0.00    -0.284 N 
ATOM     23  C   UNL     1      36.022 -20.292 -19.878  0.00  0.00    -0.008 C 
ATOM     24  C   UNL     1      36.082 -21.259 -18.731  0.00  0.00    +0.037 C 
ATOM     25  C   UNL     1      34.778 -19.971 -20.439  0.00  0.00    +0.049 C 
ATOM     26  C   UNL     1      35.833 -18.351 -21.885  0.00  0.00    +0.140 C 
ATOM     27  C   UNL     1      34.977 -22.298 -18.838  0.00  0.00    +0.090 C 
ATOM     28  C   UNL     1      34.681 -18.994 -21.434  0.00  0.00    +0.051 C 
ATOM     29  C   UNL     1      37.168 -19.631 -20.329  0.00  0.00    +0.000 C 
ATOM     30  C   UNL     1      37.074 -18.669 -21.337  0.00  0.00    +0.037 C 
ATOM     31  C   UNL     1      33.616 -21.687 -19.116  0.00  0.00    +0.226 C 
ATOM     32  H   UNL     1      32.743 -20.270 -20.296  0.00  0.00    +0.155 HD
ENDBRANCH  20  26
ENDBRANCH  19  20
ENDBRANCH  18  19
ENDBRANCH  17  18
ENDBRANCH   1  17
TORSDOF 7
ENDMDL
MODEL 9
REMARK VINA RESULT:     -11.1      2.644      4.467
REMARK  Name = 60795
REMARK  7 active torsions:
REMARK  status: ('A' for Active; 'I' for Inactive)
REMARK    1  A    between atoms: C_1  and  N_2
REMARK    2  A    between atoms: C_1  and  C_17
REMARK    3  A    between atoms: N_3  and  C_11
REMARK    4  A    between atoms: C_17  and  C_18
REMARK    5  A    between atoms: C_18  and  C_19
REMARK    6  A    between atoms: C_19  and  O_20
REMARK    7  A    between atoms: O_20  and  C_26
REMARK                            x       y       z     vdW  Elec       q    Type
REMARK                         _______ _______ _______ _____ _____    ______ ____
ROOT
ATOM      1  C   UNL     1      33.095 -13.643 -22.191  0.00  0.00    -0.077 C 
ENDROOT
BRANCH   1   2
ATOM      2  N   UNL     1      32.452 -12.411 -22.647  0.00  0.00    +0.389 N 
ATOM      3  N   UNL     1      32.051  -9.588 -22.819  0.00  0.00    -0.311 N 
ATOM      4  C   UNL     1      31.895 -11.669 -21.509  0.00  0.00    -0.055 C 
ATOM      5  C   UNL     1      33.410 -11.568 -23.372  0.00  0.00    -0.055 C 
ATOM      6  C   UNL     1      31.169 -10.407 -21.978  0.00  0.00    +0.068 C 
ATOM      7  C   UNL     1      32.735 -10.300 -23.903  0.00  0.00    +0.068 C 
ATOM      8  H   UNL     1      31.693 -12.664 -23.279  0.00  0.00    -0.080 HD
BRANCH   3  11
ATOM      9 CL   UNL     1      32.873  -7.800 -20.541  0.00  0.00    -0.080 Cl
ATOM     10 CL   UNL     1      32.121  -4.711 -20.985  0.00  0.00    -0.081 Cl
ATOM     11  C   UNL     1      31.747  -8.230 -22.965  0.00  0.00    +0.059 C 
ATOM     12  C   UNL     1      32.066  -7.267 -21.983  0.00  0.00    +0.081 C 
ATOM     13  C   UNL     1      31.093  -7.786 -24.133  0.00  0.00    +0.015 C 
ATOM     14  C   UNL     1      31.745  -5.921 -22.163  0.00  0.00    +0.069 C 
ATOM     15  C   UNL     1      30.773  -6.440 -24.313  0.00  0.00    +0.002 C 
ATOM     16  C   UNL     1      31.100  -5.508 -23.328  0.00  0.00    +0.012 C 
ENDBRANCH   3  11
ENDBRANCH   1   2
BRANCH   1  17
ATOM     17  C   UNL     1      34.301 -13.969 -23.070  0.00  0.00    -0.019 C 
BRANCH  17  18
ATOM     18  C   UNL     1      34.365 -15.462 -23.391  0.00  0.00    +0.045 C 
BRANCH  18  19
ATOM     19  C   UNL     1      35.332 -16.194 -22.470  0.00  0.00    +0.205 C 
BRANCH  19  20
ATOM     20  O   UNL     1      35.425 -17.563 -22.857  0.00  0.00    -0.475 OA
BRANCH  20  26
ATOM     21  O   UNL     1      32.670 -22.416 -18.462  0.00  0.00    -0.275 OA
ATOM     22  N   UNL     1      33.565 -20.812 -19.841  0.00  0.00    -0.284 N 
ATOM     23  C   UNL     1      35.954 -20.357 -19.820  0.00  0.00    -0.008 C 
ATOM     24  C   UNL     1      36.104 -21.291 -18.654  0.00  0.00    +0.037 C 
ATOM     25  C   UNL     1      34.678 -20.119 -20.349  0.00  0.00    +0.049 C 
ATOM     26  C   UNL     1      35.596 -18.478 -21.863  0.00  0.00    +0.140 C 
ATOM     27  C   UNL     1      35.057 -22.392 -18.703  0.00  0.00    +0.090 C 
ATOM     28  C   UNL     1      34.496 -19.174 -21.362  0.00  0.00    +0.051 C 
ATOM     29  C   UNL     1      37.048 -19.643 -20.320  0.00  0.00    +0.000 C 
ATOM     30  C   UNL     1      36.869 -18.713 -21.346  0.00  0.00    +0.037 C 
ATOM     31  C   UNL     1      33.656 -21.866 -18.953  0.00  0.00    +0.226 C 
ATOM     32  H   UNL     1      32.669 -20.529 -20.136  0.00  0.00    +0.155 HD
ENDBRANCH  20  26
ENDBRANCH  19  20
ENDBRANCH  18  19
ENDBRANCH  17  18
ENDBRANCH   1  17
TORSDOF 7
ENDMDL
