MODEL 1
REMARK VINA RESULT:     -11.6      0.000      0.000
REMARK  Name = 9911830
REMARK  5 active torsions:
REMARK  status: ('A' for Active; 'I' for Inactive)
REMARK    1  A    between atoms: C_2  and  O_20
REMARK    2  A    between atoms: C_3  and  N_10
REMARK    3  A    between atoms: O_20  and  C_24
REMARK    4  A    between atoms: C_26  and  O_31
REMARK    5  A    between atoms: C_28  and  O_33
REMARK                            x       y       z     vdW  Elec       q    Type
REMARK                         _______ _______ _______ _____ _____    ______ ____
ROOT
ATOM      1 CL   UNL     1      37.583 -19.018 -20.926  0.00  0.00    -0.081 Cl
ATOM      2  C   UNL     1      35.196 -21.627 -19.109  0.00  0.00    +0.146 C 
ATOM      3  C   UNL     1      34.890 -19.441 -20.778  0.00  0.00    +0.062 C 
ATOM      4  C   UNL     1      36.320 -20.950 -19.547  0.00  0.00    +0.050 C 
ATOM      5  C   UNL     1      33.922 -21.237 -19.486  0.00  0.00    +0.039 C 
ATOM      6  C   UNL     1      36.166 -19.849 -20.389  0.00  0.00    +0.074 C 
ATOM      7  C   UNL     1      33.769 -20.136 -20.327  0.00  0.00    +0.019 C 
ENDROOT
BRANCH   3  10
ATOM      8  O   UNL     1      34.443 -12.724 -22.034  0.00  0.00    -0.357 OA
ATOM      9  O   UNL     1      34.902 -16.517 -20.167  0.00  0.00    -0.252 OA
ATOM     10  N   UNL     1      34.702 -18.342 -21.622  0.00  0.00    -0.267 N 
ATOM     11  N   UNL     1      34.484 -16.198 -22.445  0.00  0.00    -0.251 N 
ATOM     12  N   UNL     1      34.580 -14.003 -21.509  0.00  0.00    -0.062 NA
ATOM     13  C   UNL     1      34.716 -16.966 -21.293  0.00  0.00    +0.309 C 
ATOM     14  C   UNL     1      34.419 -14.788 -22.554  0.00  0.00    +0.177 C 
ATOM     15  C   UNL     1      34.182 -14.126 -23.747  0.00  0.00    +0.073 C 
ATOM     16  C   UNL     1      34.207 -12.810 -23.368  0.00  0.00    +0.156 C 
ATOM     17  C   UNL     1      34.035 -11.541 -24.087  0.00  0.00    +0.075 C 
ATOM     18  H   UNL     1      34.540 -18.553 -22.570  0.00  0.00    +0.156 HD
ATOM     19  H   UNL     1      34.351 -16.702 -23.281  0.00  0.00    +0.158 HD
ENDBRANCH   3  10
BRANCH   2  20
ATOM     20  O   UNL     1      35.346 -22.719 -18.273  0.00  0.00    -0.453 OA
BRANCH  20  24
ATOM     21  N   UNL     1      32.586 -23.120 -15.204  0.00  0.00    -0.244 NA
ATOM     22  C   UNL     1      34.884 -23.058 -15.927  0.00  0.00    +0.055 C 
ATOM     23  C   UNL     1      33.902 -23.188 -14.924  0.00  0.00    +0.087 C 
ATOM     24  C   UNL     1      34.456 -22.854 -17.246  0.00  0.00    +0.148 C 
ATOM     25  C   UNL     1      36.249 -23.135 -15.599  0.00  0.00    +0.045 C 
ATOM     26  C   UNL     1      36.645 -23.338 -14.281  0.00  0.00    +0.173 C 
ATOM     27  C   UNL     1      34.327 -23.391 -13.614  0.00  0.00    +0.059 C 
ATOM     28  C   UNL     1      35.683 -23.466 -13.288  0.00  0.00    +0.174 C 
ATOM     29  C   UNL     1      33.102 -22.784 -17.538  0.00  0.00    +0.058 C 
ATOM     30  C   UNL     1      32.216 -22.922 -16.490  0.00  0.00    +0.102 C 
BRANCH  26  31
ATOM     31  O   UNL     1      37.972 -23.409 -13.979  0.00  0.00    -0.468 OA
ATOM     32  C   UNL     1      38.641 -24.633 -14.277  0.00  0.00    +0.253 C 
ENDBRANCH  26  31
BRANCH  28  33
ATOM     33  O   UNL     1      36.049 -23.666 -11.990  0.00  0.00    -0.468 OA
ATOM     34  C   UNL     1      36.093 -25.014 -11.528  0.00  0.00    +0.253 C 
ENDBRANCH  28  33
ENDBRANCH  20  24
ENDBRANCH   2  20
TORSDOF 5
ENDMDL
MODEL 2
REMARK VINA RESULT:     -11.5      2.540      4.500
REMARK  Name = 9911830
REMARK  5 active torsions:
REMARK  status: ('A' for Active; 'I' for Inactive)
REMARK    1  A    between atoms: C_2  and  O_20
REMARK    2  A    between atoms: C_3  and  N_10
REMARK    3  A    between atoms: O_20  and  C_24
REMARK    4  A    between atoms: C_26  and  O_31
REMARK    5  A    between atoms: C_28  and  O_33
REMARK                            x       y       z     vdW  Elec       q    Type
REMARK                         _______ _______ _______ _____ _____    ______ ____
ROOT
ATOM      1 CL   UNL     1      34.736 -16.044 -24.953  0.00  0.00    -0.081 Cl
ATOM      2  C   UNL     1      35.379 -17.886 -21.488  0.00  0.00    +0.146 C 
ATOM      3  C   UNL     1      34.795 -15.313 -22.324  0.00  0.00    +0.062 C 
ATOM      4  C   UNL     1      35.224 -17.634 -22.840  0.00  0.00    +0.050 C 
ATOM      5  C   UNL     1      35.250 -16.882 -20.544  0.00  0.00    +0.039 C 
ATOM      6  C   UNL     1      34.928 -16.338 -23.261  0.00  0.00    +0.074 C 
ATOM      7  C   UNL     1      34.954 -15.586 -20.966  0.00  0.00    +0.019 C 
ENDROOT
BRANCH   3  10
ATOM      8  O   UNL     1      30.780  -9.768 -22.497  0.00  0.00    -0.357 OA
ATOM      9  O   UNL     1      32.396 -13.630 -21.748  0.00  0.00    -0.252 OA
ATOM     10  N   UNL     1      34.497 -14.003 -22.713  0.00  0.00    -0.267 N 
ATOM     11  N   UNL     1      33.453 -11.967 -23.006  0.00  0.00    -0.251 N 
ATOM     12  N   UNL     1      31.384 -11.004 -22.303  0.00  0.00    -0.062 NA
ATOM     13  C   UNL     1      33.345 -13.237 -22.417  0.00  0.00    +0.309 C 
ATOM     14  C   UNL     1      32.524 -10.901 -22.955  0.00  0.00    +0.177 C 
ATOM     15  C   UNL     1      32.730  -9.680 -23.575  0.00  0.00    +0.073 C 
ATOM     16  C   UNL     1      31.592  -8.988 -23.257  0.00  0.00    +0.156 C 
ATOM     17  C   UNL     1      31.104  -7.637 -23.561  0.00  0.00    +0.075 C 
ATOM     18  H   UNL     1      35.179 -13.555 -23.263  0.00  0.00    +0.156 HD
ATOM     19  H   UNL     1      34.278 -11.796 -23.517  0.00  0.00    +0.158 HD
ENDBRANCH   3  10
BRANCH   2  20
ATOM     20  O   UNL     1      35.674 -19.171 -21.069  0.00  0.00    -0.453 OA
BRANCH  20  24
ATOM     21  N   UNL     1      32.495 -21.454 -19.698  0.00  0.00    -0.244 NA
ATOM     22  C   UNL     1      34.816 -20.827 -19.535  0.00  0.00    +0.055 C 
ATOM     23  C   UNL     1      33.701 -21.578 -19.111  0.00  0.00    +0.087 C 
ATOM     24  C   UNL     1      34.642 -19.933 -20.601  0.00  0.00    +0.148 C 
ATOM     25  C   UNL     1      36.060 -20.982 -18.899  0.00  0.00    +0.045 C 
ATOM     26  C   UNL     1      36.204 -21.876 -17.843  0.00  0.00    +0.173 C 
ATOM     27  C   UNL     1      33.873 -22.466 -18.052  0.00  0.00    +0.059 C 
ATOM     28  C   UNL     1      35.110 -22.619 -17.420  0.00  0.00    +0.174 C 
ATOM     29  C   UNL     1      33.402 -19.803 -21.208  0.00  0.00    +0.058 C 
ATOM     30  C   UNL     1      32.370 -20.580 -20.723  0.00  0.00    +0.102 C 
BRANCH  26  31
ATOM     31  O   UNL     1      37.416 -22.014 -17.237  0.00  0.00    -0.468 OA
ATOM     32  C   UNL     1      37.606 -21.326 -16.002  0.00  0.00    +0.253 C 
ENDBRANCH  26  31
BRANCH  28  33
ATOM     33  O   UNL     1      35.228 -23.501 -16.387  0.00  0.00    -0.468 OA
ATOM     34  C   UNL     1      34.455 -23.239 -15.218  0.00  0.00    +0.253 C 
ENDBRANCH  28  33
ENDBRANCH  20  24
ENDBRANCH   2  20
TORSDOF 5
ENDMDL
MODEL 3
REMARK VINA RESULT:     -11.1      3.556     10.466
REMARK  Name = 9911830
REMARK  5 active torsions:
REMARK  status: ('A' for Active; 'I' for Inactive)
REMARK    1  A    between atoms: C_2  and  O_20
REMARK    2  A    between atoms: C_3  and  N_10
REMARK    3  A    between atoms: O_20  and  C_24
REMARK    4  A    between atoms: C_26  and  O_31
REMARK    5  A    between atoms: C_28  and  O_33
REMARK                            x       y       z     vdW  Elec       q    Type
REMARK                         _______ _______ _______ _____ _____    ______ ____
ROOT
ATOM      1 CL   UNL     1      36.854 -22.052 -17.559  0.00  0.00    -0.081 Cl
ATOM      2  C   UNL     1      35.575 -19.797 -20.573  0.00  0.00    +0.146 C 
ATOM      3  C   UNL     1      34.449 -21.541 -18.743  0.00  0.00    +0.062 C 
ATOM      4  C   UNL     1      36.388 -20.414 -19.640  0.00  0.00    +0.050 C 
ATOM      5  C   UNL     1      34.211 -20.031 -20.613  0.00  0.00    +0.039 C 
ATOM      6  C   UNL     1      35.822 -21.292 -18.717  0.00  0.00    +0.074 C 
ATOM      7  C   UNL     1      33.644 -20.909 -19.690  0.00  0.00    +0.019 C 
ENDROOT
BRANCH   3  10
ATOM      8  O   UNL     1      29.107 -23.882 -15.154  0.00  0.00    -0.357 OA
ATOM      9  O   UNL     1      31.629 -21.670 -17.768  0.00  0.00    -0.252 OA
ATOM     10  N   UNL     1      33.849 -22.414 -17.830  0.00  0.00    -0.267 N 
ATOM     11  N   UNL     1      32.324 -23.486 -16.471  0.00  0.00    -0.251 N 
ATOM     12  N   UNL     1      30.002 -23.217 -15.983  0.00  0.00    -0.062 NA
ATOM     13  C   UNL     1      32.503 -22.444 -17.394  0.00  0.00    +0.309 C 
ATOM     14  C   UNL     1      31.137 -23.859 -15.796  0.00  0.00    +0.177 C 
ATOM     15  C   UNL     1      31.068 -24.911 -14.898  0.00  0.00    +0.073 C 
ATOM     16  C   UNL     1      29.754 -24.889 -14.513  0.00  0.00    +0.156 C 
ATOM     17  C   UNL     1      28.951 -25.701 -13.590  0.00  0.00    +0.075 C 
ATOM     18  H   UNL     1      34.439 -23.099 -17.442  0.00  0.00    +0.156 HD
ATOM     19  H   UNL     1      33.123 -24.025 -16.267  0.00  0.00    +0.158 HD
ENDBRANCH   3  10
BRANCH   2  20
ATOM     20  O   UNL     1      36.136 -18.927 -21.490  0.00  0.00    -0.453 OA
BRANCH  20  24
ATOM     21  N   UNL     1      33.976 -18.188 -24.952  0.00  0.00    -0.244 NA
ATOM     22  C   UNL     1      34.993 -17.361 -22.929  0.00  0.00    +0.055 C 
ATOM     23  C   UNL     1      34.262 -17.168 -24.120  0.00  0.00    +0.087 C 
ATOM     24  C   UNL     1      35.424 -18.659 -22.623  0.00  0.00    +0.148 C 
ATOM     25  C   UNL     1      35.273 -16.273 -22.084  0.00  0.00    +0.045 C 
ATOM     26  C   UNL     1      34.833 -14.995 -22.413  0.00  0.00    +0.173 C 
ATOM     27  C   UNL     1      33.834 -15.878 -24.424  0.00  0.00    +0.059 C 
ATOM     28  C   UNL     1      34.113 -14.798 -23.584  0.00  0.00    +0.174 C 
ATOM     29  C   UNL     1      35.130 -19.712 -23.478  0.00  0.00    +0.058 C 
ATOM     30  C   UNL     1      34.410 -19.425 -24.619  0.00  0.00    +0.102 C 
BRANCH  26  31
ATOM     31  O   UNL     1      35.114 -13.952 -21.583  0.00  0.00    -0.468 OA
ATOM     32  C   UNL     1      34.502 -13.964 -20.295  0.00  0.00    +0.253 C 
ENDBRANCH  26  31
BRANCH  28  33
ATOM     33  O   UNL     1      33.673 -13.554 -23.925  0.00  0.00    -0.468 OA
ATOM     34  C   UNL     1      32.468 -13.100 -23.311  0.00  0.00    +0.253 C 
ENDBRANCH  28  33
ENDBRANCH  20  24
ENDBRANCH   2  20
TORSDOF 5
ENDMDL
MODEL 4
REMARK VINA RESULT:     -11.0      1.827      2.905
REMARK  Name = 9911830
REMARK  5 active torsions:
REMARK  status: ('A' for Active; 'I' for Inactive)
REMARK    1  A    between atoms: C_2  and  O_20
REMARK    2  A    between atoms: C_3  and  N_10
REMARK    3  A    between atoms: O_20  and  C_24
REMARK    4  A    between atoms: C_26  and  O_31
REMARK    5  A    between atoms: C_28  and  O_33
REMARK                            x       y       z     vdW  Elec       q    Type
REMARK                         _______ _______ _______ _____ _____    ______ ____
ROOT
ATOM      1 CL   UNL     1      37.625 -18.861 -21.136  0.00  0.00    -0.081 Cl
ATOM      2  C   UNL     1      35.196 -21.528 -19.464  0.00  0.00    +0.146 C 
ATOM      3  C   UNL     1      34.927 -19.252 -21.016  0.00  0.00    +0.062 C 
ATOM      4  C   UNL     1      36.331 -20.845 -19.864  0.00  0.00    +0.050 C 
ATOM      5  C   UNL     1      33.929 -21.100 -19.823  0.00  0.00    +0.039 C 
ATOM      6  C   UNL     1      36.196 -19.699 -20.647  0.00  0.00    +0.074 C 
ATOM      7  C   UNL     1      33.794 -19.954 -20.605  0.00  0.00    +0.019 C 
ENDROOT
BRANCH   3  10
ATOM      8  O   UNL     1      34.345 -12.485 -21.884  0.00  0.00    -0.357 OA
ATOM      9  O   UNL     1      34.807 -16.374 -20.227  0.00  0.00    -0.252 OA
ATOM     10  N   UNL     1      34.757 -18.108 -21.802  0.00  0.00    -0.267 N 
ATOM     11  N   UNL     1      34.522 -15.923 -22.504  0.00  0.00    -0.251 N 
ATOM     12  N   UNL     1      34.489 -13.790 -21.431  0.00  0.00    -0.062 NA
ATOM     13  C   UNL     1      34.706 -16.756 -21.389  0.00  0.00    +0.309 C 
ATOM     14  C   UNL     1      34.419 -14.512 -22.530  0.00  0.00    +0.177 C 
ATOM     15  C   UNL     1      34.236 -13.782 -23.693  0.00  0.00    +0.073 C 
ATOM     16  C   UNL     1      34.195 -12.493 -23.234  0.00  0.00    +0.156 C 
ATOM     17  C   UNL     1      34.028 -11.186 -23.883  0.00  0.00    +0.075 C 
ATOM     18  H   UNL     1      34.661 -18.264 -22.769  0.00  0.00    +0.156 HD
ATOM     19  H   UNL     1      34.458 -16.377 -23.376  0.00  0.00    +0.158 HD
ENDBRANCH   3  10
BRANCH   2  20
ATOM     20  O   UNL     1      35.329 -22.664 -18.687  0.00  0.00    -0.453 OA
BRANCH  20  24
ATOM     21  N   UNL     1      36.215 -22.118 -14.673  0.00  0.00    -0.244 NA
ATOM     22  C   UNL     1      34.641 -22.774 -16.374  0.00  0.00    +0.055 C 
ATOM     23  C   UNL     1      34.997 -22.570 -15.026  0.00  0.00    +0.087 C 
ATOM     24  C   UNL     1      35.597 -22.492 -17.359  0.00  0.00    +0.148 C 
ATOM     25  C   UNL     1      33.359 -23.247 -16.707  0.00  0.00    +0.045 C 
ATOM     26  C   UNL     1      32.429 -23.519 -15.709  0.00  0.00    +0.173 C 
ATOM     27  C   UNL     1      34.046 -22.850 -14.047  0.00  0.00    +0.059 C 
ATOM     28  C   UNL     1      32.773 -23.320 -14.378  0.00  0.00    +0.174 C 
ATOM     29  C   UNL     1      36.853 -22.026 -16.999  0.00  0.00    +0.058 C 
ATOM     30  C   UNL     1      37.110 -21.857 -15.653  0.00  0.00    +0.102 C 
BRANCH  26  31
ATOM     31  O   UNL     1      31.192 -23.977 -16.047  0.00  0.00    -0.468 OA
ATOM     32  C   UNL     1      30.127 -23.028 -16.052  0.00  0.00    +0.253 C 
ENDBRANCH  26  31
BRANCH  28  33
ATOM     33  O   UNL     1      31.878 -23.581 -13.384  0.00  0.00    -0.468 OA
ATOM     34  C   UNL     1      31.672 -24.949 -13.038  0.00  0.00    +0.253 C 
ENDBRANCH  28  33
ENDBRANCH  20  24
ENDBRANCH   2  20
TORSDOF 5
ENDMDL
MODEL 5
REMARK VINA RESULT:     -10.6      1.509      2.425
REMARK  Name = 9911830
REMARK  5 active torsions:
REMARK  status: ('A' for Active; 'I' for Inactive)
REMARK    1  A    between atoms: C_2  and  O_20
REMARK    2  A    between atoms: C_3  and  N_10
REMARK    3  A    between atoms: O_20  and  C_24
REMARK    4  A    between atoms: C_26  and  O_31
REMARK    5  A    between atoms: C_28  and  O_33
REMARK                            x       y       z     vdW  Elec       q    Type
REMARK                         _______ _______ _______ _____ _____    ______ ____
ROOT
ATOM      1 CL   UNL     1      37.491 -19.094 -20.847  0.00  0.00    -0.081 Cl
ATOM      2  C   UNL     1      34.998 -21.591 -19.014  0.00  0.00    +0.146 C 
ATOM      3  C   UNL     1      34.785 -19.421 -20.718  0.00  0.00    +0.062 C 
ATOM      4  C   UNL     1      36.149 -20.960 -19.451  0.00  0.00    +0.050 C 
ATOM      5  C   UNL     1      33.742 -21.162 -19.409  0.00  0.00    +0.039 C 
ATOM      6  C   UNL     1      36.042 -19.867 -20.311  0.00  0.00    +0.074 C 
ATOM      7  C   UNL     1      33.635 -20.069 -20.268  0.00  0.00    +0.019 C 
ENDROOT
BRANCH   3  10
ATOM      8  O   UNL     1      34.401 -12.715 -22.052  0.00  0.00    -0.357 OA
ATOM      9  O   UNL     1      34.759 -16.492 -20.131  0.00  0.00    -0.252 OA
ATOM     10  N   UNL     1      34.643 -18.329 -21.581  0.00  0.00    -0.267 N 
ATOM     11  N   UNL     1      34.469 -16.192 -22.432  0.00  0.00    -0.251 N 
ATOM     12  N   UNL     1      34.509 -13.989 -21.510  0.00  0.00    -0.062 NA
ATOM     13  C   UNL     1      34.637 -16.951 -21.263  0.00  0.00    +0.309 C 
ATOM     14  C   UNL     1      34.408 -14.784 -22.556  0.00  0.00    +0.177 C 
ATOM     15  C   UNL     1      34.238 -14.131 -23.766  0.00  0.00    +0.073 C 
ATOM     16  C   UNL     1      34.239 -12.812 -23.397  0.00  0.00    +0.156 C 
ATOM     17  C   UNL     1      34.107 -11.550 -24.134  0.00  0.00    +0.075 C 
ATOM     18  H   UNL     1      34.534 -18.548 -22.534  0.00  0.00    +0.156 HD
ATOM     19  H   UNL     1      34.384 -16.703 -23.270  0.00  0.00    +0.158 HD
ENDBRANCH   3  10
BRANCH   2  20
ATOM     20  O   UNL     1      35.102 -22.674 -18.160  0.00  0.00    -0.453 OA
BRANCH  20  24
ATOM     21  N   UNL     1      37.474 -22.176 -14.795  0.00  0.00    -0.244 NA
ATOM     22  C   UNL     1      35.436 -22.992 -15.790  0.00  0.00    +0.055 C 
ATOM     23  C   UNL     1      36.283 -22.795 -14.680  0.00  0.00    +0.087 C 
ATOM     24  C   UNL     1      35.865 -22.521 -17.039  0.00  0.00    +0.148 C 
ATOM     25  C   UNL     1      34.200 -23.642 -15.633  0.00  0.00    +0.045 C 
ATOM     26  C   UNL     1      33.798 -24.099 -14.382  0.00  0.00    +0.173 C 
ATOM     27  C   UNL     1      35.857 -23.262 -13.439  0.00  0.00    +0.059 C 
ATOM     28  C   UNL     1      34.628 -23.908 -13.284  0.00  0.00    +0.174 C 
ATOM     29  C   UNL     1      37.091 -21.883 -17.160  0.00  0.00    +0.058 C 
ATOM     30  C   UNL     1      37.851 -21.737 -16.018  0.00  0.00    +0.102 C 
BRANCH  26  31
ATOM     31  O   UNL     1      32.598 -24.727 -14.247  0.00  0.00    -0.468 OA
ATOM     32  C   UNL     1      31.454 -24.064 -14.784  0.00  0.00    +0.253 C 
ENDBRANCH  26  31
BRANCH  28  33
ATOM     33  O   UNL     1      34.255 -24.348 -12.049  0.00  0.00    -0.468 OA
ATOM     34  C   UNL     1      35.299 -24.674 -11.134  0.00  0.00    +0.253 C 
ENDBRANCH  28  33
ENDBRANCH  20  24
ENDBRANCH   2  20
TORSDOF 5
ENDMDL
MODEL 6
REMARK VINA RESULT:     -10.4      3.102      6.176
REMARK  Name = 9911830
REMARK  5 active torsions:
REMARK  status: ('A' for Active; 'I' for Inactive)
REMARK    1  A    between atoms: C_2  and  O_20
REMARK    2  A    between atoms: C_3  and  N_10
REMARK    3  A    between atoms: O_20  and  C_24
REMARK    4  A    between atoms: C_26  and  O_31
REMARK    5  A    between atoms: C_28  and  O_33
REMARK                            x       y       z     vdW  Elec       q    Type
REMARK                         _______ _______ _______ _____ _____    ______ ____
ROOT
ATOM      1 CL   UNL     1      34.569 -13.867 -20.559  0.00  0.00    -0.081 Cl
ATOM      2  C   UNL     1      34.554 -17.150 -22.802  0.00  0.00    +0.146 C 
ATOM      3  C   UNL     1      34.257 -14.429 -23.212  0.00  0.00    +0.062 C 
ATOM      4  C   UNL     1      34.625 -16.293 -21.719  0.00  0.00    +0.050 C 
ATOM      5  C   UNL     1      34.338 -16.679 -24.086  0.00  0.00    +0.039 C 
ATOM      6  C   UNL     1      34.476 -14.921 -21.925  0.00  0.00    +0.074 C 
ATOM      7  C   UNL     1      34.189 -15.308 -24.292  0.00  0.00    +0.019 C 
ENDROOT
BRANCH   3  10
ATOM      8  O   UNL     1      30.784  -8.535 -22.911  0.00  0.00    -0.357 OA
ATOM      9  O   UNL     1      31.990 -12.598 -22.557  0.00  0.00    -0.252 OA
ATOM     10  N   UNL     1      34.105 -13.060 -23.453  0.00  0.00    -0.267 N 
ATOM     11  N   UNL     1      33.272 -10.911 -23.547  0.00  0.00    -0.251 N 
ATOM     12  N   UNL     1      31.259  -9.838 -22.838  0.00  0.00    -0.062 NA
ATOM     13  C   UNL     1      33.012 -12.224 -23.125  0.00  0.00    +0.309 C 
ATOM     14  C   UNL     1      32.442  -9.772 -23.414  0.00  0.00    +0.177 C 
ATOM     15  C   UNL     1      32.797  -8.513 -23.869  0.00  0.00    +0.073 C 
ATOM     16  C   UNL     1      31.709  -7.754 -23.527  0.00  0.00    +0.156 C 
ATOM     17  C   UNL     1      31.367  -6.336 -23.689  0.00  0.00    +0.075 C 
ATOM     18  H   UNL     1      34.858 -12.620 -23.908  0.00  0.00    +0.156 HD
ATOM     19  H   UNL     1      34.139 -10.764 -23.991  0.00  0.00    +0.158 HD
ENDBRANCH   3  10
BRANCH   2  20
ATOM     20  O   UNL     1      34.700 -18.510 -22.600  0.00  0.00    -0.453 OA
BRANCH  20  24
ATOM     21  N   UNL     1      37.791 -19.709 -20.108  0.00  0.00    -0.244 NA
ATOM     22  C   UNL     1      35.472 -19.854 -20.747  0.00  0.00    +0.055 C 
ATOM     23  C   UNL     1      36.560 -20.225 -19.930  0.00  0.00    +0.087 C 
ATOM     24  C   UNL     1      35.702 -18.920 -21.767  0.00  0.00    +0.148 C 
ATOM     25  C   UNL     1      34.200 -20.412 -20.533  0.00  0.00    +0.045 C 
ATOM     26  C   UNL     1      34.000 -21.338 -19.513  0.00  0.00    +0.173 C 
ATOM     27  C   UNL     1      36.332 -21.152 -18.917  0.00  0.00    +0.059 C 
ATOM     28  C   UNL     1      35.067 -21.708 -18.705  0.00  0.00    +0.174 C 
ATOM     29  C   UNL     1      36.969 -18.386 -21.952  0.00  0.00    +0.058 C 
ATOM     30  C   UNL     1      37.970 -18.810 -21.103  0.00  0.00    +0.102 C 
BRANCH  26  31
ATOM     31  O   UNL     1      32.762 -21.870 -19.320  0.00  0.00    -0.468 OA
ATOM     32  C   UNL     1      32.285 -21.934 -17.977  0.00  0.00    +0.253 C 
ENDBRANCH  26  31
BRANCH  28  33
ATOM     33  O   UNL     1      34.895 -22.613 -17.700  0.00  0.00    -0.468 OA
ATOM     34  C   UNL     1      35.708 -22.456 -16.539  0.00  0.00    +0.253 C 
ENDBRANCH  28  33
ENDBRANCH  20  24
ENDBRANCH   2  20
TORSDOF 5
ENDMDL
MODEL 7
REMARK VINA RESULT:     -10.3      7.846     15.915
REMARK  Name = 9911830
REMARK  5 active torsions:
REMARK  status: ('A' for Active; 'I' for Inactive)
REMARK    1  A    between atoms: C_2  and  O_20
REMARK    2  A    between atoms: C_3  and  N_10
REMARK    3  A    between atoms: O_20  and  C_24
REMARK    4  A    between atoms: C_26  and  O_31
REMARK    5  A    between atoms: C_28  and  O_33
REMARK                            x       y       z     vdW  Elec       q    Type
REMARK                         _______ _______ _______ _____ _____    ______ ____
ROOT
ATOM      1 CL   UNL     1      31.129 -11.189 -22.126  0.00  0.00    -0.081 Cl
ATOM      2  C   UNL     1      33.554  -8.055 -22.461  0.00  0.00    +0.146 C 
ATOM      3  C   UNL     1      33.505 -10.671 -23.365  0.00  0.00    +0.062 C 
ATOM      4  C   UNL     1      32.491  -8.870 -22.114  0.00  0.00    +0.050 C 
ATOM      5  C   UNL     1      34.593  -8.518 -23.250  0.00  0.00    +0.039 C 
ATOM      6  C   UNL     1      32.466 -10.188 -22.570  0.00  0.00    +0.074 C 
ATOM      7  C   UNL     1      34.568  -9.835 -23.706  0.00  0.00    +0.019 C 
ENDROOT
BRANCH   3  10
ATOM      8  O   UNL     1      34.993 -17.335 -22.846  0.00  0.00    -0.357 OA
ATOM      9  O   UNL     1      34.588 -13.163 -22.126  0.00  0.00    -0.252 OA
ATOM     10  N   UNL     1      33.509 -11.986 -23.840  0.00  0.00    -0.267 N 
ATOM     11  N   UNL     1      33.825 -14.262 -24.043  0.00  0.00    -0.251 N 
ATOM     12  N   UNL     1      34.816 -15.966 -22.694  0.00  0.00    -0.062 NA
ATOM     13  C   UNL     1      34.033 -13.145 -23.220  0.00  0.00    +0.309 C 
ATOM     14  C   UNL     1      34.195 -15.606 -23.799  0.00  0.00    +0.177 C 
ATOM     15  C   UNL     1      33.941 -16.641 -24.684  0.00  0.00    +0.073 C 
ATOM     16  C   UNL     1      34.467 -17.726 -24.035  0.00  0.00    +0.156 C 
ATOM     17  C   UNL     1      34.567 -19.154 -24.359  0.00  0.00    +0.075 C 
ATOM     18  H   UNL     1      33.091 -12.125 -24.720  0.00  0.00    +0.156 HD
ATOM     19  H   UNL     1      33.364 -14.090 -24.897  0.00  0.00    +0.158 HD
ENDBRANCH   3  10
BRANCH   2  20
ATOM     20  O   UNL     1      33.581  -6.749 -22.009  0.00  0.00    -0.453 OA
BRANCH  20  24
ATOM     21  N   UNL     1      30.158  -4.465 -22.526  0.00  0.00    -0.244 NA
ATOM     22  C   UNL     1      32.229  -5.321 -23.411  0.00  0.00    +0.055 C 
ATOM     23  C   UNL     1      31.049  -4.559 -23.531  0.00  0.00    +0.087 C 
ATOM     24  C   UNL     1      32.462  -5.991 -22.202  0.00  0.00    +0.148 C 
ATOM     25  C   UNL     1      33.138  -5.397 -24.481  0.00  0.00    +0.045 C 
ATOM     26  C   UNL     1      32.882  -4.721 -25.671  0.00  0.00    +0.173 C 
ATOM     27  C   UNL     1      30.818  -3.893 -24.732  0.00  0.00    +0.059 C 
ATOM     28  C   UNL     1      31.721  -3.969 -25.796  0.00  0.00    +0.174 C 
ATOM     29  C   UNL     1      31.546  -5.896 -21.164  0.00  0.00    +0.058 C 
ATOM     30  C   UNL     1      30.420  -5.127 -21.376  0.00  0.00    +0.102 C 
BRANCH  26  31
ATOM     31  O   UNL     1      33.772  -4.805 -26.699  0.00  0.00    -0.468 OA
ATOM     32  C   UNL     1      33.632  -5.911 -27.589  0.00  0.00    +0.253 C 
ENDBRANCH  26  31
BRANCH  28  33
ATOM     33  O   UNL     1      31.450  -3.300 -26.952  0.00  0.00    -0.468 OA
ATOM     34  C   UNL     1      31.051  -1.936 -26.833  0.00  0.00    +0.253 C 
ENDBRANCH  28  33
ENDBRANCH  20  24
ENDBRANCH   2  20
TORSDOF 5
ENDMDL
MODEL 8
REMARK VINA RESULT:     -10.2      6.835     10.636
REMARK  Name = 9911830
REMARK  5 active torsions:
REMARK  status: ('A' for Active; 'I' for Inactive)
REMARK    1  A    between atoms: C_2  and  O_20
REMARK    2  A    between atoms: C_3  and  N_10
REMARK    3  A    between atoms: O_20  and  C_24
REMARK    4  A    between atoms: C_26  and  O_31
REMARK    5  A    between atoms: C_28  and  O_33
REMARK                            x       y       z     vdW  Elec       q    Type
REMARK                         _______ _______ _______ _____ _____    ______ ____
ROOT
ATOM      1 CL   UNL     1      30.789 -11.069 -20.360  0.00  0.00    -0.081 Cl
ATOM      2  C   UNL     1      33.803 -12.354 -22.614  0.00  0.00    +0.146 C 
ATOM      3  C   UNL     1      32.330 -10.024 -22.356  0.00  0.00    +0.062 C 
ATOM      4  C   UNL     1      32.790 -12.295 -21.673  0.00  0.00    +0.050 C 
ATOM      5  C   UNL     1      34.097 -11.274 -23.429  0.00  0.00    +0.039 C 
ATOM      6  C   UNL     1      32.048 -11.122 -21.542  0.00  0.00    +0.074 C 
ATOM      7  C   UNL     1      33.355 -10.100 -23.298  0.00  0.00    +0.019 C 
ENDROOT
BRANCH   3  10
ATOM      8  O   UNL     1      31.841  -3.206 -21.951  0.00  0.00    -0.357 OA
ATOM      9  O   UNL     1      33.283  -7.196 -22.252  0.00  0.00    -0.252 OA
ATOM     10  N   UNL     1      31.607  -8.832 -22.249  0.00  0.00    -0.267 N 
ATOM     11  N   UNL     1      31.026  -6.605 -22.093  0.00  0.00    -0.251 N 
ATOM     12  N   UNL     1      32.222  -4.538 -22.047  0.00  0.00    -0.062 NA
ATOM     13  C   UNL     1      32.097  -7.506 -22.204  0.00  0.00    +0.309 C 
ATOM     14  C   UNL     1      31.079  -5.193 -22.019  0.00  0.00    +0.177 C 
ATOM     15  C   UNL     1      29.954  -4.392 -21.910  0.00  0.00    +0.073 C 
ATOM     16  C   UNL     1      30.487  -3.131 -21.871  0.00  0.00    +0.156 C 
ATOM     17  C   UNL     1      29.910  -1.786 -21.763  0.00  0.00    +0.075 C 
ATOM     18  H   UNL     1      30.629  -8.929 -22.200  0.00  0.00    +0.156 HD
ATOM     19  H   UNL     1      30.126  -7.005 -22.065  0.00  0.00    +0.158 HD
ENDBRANCH   3  10
BRANCH   2  20
ATOM     20  O   UNL     1      34.538 -13.517 -22.746  0.00  0.00    -0.453 OA
BRANCH  20  24
ATOM     21  N   UNL     1      33.233 -16.221 -25.607  0.00  0.00    -0.244 NA
ATOM     22  C   UNL     1      34.387 -15.795 -23.535  0.00  0.00    +0.055 C 
ATOM     23  C   UNL     1      33.919 -16.668 -24.539  0.00  0.00    +0.087 C 
ATOM     24  C   UNL     1      34.119 -14.426 -23.675  0.00  0.00    +0.148 C 
ATOM     25  C   UNL     1      35.101 -16.297 -22.433  0.00  0.00    +0.045 C 
ATOM     26  C   UNL     1      35.353 -17.660 -22.320  0.00  0.00    +0.173 C 
ATOM     27  C   UNL     1      34.186 -18.028 -24.400  0.00  0.00    +0.059 C 
ATOM     28  C   UNL     1      34.895 -18.526 -23.305  0.00  0.00    +0.174 C 
ATOM     29  C   UNL     1      33.412 -13.962 -24.774  0.00  0.00    +0.058 C 
ATOM     30  C   UNL     1      32.995 -14.893 -25.704  0.00  0.00    +0.102 C 
BRANCH  26  31
ATOM     31  O   UNL     1      36.046 -18.130 -21.245  0.00  0.00    -0.468 OA
ATOM     32  C   UNL     1      37.385 -18.565 -21.476  0.00  0.00    +0.253 C 
ENDBRANCH  26  31
BRANCH  28  33
ATOM     33  O   UNL     1      35.131 -19.866 -23.214  0.00  0.00    -0.468 OA
ATOM     34  C   UNL     1      35.009 -20.628 -24.412  0.00  0.00    +0.253 C 
ENDBRANCH  28  33
ENDBRANCH  20  24
ENDBRANCH   2  20
TORSDOF 5
ENDMDL
MODEL 9
REMARK VINA RESULT:     -10.1      1.759      2.185
REMARK  Name = 9911830
REMARK  5 active torsions:
REMARK  status: ('A' for Active; 'I' for Inactive)
REMARK    1  A    between atoms: C_2  and  O_20
REMARK    2  A    between atoms: C_3  and  N_10
REMARK    3  A    between atoms: O_20  and  C_24
REMARK    4  A    between atoms: C_26  and  O_31
REMARK    5  A    between atoms: C_28  and  O_33
REMARK                            x       y       z     vdW  Elec       q    Type
REMARK                         _______ _______ _______ _____ _____    ______ ____
ROOT
ATOM      1 CL   UNL     1      32.715 -21.263 -19.940  0.00  0.00    -0.081 Cl
ATOM      2  C   UNL     1      36.060 -21.993 -17.917  0.00  0.00    +0.146 C 
ATOM      3  C   UNL     1      35.334 -20.523 -20.147  0.00  0.00    +0.062 C 
ATOM      4  C   UNL     1      34.738 -21.992 -18.325  0.00  0.00    +0.050 C 
ATOM      5  C   UNL     1      37.028 -21.275 -18.598  0.00  0.00    +0.039 C 
ATOM      6  C   UNL     1      34.371 -21.251 -19.448  0.00  0.00    +0.074 C 
ATOM      7  C   UNL     1      36.662 -20.534 -19.721  0.00  0.00    +0.019 C 
ENDROOT
BRANCH   3  10
ATOM      8  O   UNL     1      34.454 -14.607 -23.483  0.00  0.00    -0.357 OA
ATOM      9  O   UNL     1      35.294 -17.563 -20.542  0.00  0.00    -0.252 OA
ATOM     10  N   UNL     1      35.000 -19.768 -21.276  0.00  0.00    -0.267 N 
ATOM     11  N   UNL     1      34.594 -18.020 -22.725  0.00  0.00    -0.251 N 
ATOM     12  N   UNL     1      34.707 -15.639 -22.587  0.00  0.00    -0.062 NA
ATOM     13  C   UNL     1      34.994 -18.361 -21.424  0.00  0.00    +0.309 C 
ATOM     14  C   UNL     1      34.456 -16.727 -23.285  0.00  0.00    +0.177 C 
ATOM     15  C   UNL     1      34.050 -16.500 -24.589  0.00  0.00    +0.073 C 
ATOM     16  C   UNL     1      34.064 -15.133 -24.673  0.00  0.00    +0.156 C 
ATOM     17  C   UNL     1      33.754 -14.176 -25.742  0.00  0.00    +0.075 C 
ATOM     18  H   UNL     1      34.735 -20.283 -22.071  0.00  0.00    +0.156 HD
ATOM     19  H   UNL     1      34.384 -18.774 -23.324  0.00  0.00    +0.158 HD
ENDBRANCH   3  10
BRANCH   2  20
ATOM     20  O   UNL     1      36.425 -22.729 -16.804  0.00  0.00    -0.453 OA
BRANCH  20  24
ATOM     21  N   UNL     1      33.403 -23.630 -14.111  0.00  0.00    -0.244 NA
ATOM     22  C   UNL     1      35.754 -23.530 -14.627  0.00  0.00    +0.055 C 
ATOM     23  C   UNL     1      34.687 -23.819 -13.753  0.00  0.00    +0.087 C 
ATOM     24  C   UNL     1      35.447 -23.033 -15.901  0.00  0.00    +0.148 C 
ATOM     25  C   UNL     1      37.083 -23.739 -14.219  0.00  0.00    +0.045 C 
ATOM     26  C   UNL     1      37.360 -24.234 -12.948  0.00  0.00    +0.173 C 
ATOM     27  C   UNL     1      34.992 -24.313 -12.487  0.00  0.00    +0.059 C 
ATOM     28  C   UNL     1      36.313 -24.521 -12.082  0.00  0.00    +0.174 C 
ATOM     29  C   UNL     1      34.125 -22.837 -16.274  0.00  0.00    +0.058 C 
ATOM     30  C   UNL     1      33.149 -23.149 -15.350  0.00  0.00    +0.102 C 
BRANCH  26  31
ATOM     31  O   UNL     1      38.653 -24.431 -12.568  0.00  0.00    -0.468 OA
ATOM     32  C   UNL     1      39.378 -25.459 -13.241  0.00  0.00    +0.253 C 
ENDBRANCH  26  31
BRANCH  28  33
ATOM     33  O   UNL     1      36.561 -25.006 -10.832  0.00  0.00    -0.468 OA
ATOM     34  C   UNL     1      35.708 -24.556  -9.781  0.00  0.00    +0.253 C 
ENDBRANCH  28  33
ENDBRANCH  20  24
ENDBRANCH   2  20
TORSDOF 5
ENDMDL
