MODEL 1
REMARK VINA RESULT:     -11.8      0.000      0.000
REMARK  Name = 3168
REMARK  6 active torsions:
REMARK  status: ('A' for Active; 'I' for Inactive)
REMARK    1  A    between atoms: N_1  and  C_19
REMARK    2  A    between atoms: C_5  and  N_9
REMARK    3  A    between atoms: C_19  and  C_20
REMARK    4  A    between atoms: C_20  and  C_21
REMARK    5  A    between atoms: C_21  and  C_23
REMARK    6  A    between atoms: C_23  and  C_25
REMARK                            x       y       z     vdW  Elec       q    Type
REMARK                         _______ _______ _______ _____ _____    ______ ____
ROOT
ATOM      1  N   UNL     1      34.141 -15.713 -23.252  0.00  0.00    +0.390 N 
ATOM      2  C   UNL     1      34.890 -16.740 -23.986  0.00  0.00    -0.071 C 
ATOM      3  C   UNL     1      34.953 -18.041 -23.169  0.00  0.00    +0.021 C 
ATOM      4  C   UNL     1      34.819 -15.373 -21.990  0.00  0.00    -0.049 C 
ATOM      5  C   UNL     1      35.299 -17.801 -21.727  0.00  0.00    +0.037 C 
ATOM      6  C   UNL     1      35.252 -16.572 -21.192  0.00  0.00    -0.036 C 
ATOM      7  H   UNL     1      33.223 -16.097 -23.029  0.00  0.00    -0.079 HD
ENDROOT
BRANCH   5   9
ATOM      8  O   UNL     1      38.064 -18.694 -21.010  0.00  0.00    -0.246 OA
ATOM      9  N   UNL     1      35.680 -18.886 -20.990  0.00  0.00    -0.263 N 
ATOM     10  N   UNL     1      36.936 -20.444 -19.899  0.00  0.00    -0.305 N 
ATOM     11  C   UNL     1      34.816 -19.829 -20.402  0.00  0.00    +0.083 A 
ATOM     12  C   UNL     1      37.030 -19.260 -20.682  0.00  0.00    +0.332 A 
ATOM     13  C   UNL     1      35.593 -20.776 -19.738  0.00  0.00    +0.076 A 
ATOM     14  C   UNL     1      33.438 -19.914 -20.408  0.00  0.00    +0.019 C 
ATOM     15  C   UNL     1      35.045 -21.840 -19.056  0.00  0.00    +0.019 C 
ATOM     16  C   UNL     1      32.857 -20.986 -19.722  0.00  0.00    +0.002 C 
ATOM     17  C   UNL     1      33.652 -21.939 -19.053  0.00  0.00    +0.002 C 
ATOM     18  H   UNL     1      37.698 -20.948 -19.530  0.00  0.00    +0.170 HD
ENDBRANCH   5   9
BRANCH   1  19
ATOM     19  C   UNL     1      33.944 -14.519 -24.072  0.00  0.00    -0.076 C 
BRANCH  19  20
ATOM     20  C   UNL     1      33.739 -13.294 -23.180  0.00  0.00    -0.015 C 
BRANCH  20  21
ATOM     21  C   UNL     1      32.268 -13.088 -22.806  0.00  0.00    +0.067 C 
BRANCH  21  23
ATOM     22  O   UNL     1      31.927 -14.047 -20.617  0.00  0.00    -0.291 OA
ATOM     23  C   UNL     1      32.030 -13.033 -21.303  0.00  0.00    +0.173 C 
BRANCH  23  25
ATOM     24  F   UNL     1      31.686  -8.036 -18.835  0.00  0.00    -0.204 F 
ATOM     25  C   UNL     1      31.936 -11.699 -20.643  0.00  0.00    +0.035 C 
ATOM     26  C   UNL     1      31.748 -10.585 -21.430  0.00  0.00    +0.005 C 
ATOM     27  C   UNL     1      32.044 -11.630 -19.273  0.00  0.00    +0.005 C 
ATOM     28  C   UNL     1      31.663  -9.336 -20.813  0.00  0.00    +0.030 C 
ATOM     29  C   UNL     1      31.959 -10.382 -18.655  0.00  0.00    +0.030 C 
ATOM     30  C   UNL     1      31.768  -9.235 -19.426  0.00  0.00    +0.140 C 
ENDBRANCH  23  25
ENDBRANCH  21  23
ENDBRANCH  20  21
ENDBRANCH  19  20
ENDBRANCH   1  19
TORSDOF 6
ENDMDL
MODEL 2
REMARK VINA RESULT:     -11.2      3.760      9.736
REMARK  Name = 3168
REMARK  6 active torsions:
REMARK  status: ('A' for Active; 'I' for Inactive)
REMARK    1  A    between atoms: N_1  and  C_19
REMARK    2  A    between atoms: C_5  and  N_9
REMARK    3  A    between atoms: C_19  and  C_20
REMARK    4  A    between atoms: C_20  and  C_21
REMARK    5  A    between atoms: C_21  and  C_23
REMARK    6  A    between atoms: C_23  and  C_25
REMARK                            x       y       z     vdW  Elec       q    Type
REMARK                         _______ _______ _______ _____ _____    ______ ____
ROOT
ATOM      1  N   UNL     1      34.669 -15.053 -23.571  0.00  0.00    +0.390 N 
ATOM      2  C   UNL     1      33.469 -14.715 -24.346  0.00  0.00    -0.071 C 
ATOM      3  C   UNL     1      33.273 -13.191 -24.385  0.00  0.00    +0.021 C 
ATOM      4  C   UNL     1      34.527 -14.622 -22.170  0.00  0.00    -0.049 C 
ATOM      5  C   UNL     1      33.455 -12.550 -23.038  0.00  0.00    +0.037 C 
ATOM      6  C   UNL     1      34.017 -13.216 -22.019  0.00  0.00    -0.036 C 
ATOM      7  H   UNL     1      35.457 -14.553 -23.981  0.00  0.00    -0.079 HD
ENDROOT
BRANCH   5   9
ATOM      8  O   UNL     1      30.779 -11.600 -22.093  0.00  0.00    -0.246 OA
ATOM      9  N   UNL     1      33.008 -11.267 -22.894  0.00  0.00    -0.263 N 
ATOM     10  N   UNL     1      31.699  -9.455 -22.447  0.00  0.00    -0.305 N 
ATOM     11  C   UNL     1      33.746 -10.101 -23.171  0.00  0.00    +0.083 A 
ATOM     12  C   UNL     1      31.707 -10.878 -22.434  0.00  0.00    +0.332 A 
ATOM     13  C   UNL     1      32.937  -9.000 -22.895  0.00  0.00    +0.076 A 
ATOM     14  C   UNL     1      35.036  -9.940 -23.634  0.00  0.00    +0.019 C 
ATOM     15  C   UNL     1      33.367  -7.702 -23.064  0.00  0.00    +0.019 C 
ATOM     16  C   UNL     1      35.496  -8.631 -23.814  0.00  0.00    +0.002 C 
ATOM     17  C   UNL     1      34.671  -7.524 -23.532  0.00  0.00    +0.002 C 
ATOM     18  H   UNL     1      30.941  -8.885 -22.183  0.00  0.00    +0.170 HD
ENDBRANCH   5   9
BRANCH   1  19
ATOM     19  C   UNL     1      34.956 -16.485 -23.645  0.00  0.00    -0.076 C 
BRANCH  19  20
ATOM     20  C   UNL     1      35.311 -17.025 -22.259  0.00  0.00    -0.015 C 
BRANCH  20  21
ATOM     21  C   UNL     1      35.415 -18.553 -22.240  0.00  0.00    +0.067 C 
BRANCH  21  23
ATOM     22  O   UNL     1      37.104 -18.705 -20.521  0.00  0.00    -0.291 OA
ATOM     23  C   UNL     1      36.025 -19.101 -20.957  0.00  0.00    +0.173 C 
BRANCH  23  25
ATOM     24  F   UNL     1      33.214 -22.995 -18.110  0.00  0.00    -0.204 F 
ATOM     25  C   UNL     1      35.273 -20.139 -20.196  0.00  0.00    +0.035 C 
ATOM     26  C   UNL     1      35.981 -21.037 -19.429  0.00  0.00    +0.005 C 
ATOM     27  C   UNL     1      33.900 -20.164 -20.289  0.00  0.00    +0.005 C 
ATOM     28  C   UNL     1      35.279 -22.011 -18.718  0.00  0.00    +0.030 C 
ATOM     29  C   UNL     1      33.197 -21.138 -19.579  0.00  0.00    +0.030 C 
ATOM     30  C   UNL     1      33.888 -22.061 -18.792  0.00  0.00    +0.140 C 
ENDBRANCH  23  25
ENDBRANCH  21  23
ENDBRANCH  20  21
ENDBRANCH  19  20
ENDBRANCH   1  19
TORSDOF 6
ENDMDL
MODEL 3
REMARK VINA RESULT:     -11.2      2.371      2.762
REMARK  Name = 3168
REMARK  6 active torsions:
REMARK  status: ('A' for Active; 'I' for Inactive)
REMARK    1  A    between atoms: N_1  and  C_19
REMARK    2  A    between atoms: C_5  and  N_9
REMARK    3  A    between atoms: C_19  and  C_20
REMARK    4  A    between atoms: C_20  and  C_21
REMARK    5  A    between atoms: C_21  and  C_23
REMARK    6  A    between atoms: C_23  and  C_25
REMARK                            x       y       z     vdW  Elec       q    Type
REMARK                         _______ _______ _______ _____ _____    ______ ____
ROOT
ATOM      1  N   UNL     1      34.089 -15.770 -23.476  0.00  0.00    +0.390 N 
ATOM      2  C   UNL     1      34.827 -16.826 -24.179  0.00  0.00    -0.071 C 
ATOM      3  C   UNL     1      34.918 -18.086 -23.305  0.00  0.00    +0.021 C 
ATOM      4  C   UNL     1      34.795 -15.367 -22.248  0.00  0.00    -0.049 C 
ATOM      5  C   UNL     1      35.298 -17.778 -21.883  0.00  0.00    +0.037 C 
ATOM      6  C   UNL     1      35.255 -16.525 -21.406  0.00  0.00    -0.036 C 
ATOM      7  H   UNL     1      33.179 -16.147 -23.212  0.00  0.00    -0.079 HD
ENDROOT
BRANCH   5   9
ATOM      8  O   UNL     1      38.083 -18.593 -21.156  0.00  0.00    -0.246 OA
ATOM      9  N   UNL     1      35.704 -18.825 -21.106  0.00  0.00    -0.263 N 
ATOM     10  N   UNL     1      36.995 -20.315 -19.964  0.00  0.00    -0.305 N 
ATOM     11  C   UNL     1      34.861 -19.758 -20.473  0.00  0.00    +0.083 A 
ATOM     12  C   UNL     1      37.062 -19.162 -20.795  0.00  0.00    +0.332 A 
ATOM     13  C   UNL     1      35.660 -20.663 -19.778  0.00  0.00    +0.076 A 
ATOM     14  C   UNL     1      33.485 -19.866 -20.463  0.00  0.00    +0.019 C 
ATOM     15  C   UNL     1      35.136 -21.708 -19.048  0.00  0.00    +0.019 C 
ATOM     16  C   UNL     1      32.928 -20.919 -19.729  0.00  0.00    +0.002 C 
ATOM     17  C   UNL     1      33.745 -21.830 -19.029  0.00  0.00    +0.002 C 
ATOM     18  H   UNL     1      37.769 -20.790 -19.582  0.00  0.00    +0.170 HD
ENDBRANCH   5   9
BRANCH   1  19
ATOM     19  C   UNL     1      33.864 -14.617 -24.346  0.00  0.00    -0.076 C 
BRANCH  19  20
ATOM     20  C   UNL     1      33.183 -13.491 -23.565  0.00  0.00    -0.015 C 
BRANCH  20  21
ATOM     21  C   UNL     1      33.688 -12.107 -23.982  0.00  0.00    +0.067 C 
BRANCH  21  23
ATOM     22  O   UNL     1      32.122 -11.158 -22.409  0.00  0.00    -0.291 OA
ATOM     23  C   UNL     1      33.021 -10.967 -23.225  0.00  0.00    +0.173 C 
BRANCH  23  25
ATOM     24  F   UNL     1      34.778  -5.750 -24.155  0.00  0.00    -0.204 F 
ATOM     25  C   UNL     1      33.491  -9.574 -23.471  0.00  0.00    +0.035 C 
ATOM     26  C   UNL     1      32.559  -8.608 -23.777  0.00  0.00    +0.005 C 
ATOM     27  C   UNL     1      34.838  -9.305 -23.386  0.00  0.00    +0.005 C 
ATOM     28  C   UNL     1      32.998  -7.304 -24.011  0.00  0.00    +0.030 C 
ATOM     29  C   UNL     1      35.278  -8.002 -23.620  0.00  0.00    +0.030 C 
ATOM     30  C   UNL     1      34.357  -7.001 -23.932  0.00  0.00    +0.140 C 
ENDBRANCH  23  25
ENDBRANCH  21  23
ENDBRANCH  20  21
ENDBRANCH  19  20
ENDBRANCH   1  19
TORSDOF 6
ENDMDL
MODEL 4
REMARK VINA RESULT:     -11.1      3.464      9.224
REMARK  Name = 3168
REMARK  6 active torsions:
REMARK  status: ('A' for Active; 'I' for Inactive)
REMARK    1  A    between atoms: N_1  and  C_19
REMARK    2  A    between atoms: C_5  and  N_9
REMARK    3  A    between atoms: C_19  and  C_20
REMARK    4  A    between atoms: C_20  and  C_21
REMARK    5  A    between atoms: C_21  and  C_23
REMARK    6  A    between atoms: C_23  and  C_25
REMARK                            x       y       z     vdW  Elec       q    Type
REMARK                         _______ _______ _______ _____ _____    ______ ____
ROOT
ATOM      1  N   UNL     1      34.170 -15.809 -23.475  0.00  0.00    +0.390 N 
ATOM      2  C   UNL     1      35.069 -15.002 -22.641  0.00  0.00    -0.071 C 
ATOM      3  C   UNL     1      34.257 -14.028 -21.772  0.00  0.00    +0.021 C 
ATOM      4  C   UNL     1      33.416 -14.957 -24.409  0.00  0.00    -0.049 C 
ATOM      5  C   UNL     1      33.178 -13.323 -22.545  0.00  0.00    +0.037 C 
ATOM      6  C   UNL     1      32.806 -13.744 -23.763  0.00  0.00    -0.036 C 
ATOM      7  H   UNL     1      33.505 -16.275 -22.858  0.00  0.00    -0.079 HD
ENDROOT
BRANCH   5   9
ATOM      8  O   UNL     1      31.980 -13.074 -19.815  0.00  0.00    -0.246 OA
ATOM      9  N   UNL     1      32.608 -12.229 -21.962  0.00  0.00    -0.263 N 
ATOM     10  N   UNL     1      31.578 -10.843 -20.473  0.00  0.00    -0.305 N 
ATOM     11  C   UNL     1      32.468 -10.958 -22.552  0.00  0.00    +0.083 A 
ATOM     12  C   UNL     1      32.049 -12.176 -20.643  0.00  0.00    +0.332 A 
ATOM     13  C   UNL     1      31.838 -10.120 -21.635  0.00  0.00    +0.076 A 
ATOM     14  C   UNL     1      32.842 -10.499 -23.799  0.00  0.00    +0.019 C 
ATOM     15  C   UNL     1      31.553  -8.800 -21.909  0.00  0.00    +0.019 C 
ATOM     16  C   UNL     1      32.563  -9.161 -24.102  0.00  0.00    +0.002 C 
ATOM     17  C   UNL     1      31.925  -8.321 -23.166  0.00  0.00    +0.002 C 
ATOM     18  H   UNL     1      31.139 -10.490 -19.665  0.00  0.00    +0.170 HD
ENDBRANCH   5   9
BRANCH   1  19
ATOM     19  C   UNL     1      34.911 -16.841 -24.199  0.00  0.00    -0.076 C 
BRANCH  19  20
ATOM     20  C   UNL     1      34.498 -18.230 -23.709  0.00  0.00    -0.015 C 
BRANCH  20  21
ATOM     21  C   UNL     1      35.541 -18.850 -22.774  0.00  0.00    +0.067 C 
BRANCH  21  23
ATOM     22  O   UNL     1      35.225 -17.554 -20.762  0.00  0.00    -0.291 OA
ATOM     23  C   UNL     1      35.218 -18.659 -21.298  0.00  0.00    +0.173 C 
BRANCH  23  25
ATOM     24  F   UNL     1      33.893 -23.148 -18.253  0.00  0.00    -0.204 F 
ATOM     25  C   UNL     1      34.863 -19.857 -20.484  0.00  0.00    +0.035 C 
ATOM     26  C   UNL     1      35.880 -20.610 -19.940  0.00  0.00    +0.005 C 
ATOM     27  C   UNL     1      33.534 -20.166 -20.307  0.00  0.00    +0.005 C 
ATOM     28  C   UNL     1      35.549 -21.732 -19.180  0.00  0.00    +0.030 C 
ATOM     29  C   UNL     1      33.202 -21.288 -19.547  0.00  0.00    +0.030 C 
ATOM     30  C   UNL     1      34.211 -22.071 -18.983  0.00  0.00    +0.140 C 
ENDBRANCH  23  25
ENDBRANCH  21  23
ENDBRANCH  20  21
ENDBRANCH  19  20
ENDBRANCH   1  19
TORSDOF 6
ENDMDL
MODEL 5
REMARK VINA RESULT:     -11.0      3.636      8.996
REMARK  Name = 3168
REMARK  6 active torsions:
REMARK  status: ('A' for Active; 'I' for Inactive)
REMARK    1  A    between atoms: N_1  and  C_19
REMARK    2  A    between atoms: C_5  and  N_9
REMARK    3  A    between atoms: C_19  and  C_20
REMARK    4  A    between atoms: C_20  and  C_21
REMARK    5  A    between atoms: C_21  and  C_23
REMARK    6  A    between atoms: C_23  and  C_25
REMARK                            x       y       z     vdW  Elec       q    Type
REMARK                         _______ _______ _______ _____ _____    ______ ____
ROOT
ATOM      1  N   UNL     1      33.965 -16.134 -23.900  0.00  0.00    +0.390 N 
ATOM      2  C   UNL     1      35.035 -15.479 -23.137  0.00  0.00    -0.071 C 
ATOM      3  C   UNL     1      34.517 -14.179 -22.501  0.00  0.00    +0.021 C 
ATOM      4  C   UNL     1      33.520 -15.281 -25.015  0.00  0.00    -0.049 C 
ATOM      5  C   UNL     1      33.714 -13.346 -23.460  0.00  0.00    +0.037 C 
ATOM      6  C   UNL     1      33.271 -13.851 -24.621  0.00  0.00    -0.036 C 
ATOM      7  H   UNL     1      33.175 -16.277 -23.271  0.00  0.00    -0.079 HD
ENDROOT
BRANCH   5   9
ATOM      8  O   UNL     1      34.977 -10.851 -24.525  0.00  0.00    -0.246 OA
ATOM      9  N   UNL     1      33.470 -12.050 -23.106  0.00  0.00    -0.263 N 
ATOM     10  N   UNL     1      33.542  -9.775 -22.990  0.00  0.00    -0.305 N 
ATOM     11  C   UNL     1      32.543 -11.620 -22.138  0.00  0.00    +0.083 A 
ATOM     12  C   UNL     1      34.113 -10.894 -23.658  0.00  0.00    +0.332 A 
ATOM     13  C   UNL     1      32.596 -10.229 -22.074  0.00  0.00    +0.076 A 
ATOM     14  C   UNL     1      31.684 -12.339 -21.332  0.00  0.00    +0.019 C 
ATOM     15  C   UNL     1      31.805  -9.494 -21.217  0.00  0.00    +0.019 C 
ATOM     16  C   UNL     1      30.871 -11.616 -20.452  0.00  0.00    +0.002 C 
ATOM     17  C   UNL     1      30.931 -10.209 -20.396  0.00  0.00    +0.002 C 
ATOM     18  H   UNL     1      33.778  -8.832 -23.149  0.00  0.00    +0.170 HD
ENDBRANCH   5   9
BRANCH   1  19
ATOM     19  C   UNL     1      34.394 -17.443 -24.389  0.00  0.00    -0.076 C 
BRANCH  19  20
ATOM     20  C   UNL     1      35.417 -18.055 -23.430  0.00  0.00    -0.015 C 
BRANCH  20  21
ATOM     21  C   UNL     1      34.830 -19.209 -22.612  0.00  0.00    +0.067 C 
BRANCH  21  23
ATOM     22  O   UNL     1      35.430 -17.998 -20.612  0.00  0.00    -0.291 OA
ATOM     23  C   UNL     1      35.022 -19.044 -21.111  0.00  0.00    +0.173 C 
BRANCH  23  25
ATOM     24  F   UNL     1      33.756 -23.334 -17.770  0.00  0.00    -0.204 F 
ATOM     25  C   UNL     1      34.683 -20.189 -20.218  0.00  0.00    +0.035 C 
ATOM     26  C   UNL     1      35.708 -20.956 -19.711  0.00  0.00    +0.005 C 
ATOM     27  C   UNL     1      33.359 -20.437 -19.934  0.00  0.00    +0.005 C 
ATOM     28  C   UNL     1      35.392 -22.028 -18.877  0.00  0.00    +0.030 C 
ATOM     29  C   UNL     1      33.043 -21.510 -19.100  0.00  0.00    +0.030 C 
ATOM     30  C   UNL     1      34.060 -22.305 -18.571  0.00  0.00    +0.140 C 
ENDBRANCH  23  25
ENDBRANCH  21  23
ENDBRANCH  20  21
ENDBRANCH  19  20
ENDBRANCH   1  19
TORSDOF 6
ENDMDL
MODEL 6
REMARK VINA RESULT:     -10.9      4.583      9.521
REMARK  Name = 3168
REMARK  6 active torsions:
REMARK  status: ('A' for Active; 'I' for Inactive)
REMARK    1  A    between atoms: N_1  and  C_19
REMARK    2  A    between atoms: C_5  and  N_9
REMARK    3  A    between atoms: C_19  and  C_20
REMARK    4  A    between atoms: C_20  and  C_21
REMARK    5  A    between atoms: C_21  and  C_23
REMARK    6  A    between atoms: C_23  and  C_25
REMARK                            x       y       z     vdW  Elec       q    Type
REMARK                         _______ _______ _______ _____ _____    ______ ____
ROOT
ATOM      1  N   UNL     1      35.849 -20.395 -19.405  0.00  0.00    +0.390 N 
ATOM      2  C   UNL     1      36.938 -20.030 -20.319  0.00  0.00    -0.071 C 
ATOM      3  C   UNL     1      36.661 -18.660 -20.959  0.00  0.00    +0.021 C 
ATOM      4  C   UNL     1      34.578 -20.533 -20.135  0.00  0.00    -0.049 C 
ATOM      5  C   UNL     1      35.246 -18.526 -21.448  0.00  0.00    +0.037 C 
ATOM      6  C   UNL     1      34.295 -19.398 -21.080  0.00  0.00    -0.036 C 
ATOM      7  H   UNL     1      35.747 -19.642 -18.725  0.00  0.00    -0.079 HD
ENDROOT
BRANCH   5   9
ATOM      8  O   UNL     1      34.944 -18.579 -24.425  0.00  0.00    -0.246 OA
ATOM      9  N   UNL     1      34.977 -17.490 -22.296  0.00  0.00    -0.263 N 
ATOM     10  N   UNL     1      34.565 -16.263 -24.172  0.00  0.00    -0.305 N 
ATOM     11  C   UNL     1      34.780 -16.147 -21.921  0.00  0.00    +0.083 A 
ATOM     12  C   UNL     1      34.844 -17.584 -23.720  0.00  0.00    +0.332 A 
ATOM     13  C   UNL     1      34.529 -15.407 -23.074  0.00  0.00    +0.076 A 
ATOM     14  C   UNL     1      34.805 -15.547 -20.679  0.00  0.00    +0.019 C 
ATOM     15  C   UNL     1      34.294 -14.049 -23.048  0.00  0.00    +0.019 C 
ATOM     16  C   UNL     1      34.569 -14.168 -20.626  0.00  0.00    +0.002 C 
ATOM     17  C   UNL     1      34.316 -13.428 -21.799  0.00  0.00    +0.002 C 
ATOM     18  H   UNL     1      34.420 -15.998 -25.110  0.00  0.00    +0.170 HD
ENDBRANCH   5   9
BRANCH   1  19
ATOM     19  C   UNL     1      36.163 -21.623 -18.677  0.00  0.00    -0.076 C 
BRANCH  19  20
ATOM     20  C   UNL     1      34.943 -22.545 -18.644  0.00  0.00    -0.015 C 
BRANCH  20  21
ATOM     21  C   UNL     1      34.434 -22.785 -17.220  0.00  0.00    +0.067 C 
BRANCH  21  23
ATOM     22  O   UNL     1      32.212 -22.264 -18.004  0.00  0.00    -0.291 OA
ATOM     23  C   UNL     1      32.920 -22.694 -17.097  0.00  0.00    +0.173 C 
BRANCH  23  25
ATOM     24  F   UNL     1      30.513 -24.449 -12.374  0.00  0.00    -0.204 F 
ATOM     25  C   UNL     1      32.277 -23.161 -15.835  0.00  0.00    +0.035 C 
ATOM     26  C   UNL     1      33.082 -23.571 -14.796  0.00  0.00    +0.005 C 
ATOM     27  C   UNL     1      30.902 -23.166 -15.756  0.00  0.00    +0.005 C 
ATOM     28  C   UNL     1      32.481 -24.010 -13.616  0.00  0.00    +0.030 C 
ATOM     29  C   UNL     1      30.300 -23.606 -14.577  0.00  0.00    +0.030 C 
ATOM     30  C   UNL     1      31.090 -24.027 -13.506  0.00  0.00    +0.140 C 
ENDBRANCH  23  25
ENDBRANCH  21  23
ENDBRANCH  20  21
ENDBRANCH  19  20
ENDBRANCH   1  19
TORSDOF 6
ENDMDL
MODEL 7
REMARK VINA RESULT:     -10.8      4.178      7.111
REMARK  Name = 3168
REMARK  6 active torsions:
REMARK  status: ('A' for Active; 'I' for Inactive)
REMARK    1  A    between atoms: N_1  and  C_19
REMARK    2  A    between atoms: C_5  and  N_9
REMARK    3  A    between atoms: C_19  and  C_20
REMARK    4  A    between atoms: C_20  and  C_21
REMARK    5  A    between atoms: C_21  and  C_23
REMARK    6  A    between atoms: C_23  and  C_25
REMARK                            x       y       z     vdW  Elec       q    Type
REMARK                         _______ _______ _______ _____ _____    ______ ____
ROOT
ATOM      1  N   UNL     1      35.042 -21.370 -18.867  0.00  0.00    +0.390 N 
ATOM      2  C   UNL     1      34.242 -22.580 -19.091  0.00  0.00    -0.071 C 
ATOM      3  C   UNL     1      33.619 -23.059 -17.770  0.00  0.00    +0.021 C 
ATOM      4  C   UNL     1      36.168 -21.646 -17.958  0.00  0.00    -0.049 C 
ATOM      5  C   UNL     1      34.600 -23.054 -16.632  0.00  0.00    +0.037 C 
ATOM      6  C   UNL     1      35.777 -22.417 -16.728  0.00  0.00    -0.036 C 
ATOM      7  H   UNL     1      34.440 -20.674 -18.427  0.00  0.00    -0.079 HD
ENDROOT
BRANCH   5   9
ATOM      8  O   UNL     1      36.237 -24.985 -15.035  0.00  0.00    -0.246 OA
ATOM      9  N   UNL     1      34.249 -23.740 -15.504  0.00  0.00    -0.263 N 
ATOM     10  N   UNL     1      34.302 -25.119 -13.691  0.00  0.00    -0.305 N 
ATOM     11  C   UNL     1      33.005 -23.669 -14.849  0.00  0.00    +0.083 A 
ATOM     12  C   UNL     1      35.085 -24.655 -14.784  0.00  0.00    +0.332 A 
ATOM     13  C   UNL     1      33.047 -24.515 -13.743  0.00  0.00    +0.076 A 
ATOM     14  C   UNL     1      31.872 -22.938 -15.145  0.00  0.00    +0.019 C 
ATOM     15  C   UNL     1      31.979 -24.673 -12.888  0.00  0.00    +0.019 C 
ATOM     16  C   UNL     1      30.773 -23.082 -14.292  0.00  0.00    +0.002 C 
ATOM     17  C   UNL     1      30.826 -23.940 -13.175  0.00  0.00    +0.002 C 
ATOM     18  H   UNL     1      34.598 -25.763 -13.007  0.00  0.00    +0.170 HD
ENDBRANCH   5   9
BRANCH   1  19
ATOM     19  C   UNL     1      35.522 -20.816 -20.132  0.00  0.00    -0.076 C 
BRANCH  19  20
ATOM     20  C   UNL     1      34.428 -19.970 -20.787  0.00  0.00    -0.015 C 
BRANCH  20  21
ATOM     21  C   UNL     1      34.890 -19.342 -22.105  0.00  0.00    +0.067 C 
BRANCH  21  23
ATOM     22  O   UNL     1      37.053 -18.322 -21.772  0.00  0.00    -0.291 OA
ATOM     23  C   UNL     1      35.842 -18.169 -21.914  0.00  0.00    +0.173 C 
BRANCH  23  25
ATOM     24  F   UNL     1      33.740 -12.997 -21.933  0.00  0.00    -0.204 F 
ATOM     25  C   UNL     1      35.282 -16.787 -21.920  0.00  0.00    +0.035 C 
ATOM     26  C   UNL     1      35.006 -16.182 -20.714  0.00  0.00    +0.005 C 
ATOM     27  C   UNL     1      35.060 -16.169 -23.129  0.00  0.00    +0.005 C 
ATOM     28  C   UNL     1      34.480 -14.890 -20.719  0.00  0.00    +0.030 C 
ATOM     29  C   UNL     1      34.534 -14.877 -23.135  0.00  0.00    +0.030 C 
ATOM     30  C   UNL     1      34.244 -14.237 -21.928  0.00  0.00    +0.140 C 
ENDBRANCH  23  25
ENDBRANCH  21  23
ENDBRANCH  20  21
ENDBRANCH  19  20
ENDBRANCH   1  19
TORSDOF 6
ENDMDL
MODEL 8
REMARK VINA RESULT:     -10.5      5.324      8.638
REMARK  Name = 3168
REMARK  6 active torsions:
REMARK  status: ('A' for Active; 'I' for Inactive)
REMARK    1  A    between atoms: N_1  and  C_19
REMARK    2  A    between atoms: C_5  and  N_9
REMARK    3  A    between atoms: C_19  and  C_20
REMARK    4  A    between atoms: C_20  and  C_21
REMARK    5  A    between atoms: C_21  and  C_23
REMARK    6  A    between atoms: C_23  and  C_25
REMARK                            x       y       z     vdW  Elec       q    Type
REMARK                         _______ _______ _______ _____ _____    ______ ____
ROOT
ATOM      1  N   UNL     1      34.485 -22.651 -17.970  0.00  0.00    +0.390 N 
ATOM      2  C   UNL     1      35.446 -21.895 -17.157  0.00  0.00    -0.071 C 
ATOM      3  C   UNL     1      35.993 -22.776 -16.022  0.00  0.00    +0.021 C 
ATOM      4  C   UNL     1      33.320 -23.053 -17.164  0.00  0.00    -0.049 C 
ATOM      5  C   UNL     1      34.913 -23.546 -15.316  0.00  0.00    +0.037 C 
ATOM      6  C   UNL     1      33.682 -23.658 -15.836  0.00  0.00    -0.036 C 
ATOM      7  H   UNL     1      34.952 -23.495 -18.301  0.00  0.00    -0.079 HD
ENDROOT
BRANCH   5   9
ATOM      8  O   UNL     1      33.228 -23.790 -12.855  0.00  0.00    -0.246 OA
ATOM      9  N   UNL     1      35.235 -24.112 -14.115  0.00  0.00    -0.263 N 
ATOM     10  N   UNL     1      35.134 -24.861 -11.965  0.00  0.00    -0.305 N 
ATOM     11  C   UNL     1      36.466 -24.712 -13.790  0.00  0.00    +0.083 A 
ATOM     12  C   UNL     1      34.377 -24.196 -12.970  0.00  0.00    +0.332 A 
ATOM     13  C   UNL     1      36.394 -25.166 -12.475  0.00  0.00    +0.076 A 
ATOM     14  C   UNL     1      37.611 -24.883 -14.542  0.00  0.00    +0.019 C 
ATOM     15  C   UNL     1      37.443 -25.805 -11.851  0.00  0.00    +0.019 C 
ATOM     16  C   UNL     1      38.691 -25.529 -13.931  0.00  0.00    +0.002 C 
ATOM     17  C   UNL     1      38.608 -25.985 -12.600  0.00  0.00    +0.002 C 
ATOM     18  H   UNL     1      34.818 -25.071 -11.056  0.00  0.00    +0.170 HD
ENDBRANCH   5   9
BRANCH   1  19
ATOM     19  C   UNL     1      34.065 -21.880 -19.139  0.00  0.00    -0.076 C 
BRANCH  19  20
ATOM     20  C   UNL     1      35.171 -20.908 -19.555  0.00  0.00    -0.015 C 
BRANCH  20  21
ATOM     21  C   UNL     1      34.824 -20.149 -20.840  0.00  0.00    +0.067 C 
BRANCH  21  23
ATOM     22  O   UNL     1      36.673 -18.667 -20.380  0.00  0.00    -0.291 OA
ATOM     23  C   UNL     1      35.671 -18.903 -21.052  0.00  0.00    +0.173 C 
BRANCH  23  25
ATOM     24  F   UNL     1      34.209 -15.328 -25.084  0.00  0.00    -0.204 F 
ATOM     25  C   UNL     1      35.279 -17.947 -22.128  0.00  0.00    +0.035 C 
ATOM     26  C   UNL     1      34.831 -18.452 -23.328  0.00  0.00    +0.005 C 
ATOM     27  C   UNL     1      35.382 -16.597 -21.883  0.00  0.00    +0.005 C 
ATOM     28  C   UNL     1      34.466 -17.559 -24.335  0.00  0.00    +0.030 C 
ATOM     29  C   UNL     1      35.018 -15.703 -22.890  0.00  0.00    +0.030 C 
ATOM     30  C   UNL     1      34.559 -16.185 -24.117  0.00  0.00    +0.140 C 
ENDBRANCH  23  25
ENDBRANCH  21  23
ENDBRANCH  20  21
ENDBRANCH  19  20
ENDBRANCH   1  19
TORSDOF 6
ENDMDL
MODEL 9
REMARK VINA RESULT:     -10.5      4.629     10.775
REMARK  Name = 3168
REMARK  6 active torsions:
REMARK  status: ('A' for Active; 'I' for Inactive)
REMARK    1  A    between atoms: N_1  and  C_19
REMARK    2  A    between atoms: C_5  and  N_9
REMARK    3  A    between atoms: C_19  and  C_20
REMARK    4  A    between atoms: C_20  and  C_21
REMARK    5  A    between atoms: C_21  and  C_23
REMARK    6  A    between atoms: C_23  and  C_25
REMARK                            x       y       z     vdW  Elec       q    Type
REMARK                         _______ _______ _______ _____ _____    ______ ____
ROOT
ATOM      1  N   UNL     1      32.623 -11.936 -22.317  0.00  0.00    +0.390 N 
ATOM      2  C   UNL     1      32.878 -11.066 -23.472  0.00  0.00    -0.071 C 
ATOM      3  C   UNL     1      33.194  -9.637 -23.004  0.00  0.00    +0.021 C 
ATOM      4  C   UNL     1      31.440 -11.479 -21.569  0.00  0.00    -0.049 C 
ATOM      5  C   UNL     1      32.245  -9.153 -21.943  0.00  0.00    +0.037 C 
ATOM      6  C   UNL     1      31.430 -10.000 -21.297  0.00  0.00    -0.036 C 
ATOM      7  H   UNL     1      33.433 -11.881 -21.701  0.00  0.00    -0.079 HD
ENDROOT
BRANCH   5   9
ATOM      8  O   UNL     1      33.207  -7.727 -19.495  0.00  0.00    -0.246 OA
ATOM      9  N   UNL     1      32.238  -7.813 -21.679  0.00  0.00    -0.263 N 
ATOM     10  N   UNL     1      32.507  -5.795 -20.655  0.00  0.00    -0.305 N 
ATOM     11  C   UNL     1      31.759  -6.806 -22.538  0.00  0.00    +0.083 A 
ATOM     12  C   UNL     1      32.716  -7.191 -20.479  0.00  0.00    +0.332 A 
ATOM     13  C   UNL     1      31.929  -5.577 -21.903  0.00  0.00    +0.076 A 
ATOM     14  C   UNL     1      31.203  -6.887 -23.799  0.00  0.00    +0.019 C 
ATOM     15  C   UNL     1      31.558  -4.384 -22.484  0.00  0.00    +0.019 C 
ATOM     16  C   UNL     1      30.817  -5.689 -24.410  0.00  0.00    +0.002 C 
ATOM     17  C   UNL     1      30.993  -4.450 -23.759  0.00  0.00    +0.002 C 
ATOM     18  H   UNL     1      32.735  -5.095 -20.000  0.00  0.00    +0.170 HD
ENDBRANCH   5   9
BRANCH   1  19
ATOM     19  C   UNL     1      32.466 -13.329 -22.733  0.00  0.00    -0.076 C 
BRANCH  19  20
ATOM     20  C   UNL     1      33.527 -13.692 -23.774  0.00  0.00    -0.015 C 
BRANCH  20  21
ATOM     21  C   UNL     1      34.613 -14.607 -23.201  0.00  0.00    +0.067 C 
BRANCH  21  23
ATOM     22  O   UNL     1      34.679 -16.027 -25.152  0.00  0.00    -0.291 OA
ATOM     23  C   UNL     1      34.725 -15.940 -23.927  0.00  0.00    +0.173 C 
BRANCH  23  25
ATOM     24  F   UNL     1      35.427 -20.581 -20.903  0.00  0.00    -0.204 F 
ATOM     25  C   UNL     1      34.914 -17.179 -23.119  0.00  0.00    +0.035 C 
ATOM     26  C   UNL     1      34.588 -18.391 -23.685  0.00  0.00    +0.005 C 
ATOM     27  C   UNL     1      35.406 -17.065 -21.839  0.00  0.00    +0.005 C 
ATOM     28  C   UNL     1      34.763 -19.551 -22.929  0.00  0.00    +0.030 C 
ATOM     29  C   UNL     1      35.580 -18.225 -21.082  0.00  0.00    +0.030 C 
ATOM     30  C   UNL     1      35.259 -19.468 -21.628  0.00  0.00    +0.140 C 
ENDBRANCH  23  25
ENDBRANCH  21  23
ENDBRANCH  20  21
ENDBRANCH  19  20
ENDBRANCH   1  19
TORSDOF 6
ENDMDL
