MODEL 1
REMARK VINA RESULT:     -11.2      0.000      0.000
REMARK  Name = 5327686
REMARK  3 active torsions:
REMARK  status: ('A' for Active; 'I' for Inactive)
REMARK    1  A    between atoms: C_4  and  C_10
REMARK    2  A    between atoms: C_5  and  C_23
REMARK    3  A    between atoms: C_17  and  N_21
REMARK                            x       y       z     vdW  Elec       q    Type
REMARK                         _______ _______ _______ _____ _____    ______ ____
ROOT
ATOM      1  O   UNL     1      31.642 -22.857 -17.128  0.00  0.00    -0.270 OA
ATOM      2  O   UNL     1      31.572 -25.250 -13.226  0.00  0.00    -0.270 OA
ATOM      3  N   UNL     1      31.220 -24.114 -15.220  0.00  0.00    -0.248 N 
ATOM      4  C   UNL     1      33.375 -23.444 -15.560  0.00  0.00    +0.059 C 
ATOM      5  C   UNL     1      33.352 -24.138 -14.408  0.00  0.00    +0.059 C 
ATOM      6  C   UNL     1      31.992 -23.415 -16.101  0.00  0.00    +0.252 C 
ATOM      7  C   UNL     1      31.955 -24.584 -14.173  0.00  0.00    +0.252 C 
ATOM      8  H   UNL     1      30.252 -24.259 -15.327  0.00  0.00    +0.158 HD
ENDROOT
BRANCH   4  10
ATOM      9  N   UNL     1      36.521 -22.026 -16.591  0.00  0.00    -0.284 N 
ATOM     10  C   UNL     1      34.471 -22.797 -16.212  0.00  0.00    +0.021 C 
ATOM     11  C   UNL     1      34.475 -22.138 -17.475  0.00  0.00    +0.015 C 
ATOM     12  C   UNL     1      35.772 -21.664 -17.688  0.00  0.00    +0.053 C 
ATOM     13  C   UNL     1      35.745 -22.710 -15.694  0.00  0.00    +0.066 C 
ATOM     14  C   UNL     1      33.496 -21.900 -18.460  0.00  0.00    +0.003 C 
ATOM     15  C   UNL     1      36.139 -20.963 -18.841  0.00  0.00    +0.039 C 
ATOM     16  C   UNL     1      37.925 -21.734 -16.398  0.00  0.00    +0.117 C 
ATOM     17  C   UNL     1      35.151 -20.737 -19.804  0.00  0.00    +0.144 C 
ATOM     18  C   UNL     1      33.850 -21.199 -19.619  0.00  0.00    +0.024 C 
BRANCH  17  21
ATOM     19  O   UNL     1      34.680 -20.051 -21.954  0.00  0.00    -0.126 OA
ATOM     20  O   UNL     1      36.564 -19.396 -21.038  0.00  0.00    -0.126 OA
ATOM     21  N   UNL     1      35.481 -20.027 -20.989  0.00  0.00    +0.058 N 
ENDBRANCH  17  21
ENDBRANCH   4  10
BRANCH   5  23
ATOM     22  N   UNL     1      35.684 -24.493 -11.691  0.00  0.00    -0.284 N 
ATOM     23  C   UNL     1      34.424 -24.459 -13.517  0.00  0.00    +0.021 C 
ATOM     24  C   UNL     1      35.537 -25.310 -13.761  0.00  0.00    +0.015 C 
ATOM     25  C   UNL     1      36.312 -25.314 -12.599  0.00  0.00    +0.052 C 
ATOM     26  C   UNL     1      34.542 -23.971 -12.236  0.00  0.00    +0.066 C 
ATOM     27  C   UNL     1      35.961 -26.081 -14.862  0.00  0.00    +0.001 C 
ATOM     28  C   UNL     1      37.495 -26.053 -12.483  0.00  0.00    +0.015 C 
ATOM     29  C   UNL     1      36.152 -24.207 -10.352  0.00  0.00    +0.117 C 
ATOM     30  C   UNL     1      37.142 -26.825 -14.760  0.00  0.00    +0.000 C 
ATOM     31  C   UNL     1      37.896 -26.809 -13.588  0.00  0.00    +0.001 C 
ENDBRANCH   5  23
TORSDOF 3
ENDMDL
MODEL 2
REMARK VINA RESULT:     -10.9      2.661      6.315
REMARK  Name = 5327686
REMARK  3 active torsions:
REMARK  status: ('A' for Active; 'I' for Inactive)
REMARK    1  A    between atoms: C_4  and  C_10
REMARK    2  A    between atoms: C_5  and  C_23
REMARK    3  A    between atoms: C_17  and  N_21
REMARK                            x       y       z     vdW  Elec       q    Type
REMARK                         _______ _______ _______ _____ _____    ______ ____
ROOT
ATOM      1  O   UNL     1      31.917 -25.257 -12.722  0.00  0.00    -0.270 OA
ATOM      2  O   UNL     1      31.665 -22.981 -16.686  0.00  0.00    -0.270 OA
ATOM      3  N   UNL     1      31.405 -24.194 -14.723  0.00  0.00    -0.248 N 
ATOM      4  C   UNL     1      33.577 -24.101 -14.031  0.00  0.00    +0.059 C 
ATOM      5  C   UNL     1      33.505 -23.441 -15.201  0.00  0.00    +0.059 C 
ATOM      6  C   UNL     1      32.217 -24.601 -13.707  0.00  0.00    +0.252 C 
ATOM      7  C   UNL     1      32.095 -23.490 -15.665  0.00  0.00    +0.252 C 
ATOM      8  H   UNL     1      30.440 -24.385 -14.772  0.00  0.00    +0.158 HD
ENDROOT
BRANCH   4  10
ATOM      9  N   UNL     1      35.957 -24.543 -11.364  0.00  0.00    -0.284 N 
ATOM     10  C   UNL     1      34.709 -24.348 -13.193  0.00  0.00    +0.021 C 
ATOM     11  C   UNL     1      36.018 -24.752 -13.585  0.00  0.00    +0.015 C 
ATOM     12  C   UNL     1      36.780 -24.868 -12.419  0.00  0.00    +0.053 C 
ATOM     13  C   UNL     1      34.706 -24.227 -11.821  0.00  0.00    +0.066 C 
ATOM     14  C   UNL     1      36.628 -25.033 -14.823  0.00  0.00    +0.003 C 
ATOM     15  C   UNL     1      38.125 -25.251 -12.432  0.00  0.00    +0.039 C 
ATOM     16  C   UNL     1      36.344 -24.532  -9.969  0.00  0.00    +0.117 C 
ATOM     17  C   UNL     1      38.709 -25.524 -13.672  0.00  0.00    +0.144 C 
ATOM     18  C   UNL     1      37.974 -25.418 -14.851  0.00  0.00    +0.024 C 
BRANCH  17  21
ATOM     19  O   UNL     1      40.352 -27.111 -13.984  0.00  0.00    -0.126 OA
ATOM     20  O   UNL     1      40.961 -25.052 -13.526  0.00  0.00    -0.126 OA
ATOM     21  N   UNL     1      40.074 -25.915 -13.730  0.00  0.00    +0.058 N 
ENDBRANCH  17  21
ENDBRANCH   4  10
BRANCH   5  23
ATOM     22  N   UNL     1      36.399 -21.642 -16.356  0.00  0.00    -0.284 N 
ATOM     23  C   UNL     1      34.534 -22.766 -15.931  0.00  0.00    +0.021 C 
ATOM     24  C   UNL     1      34.619 -22.563 -17.335  0.00  0.00    +0.015 C 
ATOM     25  C   UNL     1      35.799 -21.855 -17.576  0.00  0.00    +0.052 C 
ATOM     26  C   UNL     1      35.642 -22.188 -15.355  0.00  0.00    +0.066 C 
ATOM     27  C   UNL     1      33.803 -22.915 -18.430  0.00  0.00    +0.001 C 
ATOM     28  C   UNL     1      36.205 -21.479 -18.862  0.00  0.00    +0.015 C 
ATOM     29  C   UNL     1      37.646 -20.939 -16.144  0.00  0.00    +0.117 C 
ATOM     30  C   UNL     1      34.197 -22.545 -19.721  0.00  0.00    +0.000 C 
ATOM     31  C   UNL     1      35.380 -21.839 -19.932  0.00  0.00    +0.001 C 
ENDBRANCH   5  23
TORSDOF 3
ENDMDL
MODEL 3
REMARK VINA RESULT:     -10.6      0.779      2.006
REMARK  Name = 5327686
REMARK  3 active torsions:
REMARK  status: ('A' for Active; 'I' for Inactive)
REMARK    1  A    between atoms: C_4  and  C_10
REMARK    2  A    between atoms: C_5  and  C_23
REMARK    3  A    between atoms: C_17  and  N_21
REMARK                            x       y       z     vdW  Elec       q    Type
REMARK                         _______ _______ _______ _____ _____    ______ ____
ROOT
ATOM      1  O   UNL     1      31.621 -22.427 -16.904  0.00  0.00    -0.270 OA
ATOM      2  O   UNL     1      32.003 -25.578 -13.606  0.00  0.00    -0.270 OA
ATOM      3  N   UNL     1      31.420 -24.035 -15.240  0.00  0.00    -0.248 N 
ATOM      4  C   UNL     1      33.536 -23.404 -15.815  0.00  0.00    +0.059 C 
ATOM      5  C   UNL     1      33.647 -24.322 -14.838  0.00  0.00    +0.059 C 
ATOM      6  C   UNL     1      32.089 -23.202 -16.087  0.00  0.00    +0.252 C 
ATOM      7  C   UNL     1      32.277 -24.746 -14.454  0.00  0.00    +0.252 C 
ATOM      8  H   UNL     1      30.439 -24.113 -15.201  0.00  0.00    +0.158 HD
ENDROOT
BRANCH   4  10
ATOM      9  N   UNL     1      36.535 -21.778 -16.970  0.00  0.00    -0.284 N 
ATOM     10  C   UNL     1      34.558 -22.684 -16.508  0.00  0.00    +0.021 C 
ATOM     11  C   UNL     1      34.464 -22.018 -17.765  0.00  0.00    +0.015 C 
ATOM     12  C   UNL     1      35.717 -21.460 -18.031  0.00  0.00    +0.053 C 
ATOM     13  C   UNL     1      35.845 -22.516 -16.046  0.00  0.00    +0.066 C 
ATOM     14  C   UNL     1      33.429 -21.839 -18.704  0.00  0.00    +0.003 C 
ATOM     15  C   UNL     1      35.987 -20.730 -19.193  0.00  0.00    +0.039 C 
ATOM     16  C   UNL     1      37.925 -21.396 -16.836  0.00  0.00    +0.117 C 
ATOM     17  C   UNL     1      34.945 -20.564 -20.110  0.00  0.00    +0.144 C 
ATOM     18  C   UNL     1      33.686 -21.110 -19.872  0.00  0.00    +0.024 C 
BRANCH  17  21
ATOM     19  O   UNL     1      36.238 -19.171 -21.415  0.00  0.00    -0.126 OA
ATOM     20  O   UNL     1      34.309 -19.854 -22.209  0.00  0.00    -0.126 OA
ATOM     21  N   UNL     1      35.176 -19.827 -21.302  0.00  0.00    +0.058 N 
ENDBRANCH  17  21
ENDBRANCH   4  10
BRANCH   5  23
ATOM     22  N   UNL     1      36.651 -26.094 -13.952  0.00  0.00    -0.284 N 
ATOM     23  C   UNL     1      34.822 -24.869 -14.232  0.00  0.00    +0.021 C 
ATOM     24  C   UNL     1      35.371 -24.562 -12.957  0.00  0.00    +0.015 C 
ATOM     25  C   UNL     1      36.518 -25.344 -12.806  0.00  0.00    +0.052 C 
ATOM     26  C   UNL     1      35.631 -25.815 -14.820  0.00  0.00    +0.066 C 
ATOM     27  C   UNL     1      35.001 -23.690 -11.913  0.00  0.00    +0.001 C 
ATOM     28  C   UNL     1      37.317 -25.298 -11.657  0.00  0.00    +0.015 C 
ATOM     29  C   UNL     1      37.707 -27.048 -14.215  0.00  0.00    +0.117 C 
ATOM     30  C   UNL     1      35.791 -23.635 -10.759  0.00  0.00    +0.000 C 
ATOM     31  C   UNL     1      36.931 -24.427 -10.635  0.00  0.00    +0.001 C 
ENDBRANCH   5  23
TORSDOF 3
ENDMDL
MODEL 4
REMARK VINA RESULT:     -10.3      2.249      5.188
REMARK  Name = 5327686
REMARK  3 active torsions:
REMARK  status: ('A' for Active; 'I' for Inactive)
REMARK    1  A    between atoms: C_4  and  C_10
REMARK    2  A    between atoms: C_5  and  C_23
REMARK    3  A    between atoms: C_17  and  N_21
REMARK                            x       y       z     vdW  Elec       q    Type
REMARK                         _______ _______ _______ _____ _____    ______ ____
ROOT
ATOM      1  O   UNL     1      33.459 -22.295 -18.168  0.00  0.00    -0.270 OA
ATOM      2  O   UNL     1      37.771 -22.188 -16.634  0.00  0.00    -0.270 OA
ATOM      3  N   UNL     1      35.732 -22.076 -17.739  0.00  0.00    -0.248 N 
ATOM      4  C   UNL     1      34.452 -22.993 -16.087  0.00  0.00    +0.059 C 
ATOM      5  C   UNL     1      35.721 -22.971 -15.641  0.00  0.00    +0.059 C 
ATOM      6  C   UNL     1      34.442 -22.416 -17.455  0.00  0.00    +0.252 C 
ATOM      7  C   UNL     1      36.567 -22.374 -16.705  0.00  0.00    +0.252 C 
ATOM      8  H   UNL     1      36.023 -21.667 -18.586  0.00  0.00    +0.158 HD
ENDROOT
BRANCH   4  10
ATOM      9  N   UNL     1      31.961 -24.560 -14.012  0.00  0.00    -0.284 N 
ATOM     10  C   UNL     1      33.270 -23.481 -15.447  0.00  0.00    +0.021 C 
ATOM     11  C   UNL     1      31.914 -23.231 -15.803  0.00  0.00    +0.015 C 
ATOM     12  C   UNL     1      31.114 -23.918 -14.886  0.00  0.00    +0.053 C 
ATOM     13  C   UNL     1      33.264 -24.303 -14.341  0.00  0.00    +0.066 C 
ATOM     14  C   UNL     1      31.288 -22.482 -16.819  0.00  0.00    +0.003 C 
ATOM     15  C   UNL     1      29.716 -23.894 -14.937  0.00  0.00    +0.039 C 
ATOM     16  C   UNL     1      31.549 -25.390 -12.899  0.00  0.00    +0.117 C 
ATOM     17  C   UNL     1      29.118 -23.145 -15.954  0.00  0.00    +0.144 C 
ATOM     18  C   UNL     1      29.890 -22.448 -16.881  0.00  0.00    +0.024 C 
BRANCH  17  21
ATOM     19  O   UNL     1      27.153 -23.327 -17.147  0.00  0.00    -0.126 OA
ATOM     20  O   UNL     1      27.038 -22.817 -15.015  0.00  0.00    -0.126 OA
ATOM     21  N   UNL     1      27.701 -23.094 -16.043  0.00  0.00    +0.058 N 
ENDBRANCH  17  21
ENDBRANCH   4  10
BRANCH   5  23
ATOM     22  N   UNL     1      36.969 -23.326 -12.284  0.00  0.00    -0.284 N 
ATOM     23  C   UNL     1      36.251 -23.400 -14.383  0.00  0.00    +0.021 C 
ATOM     24  C   UNL     1      36.658 -24.709 -14.007  0.00  0.00    +0.015 C 
ATOM     25  C   UNL     1      37.104 -24.636 -12.685  0.00  0.00    +0.052 C 
ATOM     26  C   UNL     1      36.455 -22.571 -13.303  0.00  0.00    +0.066 C 
ATOM     27  C   UNL     1      36.688 -25.955 -14.665  0.00  0.00    +0.001 C 
ATOM     28  C   UNL     1      37.582 -25.751 -11.986  0.00  0.00    +0.015 C 
ATOM     29  C   UNL     1      37.320 -22.806 -10.981  0.00  0.00    +0.117 C 
ATOM     30  C   UNL     1      37.164 -27.078 -13.978  0.00  0.00    +0.000 C 
ATOM     31  C   UNL     1      37.603 -26.976 -12.659  0.00  0.00    +0.001 C 
ENDBRANCH   5  23
TORSDOF 3
ENDMDL
MODEL 5
REMARK VINA RESULT:     -10.0     10.618     15.267
REMARK  Name = 5327686
REMARK  3 active torsions:
REMARK  status: ('A' for Active; 'I' for Inactive)
REMARK    1  A    between atoms: C_4  and  C_10
REMARK    2  A    between atoms: C_5  and  C_23
REMARK    3  A    between atoms: C_17  and  N_21
REMARK                            x       y       z     vdW  Elec       q    Type
REMARK                         _______ _______ _______ _____ _____    ______ ____
ROOT
ATOM      1  O   UNL     1      32.205 -12.373 -18.813  0.00  0.00    -0.270 OA
ATOM      2  O   UNL     1      31.351  -7.912 -19.389  0.00  0.00    -0.270 OA
ATOM      3  N   UNL     1      31.692 -10.109 -18.718  0.00  0.00    -0.248 N 
ATOM      4  C   UNL     1      32.307 -10.944 -20.751  0.00  0.00    +0.059 C 
ATOM      5  C   UNL     1      32.045  -9.636 -20.922  0.00  0.00    +0.059 C 
ATOM      6  C   UNL     1      32.077 -11.270 -19.320  0.00  0.00    +0.252 C 
ATOM      7  C   UNL     1      31.645  -9.076 -19.606  0.00  0.00    +0.252 C 
ATOM      8  H   UNL     1      31.473 -10.028 -17.761  0.00  0.00    +0.158 HD
ENDROOT
BRANCH   4  10
ATOM      9  N   UNL     1      33.021 -12.940 -23.662  0.00  0.00    -0.284 N 
ATOM     10  C   UNL     1      32.712 -11.925 -21.709  0.00  0.00    +0.021 C 
ATOM     11  C   UNL     1      33.389 -13.155 -21.473  0.00  0.00    +0.015 C 
ATOM     12  C   UNL     1      33.571 -13.771 -22.713  0.00  0.00    +0.053 C 
ATOM     13  C   UNL     1      32.500 -11.823 -23.067  0.00  0.00    +0.066 C 
ATOM     14  C   UNL     1      33.867 -13.805 -20.317  0.00  0.00    +0.003 C 
ATOM     15  C   UNL     1      34.209 -15.008 -22.856  0.00  0.00    +0.039 C 
ATOM     16  C   UNL     1      32.990 -13.194 -25.087  0.00  0.00    +0.117 C 
ATOM     17  C   UNL     1      34.674 -15.634 -21.696  0.00  0.00    +0.144 C 
ATOM     18  C   UNL     1      34.508 -15.043 -20.445  0.00  0.00    +0.024 C 
BRANCH  17  21
ATOM     19  O   UNL     1      35.684 -17.475 -20.744  0.00  0.00    -0.126 OA
ATOM     20  O   UNL     1      35.526 -17.384 -22.932  0.00  0.00    -0.126 OA
ATOM     21  N   UNL     1      35.326 -16.892 -21.795  0.00  0.00    +0.058 N 
ENDBRANCH  17  21
ENDBRANCH   4  10
BRANCH   5  23
ATOM     22  N   UNL     1      31.539  -7.831 -23.993  0.00  0.00    -0.284 N 
ATOM     23  C   UNL     1      32.129  -8.838 -22.106  0.00  0.00    +0.021 C 
ATOM     24  C   UNL     1      33.251  -8.112 -22.592  0.00  0.00    +0.015 C 
ATOM     25  C   UNL     1      32.854  -7.488 -23.777  0.00  0.00    +0.052 C 
ATOM     26  C   UNL     1      31.091  -8.647 -22.990  0.00  0.00    +0.066 C 
ATOM     27  C   UNL     1      34.571  -7.922 -22.135  0.00  0.00    +0.001 C 
ATOM     28  C   UNL     1      33.715  -6.683 -24.532  0.00  0.00    +0.015 C 
ATOM     29  C   UNL     1      30.733  -7.404 -25.117  0.00  0.00    +0.117 C 
ATOM     30  C   UNL     1      35.443  -7.120 -22.880  0.00  0.00    +0.000 C 
ATOM     31  C   UNL     1      35.019  -6.510 -24.060  0.00  0.00    +0.001 C 
ENDBRANCH   5  23
TORSDOF 3
ENDMDL
MODEL 6
REMARK VINA RESULT:     -10.0      2.825      6.141
REMARK  Name = 5327686
REMARK  3 active torsions:
REMARK  status: ('A' for Active; 'I' for Inactive)
REMARK    1  A    between atoms: C_4  and  C_10
REMARK    2  A    between atoms: C_5  and  C_23
REMARK    3  A    between atoms: C_17  and  N_21
REMARK                            x       y       z     vdW  Elec       q    Type
REMARK                         _______ _______ _______ _____ _____    ______ ____
ROOT
ATOM      1  O   UNL     1      32.468 -25.302 -12.105  0.00  0.00    -0.270 OA
ATOM      2  O   UNL     1      30.992 -23.991 -16.235  0.00  0.00    -0.270 OA
ATOM      3  N   UNL     1      31.367 -24.771 -14.080  0.00  0.00    -0.248 N 
ATOM      4  C   UNL     1      33.588 -24.261 -13.967  0.00  0.00    +0.059 C 
ATOM      5  C   UNL     1      33.157 -23.886 -15.185  0.00  0.00    +0.059 C 
ATOM      6  C   UNL     1      32.435 -24.844 -13.235  0.00  0.00    +0.252 C 
ATOM      7  C   UNL     1      31.710 -24.209 -15.273  0.00  0.00    +0.252 C 
ATOM      8  H   UNL     1      30.461 -25.086 -13.857  0.00  0.00    +0.158 HD
ENDROOT
BRANCH   4  10
ATOM      9  N   UNL     1      36.560 -23.586 -12.047  0.00  0.00    -0.284 N 
ATOM     10  C   UNL     1      34.898 -24.178 -13.399  0.00  0.00    +0.021 C 
ATOM     11  C   UNL     1      36.086 -24.834 -13.835  0.00  0.00    +0.015 C 
ATOM     12  C   UNL     1      37.112 -24.446 -12.969  0.00  0.00    +0.053 C 
ATOM     13  C   UNL     1      35.225 -23.417 -12.298  0.00  0.00    +0.066 C 
ATOM     14  C   UNL     1      36.385 -25.724 -14.885  0.00  0.00    +0.003 C 
ATOM     15  C   UNL     1      38.426 -24.906 -13.103  0.00  0.00    +0.039 C 
ATOM     16  C   UNL     1      37.274 -22.945 -10.963  0.00  0.00    +0.117 C 
ATOM     17  C   UNL     1      38.700 -25.788 -14.152  0.00  0.00    +0.144 C 
ATOM     18  C   UNL     1      37.697 -26.193 -15.030  0.00  0.00    +0.024 C 
BRANCH  17  21
ATOM     19  O   UNL     1      40.621 -26.770 -13.340  0.00  0.00    -0.126 OA
ATOM     20  O   UNL     1      40.553 -26.204 -15.459  0.00  0.00    -0.126 OA
ATOM     21  N   UNL     1      40.022 -26.278 -14.325  0.00  0.00    +0.058 N 
ENDBRANCH  17  21
ENDBRANCH   4  10
BRANCH   5  23
ATOM     22  N   UNL     1      34.389 -22.559 -18.294  0.00  0.00    -0.284 N 
ATOM     23  C   UNL     1      33.875 -23.264 -16.253  0.00  0.00    +0.021 C 
ATOM     24  C   UNL     1      35.118 -22.576 -16.186  0.00  0.00    +0.015 C 
ATOM     25  C   UNL     1      35.418 -22.143 -17.480  0.00  0.00    +0.052 C 
ATOM     26  C   UNL     1      33.452 -23.238 -17.562  0.00  0.00    +0.066 C 
ATOM     27  C   UNL     1      36.020 -22.277 -15.145  0.00  0.00    +0.001 C 
ATOM     28  C   UNL     1      36.579 -21.425 -17.786  0.00  0.00    +0.015 C 
ATOM     29  C   UNL     1      34.298 -22.326 -19.719  0.00  0.00    +0.117 C 
ATOM     30  C   UNL     1      37.186 -21.560 -15.437  0.00  0.00    +0.000 C 
ATOM     31  C   UNL     1      37.459 -21.141 -16.737  0.00  0.00    +0.001 C 
ENDBRANCH   5  23
TORSDOF 3
ENDMDL
MODEL 7
REMARK VINA RESULT:      -9.4     16.770     21.271
REMARK  Name = 5327686
REMARK  3 active torsions:
REMARK  status: ('A' for Active; 'I' for Inactive)
REMARK    1  A    between atoms: C_4  and  C_10
REMARK    2  A    between atoms: C_5  and  C_23
REMARK    3  A    between atoms: C_17  and  N_21
REMARK                            x       y       z     vdW  Elec       q    Type
REMARK                         _______ _______ _______ _____ _____    ______ ____
ROOT
ATOM      1  O   UNL     1      29.527  -2.797 -24.298  0.00  0.00    -0.270 OA
ATOM      2  O   UNL     1      31.871  -1.935 -28.135  0.00  0.00    -0.270 OA
ATOM      3  N   UNL     1      30.432  -2.096 -26.320  0.00  0.00    -0.248 N 
ATOM      4  C   UNL     1      31.578  -3.704 -25.179  0.00  0.00    +0.059 C 
ATOM      5  C   UNL     1      32.261  -3.459 -26.312  0.00  0.00    +0.059 C 
ATOM      6  C   UNL     1      30.380  -2.827 -25.171  0.00  0.00    +0.252 C 
ATOM      7  C   UNL     1      31.528  -2.410 -27.066  0.00  0.00    +0.252 C 
ATOM      8  H   UNL     1      29.759  -1.425 -26.580  0.00  0.00    +0.158 HD
ENDROOT
BRANCH   4  10
ATOM      9  N   UNL     1      32.328  -5.430 -22.108  0.00  0.00    -0.284 N 
ATOM     10  C   UNL     1      31.860  -4.634 -24.129  0.00  0.00    +0.021 C 
ATOM     11  C   UNL     1      31.946  -6.054 -24.215  0.00  0.00    +0.015 C 
ATOM     12  C   UNL     1      32.240  -6.527 -22.934  0.00  0.00    +0.053 C 
ATOM     13  C   UNL     1      32.101  -4.283 -22.819  0.00  0.00    +0.066 C 
ATOM     14  C   UNL     1      31.800  -6.983 -25.264  0.00  0.00    +0.003 C 
ATOM     15  C   UNL     1      32.395  -7.888 -22.649  0.00  0.00    +0.039 C 
ATOM     16  C   UNL     1      32.618  -5.467 -20.690  0.00  0.00    +0.117 C 
ATOM     17  C   UNL     1      32.247  -8.791 -23.705  0.00  0.00    +0.144 C 
ATOM     18  C   UNL     1      31.953  -8.348 -24.993  0.00  0.00    +0.024 C 
BRANCH  17  21
ATOM     19  O   UNL     1      31.635 -10.741 -22.638  0.00  0.00    -0.126 OA
ATOM     20  O   UNL     1      33.292 -10.813 -24.075  0.00  0.00    -0.126 OA
ATOM     21  N   UNL     1      32.399 -10.183 -23.461  0.00  0.00    +0.058 N 
ENDBRANCH  17  21
ENDBRANCH   4  10
BRANCH   5  23
ATOM     22  N   UNL     1      35.652  -4.486 -26.943  0.00  0.00    -0.284 N 
ATOM     23  C   UNL     1      33.485  -4.032 -26.779  0.00  0.00    +0.021 C 
ATOM     24  C   UNL     1      33.666  -4.959 -27.842  0.00  0.00    +0.015 C 
ATOM     25  C   UNL     1      35.034  -5.228 -27.924  0.00  0.00    +0.052 C 
ATOM     26  C   UNL     1      34.724  -3.759 -26.246  0.00  0.00    +0.066 C 
ATOM     27  C   UNL     1      32.794  -5.599 -28.746  0.00  0.00    +0.001 C 
ATOM     28  C   UNL     1      35.576  -6.107 -28.869  0.00  0.00    +0.015 C 
ATOM     29  C   UNL     1      37.074  -4.461 -26.677  0.00  0.00    +0.117 C 
ATOM     30  C   UNL     1      33.322  -6.481 -29.696  0.00  0.00    +0.000 C 
ATOM     31  C   UNL     1      34.692  -6.729 -29.754  0.00  0.00    +0.001 C 
ENDBRANCH   5  23
TORSDOF 3
ENDMDL
MODEL 8
REMARK VINA RESULT:      -9.2     10.761     15.500
REMARK  Name = 5327686
REMARK  3 active torsions:
REMARK  status: ('A' for Active; 'I' for Inactive)
REMARK    1  A    between atoms: C_4  and  C_10
REMARK    2  A    between atoms: C_5  and  C_23
REMARK    3  A    between atoms: C_17  and  N_21
REMARK                            x       y       z     vdW  Elec       q    Type
REMARK                         _______ _______ _______ _____ _____    ______ ____
ROOT
ATOM      1  O   UNL     1      31.558 -12.355 -19.273  0.00  0.00    -0.270 OA
ATOM      2  O   UNL     1      31.672  -7.799 -19.708  0.00  0.00    -0.270 OA
ATOM      3  N   UNL     1      31.451 -10.038 -19.134  0.00  0.00    -0.248 N 
ATOM      4  C   UNL     1      32.353 -10.918 -21.036  0.00  0.00    +0.059 C 
ATOM      5  C   UNL     1      32.376  -9.580 -21.169  0.00  0.00    +0.059 C 
ATOM      6  C   UNL     1      31.749 -11.234 -19.717  0.00  0.00    +0.252 C 
ATOM      7  C   UNL     1      31.795  -8.991 -19.936  0.00  0.00    +0.252 C 
ATOM      8  H   UNL     1      31.038  -9.943 -18.245  0.00  0.00    +0.158 HD
ENDROOT
BRANCH   4  10
ATOM      9  N   UNL     1      33.152 -13.010 -23.858  0.00  0.00    -0.284 N 
ATOM     10  C   UNL     1      32.784 -11.931 -21.949  0.00  0.00    +0.021 C 
ATOM     11  C   UNL     1      33.444 -13.158 -21.651  0.00  0.00    +0.015 C 
ATOM     12  C   UNL     1      33.664 -13.814 -22.865  0.00  0.00    +0.053 C 
ATOM     13  C   UNL     1      32.619 -11.871 -23.316  0.00  0.00    +0.066 C 
ATOM     14  C   UNL     1      33.879 -13.773 -20.460  0.00  0.00    +0.003 C 
ATOM     15  C   UNL     1      34.298 -15.058 -22.946  0.00  0.00    +0.039 C 
ATOM     16  C   UNL     1      33.168 -13.309 -25.274  0.00  0.00    +0.117 C 
ATOM     17  C   UNL     1      34.719 -15.650 -21.752  0.00  0.00    +0.144 C 
ATOM     18  C   UNL     1      34.515 -15.018 -20.527  0.00  0.00    +0.024 C 
BRANCH  17  21
ATOM     19  O   UNL     1      35.615 -17.436 -22.902  0.00  0.00    -0.126 OA
ATOM     20  O   UNL     1      35.668 -17.473 -20.708  0.00  0.00    -0.126 OA
ATOM     21  N   UNL     1      35.365 -16.914 -21.789  0.00  0.00    +0.058 N 
ENDBRANCH  17  21
ENDBRANCH   4  10
BRANCH   5  23
ATOM     22  N   UNL     1      34.280  -7.878 -23.704  0.00  0.00    -0.284 N 
ATOM     23  C   UNL     1      32.870  -8.780 -22.247  0.00  0.00    +0.021 C 
ATOM     24  C   UNL     1      32.138  -7.894 -23.084  0.00  0.00    +0.015 C 
ATOM     25  C   UNL     1      33.046  -7.341 -23.990  0.00  0.00    +0.052 C 
ATOM     26  C   UNL     1      34.185  -8.748 -22.652  0.00  0.00    +0.066 C 
ATOM     27  C   UNL     1      30.784  -7.509 -23.160  0.00  0.00    +0.001 C 
ATOM     28  C   UNL     1      32.667  -6.417 -24.971  0.00  0.00    +0.015 C 
ATOM     29  C   UNL     1      35.512  -7.573 -24.400  0.00  0.00    +0.117 C 
ATOM     30  C   UNL     1      30.391  -6.586 -24.136  0.00  0.00    +0.000 C 
ATOM     31  C   UNL     1      31.320  -6.050 -25.027  0.00  0.00    +0.001 C 
ENDBRANCH   5  23
TORSDOF 3
ENDMDL
MODEL 9
REMARK VINA RESULT:      -9.1     10.811     14.595
REMARK  Name = 5327686
REMARK  3 active torsions:
REMARK  status: ('A' for Active; 'I' for Inactive)
REMARK    1  A    between atoms: C_4  and  C_10
REMARK    2  A    between atoms: C_5  and  C_23
REMARK    3  A    between atoms: C_17  and  N_21
REMARK                            x       y       z     vdW  Elec       q    Type
REMARK                         _______ _______ _______ _____ _____    ______ ____
ROOT
ATOM      1  O   UNL     1      31.792  -9.737 -19.590  0.00  0.00    -0.270 OA
ATOM      2  O   UNL     1      31.686 -14.297 -19.988  0.00  0.00    -0.270 OA
ATOM      3  N   UNL     1      31.566 -12.044 -19.436  0.00  0.00    -0.248 N 
ATOM      4  C   UNL     1      32.526 -11.225 -21.337  0.00  0.00    +0.059 C 
ATOM      5  C   UNL     1      32.505 -12.566 -21.449  0.00  0.00    +0.059 C 
ATOM      6  C   UNL     1      31.921 -10.869 -20.029  0.00  0.00    +0.252 C 
ATOM      7  C   UNL     1      31.879 -13.115 -20.219  0.00  0.00    +0.252 C 
ATOM      8  H   UNL     1      31.137 -12.111 -18.552  0.00  0.00    +0.158 HD
ENDROOT
BRANCH   4  10
ATOM      9  N   UNL     1      34.433  -9.177 -23.605  0.00  0.00    -0.284 N 
ATOM     10  C   UNL     1      33.037 -10.244 -22.244  0.00  0.00    +0.021 C 
ATOM     11  C   UNL     1      32.374  -9.089 -22.750  0.00  0.00    +0.015 C 
ATOM     12  C   UNL     1      33.271  -8.439 -23.601  0.00  0.00    +0.053 C 
ATOM     13  C   UNL     1      34.302 -10.269 -22.789  0.00  0.00    +0.066 C 
ATOM     14  C   UNL     1      31.092  -8.534 -22.565  0.00  0.00    +0.003 C 
ATOM     15  C   UNL     1      32.949  -7.258 -24.278  0.00  0.00    +0.039 C 
ATOM     16  C   UNL     1      35.628  -8.860 -24.357  0.00  0.00    +0.117 C 
ATOM     17  C   UNL     1      31.672  -6.726 -24.079  0.00  0.00    +0.144 C 
ATOM     18  C   UNL     1      30.756  -7.353 -23.237  0.00  0.00    +0.024 C 
BRANCH  17  21
ATOM     19  O   UNL     1      31.954  -5.169 -25.756  0.00  0.00    -0.126 OA
ATOM     20  O   UNL     1      30.337  -4.859 -24.305  0.00  0.00    -0.126 OA
ATOM     21  N   UNL     1      31.303  -5.527 -24.746  0.00  0.00    +0.058 N 
ENDBRANCH  17  21
ENDBRANCH   4  10
BRANCH   5  23
ATOM     22  N   UNL     1      33.212 -14.205 -24.573  0.00  0.00    -0.284 N 
ATOM     23  C   UNL     1      32.956 -13.397 -22.522  0.00  0.00    +0.021 C 
ATOM     24  C   UNL     1      33.834 -14.513 -22.453  0.00  0.00    +0.015 C 
ATOM     25  C   UNL     1      33.979 -15.002 -23.754  0.00  0.00    +0.052 C 
ATOM     26  C   UNL     1      32.589 -13.233 -23.839  0.00  0.00    +0.066 C 
ATOM     27  C   UNL     1      34.524 -15.156 -21.406  0.00  0.00    +0.001 C 
ATOM     28  C   UNL     1      34.782 -16.107 -24.061  0.00  0.00    +0.015 C 
ATOM     29  C   UNL     1      33.070 -14.362 -26.005  0.00  0.00    +0.117 C 
ATOM     30  C   UNL     1      35.330 -16.263 -21.699  0.00  0.00    +0.000 C 
ATOM     31  C   UNL     1      35.456 -16.729 -23.006  0.00  0.00    +0.001 C 
ENDBRANCH   5  23
TORSDOF 3
ENDMDL
