MODEL 1
REMARK VINA RESULT:     -10.7      0.000      0.000
REMARK  Name = 4257
REMARK  4 active torsions:
REMARK  status: ('A' for Active; 'I' for Inactive)
REMARK    1  A    between atoms: C_1  and  N_5
REMARK    2  A    between atoms: C_1  and  C_20
REMARK    3  A    between atoms: C_20  and  C_21
REMARK    4  A    between atoms: C_21  and  N_23
REMARK                            x       y       z     vdW  Elec       q    Type
REMARK                         _______ _______ _______ _____ _____    ______ ____
ROOT
ATOM      1  C   UNL     1      34.958 -22.035 -18.974  0.00  0.00    -0.076 C 
ENDROOT
BRANCH   1   5
ATOM      2  O   UNL     1      34.842 -20.029 -23.173  0.00  0.00    -0.277 OA
ATOM      3  N   UNL     1      34.599 -16.952 -21.553  0.00  0.00    +0.407 N 
ATOM      4  N   UNL     1      35.282 -17.766 -23.535  0.00  0.00    -0.326 N 
ATOM      5  N   UNL     1      34.858 -20.641 -19.408  0.00  0.00    +0.387 N 
ATOM      6  C   UNL     1      34.778 -18.392 -21.313  0.00  0.00    +0.027 C 
ATOM      7  C   UNL     1      35.405 -16.604 -22.719  0.00  0.00    +0.018 C 
ATOM      8  C   UNL     1      33.511 -18.985 -20.675  0.00  0.00    -0.033 C 
ATOM      9  C   UNL     1      36.029 -18.749 -20.488  0.00  0.00    -0.033 C 
ATOM     10  C   UNL     1      34.772 -15.994 -20.473  0.00  0.00    -0.074 C 
ATOM     11  C   UNL     1      34.949 -18.882 -22.768  0.00  0.00    +0.203 C 
ATOM     12  C   UNL     1      34.885 -15.313 -23.330  0.00  0.00    -0.002 C 
ATOM     13  C   UNL     1      33.674 -20.451 -20.256  0.00  0.00    -0.079 C 
ATOM     14  C   UNL     1      36.080 -20.235 -20.113  0.00  0.00    -0.079 C 
ATOM     15  C   UNL     1      34.287 -14.621 -20.963  0.00  0.00    -0.023 C 
ATOM     16  C   UNL     1      34.946 -14.197 -22.282  0.00  0.00    -0.003 C 
ATOM     17  H   UNL     1      33.593 -16.847 -21.688  0.00  0.00    -0.076 HD
ATOM     18  H   UNL     1      35.415 -17.779 -24.510  0.00  0.00    +0.147 HD
ATOM     19  H   UNL     1      34.756 -20.048 -18.585  0.00  0.00    -0.080 HD
ENDBRANCH   1   5
BRANCH   1  20
ATOM     20  C   UNL     1      33.655 -22.530 -18.337  0.00  0.00    -0.001 C 
BRANCH  20  21
ATOM     21  C   UNL     1      33.797 -23.804 -17.505  0.00  0.00    +0.093 C 
BRANCH  21  23
ATOM     22 CL   UNL     1      38.297 -21.380 -15.946  0.00  0.00    -0.082 Cl
ATOM     23  N   UNL     1      33.601 -23.517 -16.075  0.00  0.00    -0.287 N 
ATOM     24  C   UNL     1      34.810 -23.314 -15.360  0.00  0.00    +0.048 C 
ATOM     25  C   UNL     1      32.268 -23.333 -15.616  0.00  0.00    +0.048 C 
ATOM     26  C   UNL     1      35.021 -23.882 -14.092  0.00  0.00    -0.008 C 
ATOM     27  C   UNL     1      31.867 -23.453 -14.264  0.00  0.00    -0.008 C 
ATOM     28  C   UNL     1      33.956 -24.726 -13.454  0.00  0.00    +0.032 C 
ATOM     29  C   UNL     1      32.753 -23.863 -13.106  0.00  0.00    +0.032 C 
ATOM     30  C   UNL     1      35.851 -22.538 -15.912  0.00  0.00    +0.026 C 
ATOM     31  C   UNL     1      31.258 -22.959 -16.544  0.00  0.00    +0.015 C 
ATOM     32  C   UNL     1      36.235 -23.674 -13.414  0.00  0.00    -0.002 C 
ATOM     33  C   UNL     1      30.526 -23.170 -13.900  0.00  0.00    -0.003 C 
ATOM     34  C   UNL     1      37.054 -22.333 -15.232  0.00  0.00    +0.059 C 
ATOM     35  C   UNL     1      29.936 -22.704 -16.169  0.00  0.00    +0.001 C 
ATOM     36  C   UNL     1      37.246 -22.903 -13.981  0.00  0.00    +0.011 C 
ATOM     37  C   UNL     1      29.570 -22.806 -14.840  0.00  0.00    -0.000 C 
ENDBRANCH  21  23
ENDBRANCH  20  21
ENDBRANCH   1  20
TORSDOF 4
ENDMDL
MODEL 2
REMARK VINA RESULT:     -10.5      8.063     12.246
REMARK  Name = 4257
REMARK  4 active torsions:
REMARK  status: ('A' for Active; 'I' for Inactive)
REMARK    1  A    between atoms: C_1  and  N_5
REMARK    2  A    between atoms: C_1  and  C_20
REMARK    3  A    between atoms: C_20  and  C_21
REMARK    4  A    between atoms: C_21  and  N_23
REMARK                            x       y       z     vdW  Elec       q    Type
REMARK                         _______ _______ _______ _____ _____    ______ ____
ROOT
ATOM      1  C   UNL     1      34.589 -10.572 -23.831  0.00  0.00    -0.076 C 
ENDROOT
BRANCH   1   5
ATOM      2  O   UNL     1      33.559  -7.381 -20.603  0.00  0.00    -0.277 OA
ATOM      3  N   UNL     1      32.678  -5.227 -23.199  0.00  0.00    +0.407 N 
ATOM      4  N   UNL     1      32.223  -5.512 -21.015  0.00  0.00    -0.326 N 
ATOM      5  N   UNL     1      34.087  -9.199 -23.913  0.00  0.00    +0.387 N 
ATOM      6  C   UNL     1      33.110  -6.604 -22.913  0.00  0.00    +0.027 C 
ATOM      7  C   UNL     1      31.710  -4.856 -22.171  0.00  0.00    +0.018 C 
ATOM      8  C   UNL     1      34.554  -6.818 -23.394  0.00  0.00    -0.033 C 
ATOM      9  C   UNL     1      32.175  -7.694 -23.473  0.00  0.00    -0.033 C 
ATOM     10  C   UNL     1      32.221  -4.855 -24.528  0.00  0.00    -0.074 C 
ATOM     11  C   UNL     1      33.034  -6.588 -21.370  0.00  0.00    +0.203 C 
ATOM     12  C   UNL     1      31.619  -3.341 -22.082  0.00  0.00    -0.002 C 
ATOM     13  C   UNL     1      35.025  -8.271 -23.269  0.00  0.00    -0.079 C 
ATOM     14  C   UNL     1      32.754  -9.104 -23.308  0.00  0.00    -0.079 C 
ATOM     15  C   UNL     1      32.075  -3.327 -24.578  0.00  0.00    -0.023 C 
ATOM     16  C   UNL     1      31.200  -2.778 -23.444  0.00  0.00    -0.003 C 
ATOM     17  H   UNL     1      33.542  -4.687 -23.179  0.00  0.00    -0.076 HD
ATOM     18  H   UNL     1      32.029  -5.241 -20.089  0.00  0.00    +0.147 HD
ATOM     19  H   UNL     1      34.008  -8.938 -24.895  0.00  0.00    -0.080 HD
ENDBRANCH   1   5
BRANCH   1  20
ATOM     20  C   UNL     1      33.450 -11.597 -23.816  0.00  0.00    -0.001 C 
BRANCH  20  21
ATOM     21  C   UNL     1      33.872 -13.022 -24.173  0.00  0.00    +0.093 C 
BRANCH  21  23
ATOM     22 CL   UNL     1      29.889 -11.066 -21.194  0.00  0.00    -0.082 Cl
ATOM     23  N   UNL     1      33.817 -13.893 -22.988  0.00  0.00    -0.287 N 
ATOM     24  C   UNL     1      33.176 -13.300 -21.870  0.00  0.00    +0.048 C 
ATOM     25  C   UNL     1      34.264 -15.235 -23.135  0.00  0.00    +0.048 C 
ATOM     26  C   UNL     1      33.702 -13.413 -20.572  0.00  0.00    -0.008 C 
ATOM     27  C   UNL     1      34.656 -16.066 -22.059  0.00  0.00    -0.008 C 
ATOM     28  C   UNL     1      34.971 -14.178 -20.334  0.00  0.00    +0.032 C 
ATOM     29  C   UNL     1      34.741 -15.656 -20.603  0.00  0.00    +0.032 C 
ATOM     30  C   UNL     1      31.984 -12.561 -22.032  0.00  0.00    +0.026 C 
ATOM     31  C   UNL     1      34.283 -15.824 -24.428  0.00  0.00    +0.015 C 
ATOM     32  C   UNL     1      33.049 -12.803 -19.486  0.00  0.00    -0.002 C 
ATOM     33  C   UNL     1      35.008 -17.417 -22.306  0.00  0.00    -0.003 C 
ATOM     34  C   UNL     1      31.340 -11.959 -20.949  0.00  0.00    +0.059 C 
ATOM     35  C   UNL     1      34.654 -17.152 -24.654  0.00  0.00    +0.001 C 
ATOM     36  C   UNL     1      31.875 -12.080 -19.673  0.00  0.00    +0.011 C 
ATOM     37  C   UNL     1      35.013 -17.953 -23.588  0.00  0.00    -0.000 C 
ENDBRANCH  21  23
ENDBRANCH  20  21
ENDBRANCH   1  20
TORSDOF 4
ENDMDL
MODEL 3
REMARK VINA RESULT:     -10.3      9.223     16.042
REMARK  Name = 4257
REMARK  4 active torsions:
REMARK  status: ('A' for Active; 'I' for Inactive)
REMARK    1  A    between atoms: C_1  and  N_5
REMARK    2  A    between atoms: C_1  and  C_20
REMARK    3  A    between atoms: C_20  and  C_21
REMARK    4  A    between atoms: C_21  and  N_23
REMARK                            x       y       z     vdW  Elec       q    Type
REMARK                         _______ _______ _______ _____ _____    ______ ____
ROOT
ATOM      1  C   UNL     1      31.027  -9.090 -22.609  0.00  0.00    -0.076 C 
ENDROOT
BRANCH   1   5
ATOM      2  O   UNL     1      33.295 -12.448 -20.318  0.00  0.00    -0.277 OA
ATOM      3  N   UNL     1      33.391 -14.242 -23.306  0.00  0.00    +0.407 N 
ATOM      4  N   UNL     1      34.535 -14.119 -21.373  0.00  0.00    -0.326 N 
ATOM      5  N   UNL     1      31.562 -10.388 -23.020  0.00  0.00    +0.387 N 
ATOM      6  C   UNL     1      32.990 -12.951 -22.725  0.00  0.00    +0.027 C 
ATOM      7  C   UNL     1      34.671 -14.606 -22.706  0.00  0.00    +0.018 C 
ATOM      8  C   UNL     1      31.457 -12.844 -22.677  0.00  0.00    -0.033 C 
ATOM      9  C   UNL     1      33.606 -11.722 -23.421  0.00  0.00    -0.033 C 
ATOM     10  C   UNL     1      33.396 -14.437 -24.746  0.00  0.00    -0.074 C 
ATOM     11  C   UNL     1      33.582 -13.105 -21.307  0.00  0.00    +0.203 C 
ATOM     12  C   UNL     1      34.887 -16.105 -22.840  0.00  0.00    -0.002 C 
ATOM     13  C   UNL     1      30.960 -11.466 -22.225  0.00  0.00    -0.079 C 
ATOM     14  C   UNL     1      33.024 -10.402 -22.902  0.00  0.00    -0.079 C 
ATOM     15  C   UNL     1      33.618 -15.930 -25.031  0.00  0.00    -0.023 C 
ATOM     16  C   UNL     1      34.859 -16.489 -24.322  0.00  0.00    -0.003 C 
ATOM     17  H   UNL     1      32.621 -14.868 -23.071  0.00  0.00    -0.076 HD
ATOM     18  H   UNL     1      35.047 -14.455 -20.603  0.00  0.00    +0.147 HD
ATOM     19  H   UNL     1      31.323 -10.546 -23.999  0.00  0.00    -0.080 HD
ENDBRANCH   1   5
BRANCH   1  20
ATOM     20  C   UNL     1      30.934  -8.111 -23.784  0.00  0.00    -0.001 C 
BRANCH  20  21
ATOM     21  C   UNL     1      30.893  -6.637 -23.384  0.00  0.00    +0.093 C 
BRANCH  21  23
ATOM     22 CL   UNL     1      28.846  -1.786 -24.294  0.00  0.00    -0.082 Cl
ATOM     23  N   UNL     1      31.970  -5.887 -24.049  0.00  0.00    -0.287 N 
ATOM     24  C   UNL     1      31.514  -4.766 -24.791  0.00  0.00    +0.048 C 
ATOM     25  C   UNL     1      33.310  -6.265 -23.765  0.00  0.00    +0.048 C 
ATOM     26  C   UNL     1      32.013  -4.476 -26.072  0.00  0.00    -0.008 C 
ATOM     27  C   UNL     1      34.419  -5.948 -24.586  0.00  0.00    -0.008 C 
ATOM     28  C   UNL     1      33.059  -5.356 -26.693  0.00  0.00    +0.032 C 
ATOM     29  C   UNL     1      34.363  -5.233 -25.921  0.00  0.00    +0.032 C 
ATOM     30  C   UNL     1      30.526  -3.907 -24.263  0.00  0.00    +0.026 C 
ATOM     31  C   UNL     1      33.595  -6.967 -22.562  0.00  0.00    +0.015 C 
ATOM     32  C   UNL     1      31.532  -3.365 -26.787  0.00  0.00    -0.002 C 
ATOM     33  C   UNL     1      35.727  -6.304 -24.170  0.00  0.00    -0.003 C 
ATOM     34  C   UNL     1      30.053  -2.804 -24.977  0.00  0.00    +0.059 C 
ATOM     35  C   UNL     1      34.890  -7.328 -22.179  0.00  0.00    +0.001 C 
ATOM     36  C   UNL     1      30.557  -2.534 -26.242  0.00  0.00    +0.011 C 
ATOM     37  C   UNL     1      35.961  -6.990 -22.984  0.00  0.00    -0.000 C 
ENDBRANCH  21  23
ENDBRANCH  20  21
ENDBRANCH   1  20
TORSDOF 4
ENDMDL
MODEL 4
REMARK VINA RESULT:     -10.2      1.941      4.190
REMARK  Name = 4257
REMARK  4 active torsions:
REMARK  status: ('A' for Active; 'I' for Inactive)
REMARK    1  A    between atoms: C_1  and  N_5
REMARK    2  A    between atoms: C_1  and  C_20
REMARK    3  A    between atoms: C_20  and  C_21
REMARK    4  A    between atoms: C_21  and  N_23
REMARK                            x       y       z     vdW  Elec       q    Type
REMARK                         _______ _______ _______ _____ _____    ______ ____
ROOT
ATOM      1  C   UNL     1      36.529 -21.831 -18.531  0.00  0.00    -0.076 C 
ENDROOT
BRANCH   1   5
ATOM      2  O   UNL     1      35.361 -20.485 -22.831  0.00  0.00    -0.277 OA
ATOM      3  N   UNL     1      34.842 -17.285 -21.549  0.00  0.00    +0.407 N 
ATOM      4  N   UNL     1      35.321 -18.256 -23.520  0.00  0.00    -0.326 N 
ATOM      5  N   UNL     1      36.111 -20.546 -19.092  0.00  0.00    +0.387 N 
ATOM      6  C   UNL     1      35.313 -18.631 -21.188  0.00  0.00    +0.027 C 
ATOM      7  C   UNL     1      35.368 -16.985 -22.877  0.00  0.00    +0.018 C 
ATOM      8  C   UNL     1      34.297 -19.318 -20.261  0.00  0.00    -0.033 C 
ATOM      9  C   UNL     1      36.728 -18.667 -20.578  0.00  0.00    -0.033 C 
ATOM     10  C   UNL     1      35.018 -16.168 -20.635  0.00  0.00    -0.074 C 
ATOM     11  C   UNL     1      35.326 -19.289 -22.585  0.00  0.00    +0.203 C 
ATOM     12  C   UNL     1      34.531 -15.891 -23.520  0.00  0.00    -0.002 C 
ATOM     13  C   UNL     1      34.788 -20.666 -19.718  0.00  0.00    -0.079 C 
ATOM     14  C   UNL     1      37.105 -20.058 -20.055  0.00  0.00    -0.079 C 
ATOM     15  C   UNL     1      34.220 -14.971 -21.175  0.00  0.00    -0.023 C 
ATOM     16  C   UNL     1      34.564 -14.642 -22.634  0.00  0.00    -0.003 C 
ATOM     17  H   UNL     1      33.826 -17.358 -21.504  0.00  0.00    -0.076 HD
ATOM     18  H   UNL     1      35.291 -18.386 -24.495  0.00  0.00    +0.147 HD
ATOM     19  H   UNL     1      36.042 -19.865 -18.336  0.00  0.00    -0.080 HD
ENDBRANCH   1   5
BRANCH   1  20
ATOM     20  C   UNL     1      35.965 -22.051 -17.124  0.00  0.00    -0.001 C 
BRANCH  20  21
ATOM     21  C   UNL     1      37.013 -22.063 -16.012  0.00  0.00    +0.093 C 
BRANCH  21  23
ATOM     22 CL   UNL     1      31.872 -23.287 -16.801  0.00  0.00    -0.082 Cl
ATOM     23  N   UNL     1      36.716 -23.117 -15.028  0.00  0.00    -0.287 N 
ATOM     24  C   UNL     1      35.333 -23.256 -14.737  0.00  0.00    +0.048 C 
ATOM     25  C   UNL     1      37.790 -23.947 -14.607  0.00  0.00    +0.048 C 
ATOM     26  C   UNL     1      34.870 -23.422 -13.421  0.00  0.00    -0.008 C 
ATOM     27  C   UNL     1      37.786 -24.712 -13.415  0.00  0.00    -0.008 C 
ATOM     28  C   UNL     1      35.840 -23.462 -12.277  0.00  0.00    +0.032 C 
ATOM     29  C   UNL     1      36.693 -24.718 -12.365  0.00  0.00    +0.032 C 
ATOM     30  C   UNL     1      34.373 -23.218 -15.771  0.00  0.00    +0.026 C 
ATOM     31  C   UNL     1      38.936 -24.078 -15.436  0.00  0.00    +0.015 C 
ATOM     32  C   UNL     1      33.493 -23.544 -13.164  0.00  0.00    -0.002 C 
ATOM     33  C   UNL     1      38.876 -25.571 -13.126  0.00  0.00    -0.003 C 
ATOM     34  C   UNL     1      33.007 -23.341 -15.508  0.00  0.00    +0.059 C 
ATOM     35  C   UNL     1      40.011 -24.914 -15.125  0.00  0.00    +0.001 C 
ATOM     36  C   UNL     1      32.567 -23.504 -14.202  0.00  0.00    +0.011 C 
ATOM     37  C   UNL     1      39.978 -25.668 -13.967  0.00  0.00    -0.000 C 
ENDBRANCH  21  23
ENDBRANCH  20  21
ENDBRANCH   1  20
TORSDOF 4
ENDMDL
MODEL 5
REMARK VINA RESULT:     -10.0     12.000     18.592
REMARK  Name = 4257
REMARK  4 active torsions:
REMARK  status: ('A' for Active; 'I' for Inactive)
REMARK    1  A    between atoms: C_1  and  N_5
REMARK    2  A    between atoms: C_1  and  C_20
REMARK    3  A    between atoms: C_20  and  C_21
REMARK    4  A    between atoms: C_21  and  N_23
REMARK                            x       y       z     vdW  Elec       q    Type
REMARK                         _______ _______ _______ _____ _____    ______ ____
ROOT
ATOM      1  C   UNL     1      33.792  -5.496 -25.128  0.00  0.00    -0.076 C 
ENDROOT
BRANCH   1   5
ATOM      2  O   UNL     1      32.634  -5.534 -20.620  0.00  0.00    -0.277 OA
ATOM      3  N   UNL     1      31.942  -8.934 -20.960  0.00  0.00    +0.407 N 
ATOM      4  N   UNL     1      32.501  -7.480 -19.338  0.00  0.00    -0.326 N 
ATOM      5  N   UNL     1      33.323  -6.552 -24.230  0.00  0.00    +0.387 N 
ATOM      6  C   UNL     1      32.471  -7.767 -21.683  0.00  0.00    +0.027 C 
ATOM      7  C   UNL     1      32.476  -8.880 -19.603  0.00  0.00    +0.018 C 
ATOM      8  C   UNL     1      31.474  -7.314 -22.761  0.00  0.00    -0.033 C 
ATOM      9  C   UNL     1      33.875  -7.973 -22.283  0.00  0.00    -0.033 C 
ATOM     10  C   UNL     1      32.050 -10.268 -21.528  0.00  0.00    -0.074 C 
ATOM     11  C   UNL     1      32.538  -6.748 -20.524  0.00  0.00    +0.203 C 
ATOM     12  C   UNL     1      31.599  -9.709 -18.678  0.00  0.00    -0.002 C 
ATOM     13  C   UNL     1      32.018  -6.196 -23.658  0.00  0.00    -0.079 C 
ATOM     14  C   UNL     1      34.309  -6.802 -23.173  0.00  0.00    -0.079 C 
ATOM     15  C   UNL     1      31.205 -11.226 -20.673  0.00  0.00    -0.023 C 
ATOM     16  C   UNL     1      31.558 -11.155 -19.182  0.00  0.00    -0.003 C 
ATOM     17  H   UNL     1      30.930  -8.825 -21.020  0.00  0.00    -0.076 HD
ATOM     18  H   UNL     1      32.493  -7.083 -18.438  0.00  0.00    +0.147 HD
ATOM     19  H   UNL     1      33.210  -7.411 -24.767  0.00  0.00    -0.080 HD
ENDBRANCH   1   5
BRANCH   1  20
ATOM     20  C   UNL     1      35.291  -5.621 -25.424  0.00  0.00    -0.001 C 
BRANCH  20  21
ATOM     21  C   UNL     1      35.863  -4.503 -26.293  0.00  0.00    +0.093 C 
BRANCH  21  23
ATOM     22 CL   UNL     1      31.513  -3.466 -29.218  0.00  0.00    -0.082 Cl
ATOM     23  N   UNL     1      36.181  -5.002 -27.641  0.00  0.00    -0.287 N 
ATOM     24  C   UNL     1      35.037  -5.260 -28.441  0.00  0.00    +0.048 C 
ATOM     25  C   UNL     1      37.548  -5.028 -28.029  0.00  0.00    +0.048 C 
ATOM     26  C   UNL     1      34.935  -6.419 -29.229  0.00  0.00    -0.008 C 
ATOM     27  C   UNL     1      38.063  -5.822 -29.082  0.00  0.00    -0.008 C 
ATOM     28  C   UNL     1      36.050  -7.423 -29.246  0.00  0.00    +0.032 C 
ATOM     29  C   UNL     1      37.278  -6.820 -29.909  0.00  0.00    +0.032 C 
ATOM     30  C   UNL     1      33.953  -4.357 -28.459  0.00  0.00    +0.026 C 
ATOM     31  C   UNL     1      38.475  -4.176 -27.370  0.00  0.00    +0.015 C 
ATOM     32  C   UNL     1      33.783  -6.653 -30.000  0.00  0.00    -0.002 C 
ATOM     33  C   UNL     1      39.430  -5.713 -29.442  0.00  0.00    -0.003 C 
ATOM     34  C   UNL     1      32.812  -4.595 -29.229  0.00  0.00    +0.059 C 
ATOM     35  C   UNL     1      39.825  -4.098 -27.725  0.00  0.00    +0.001 C 
ATOM     36  C   UNL     1      32.728  -5.745 -30.000  0.00  0.00    +0.011 C 
ATOM     37  C   UNL     1      40.302  -4.866 -28.769  0.00  0.00    -0.000 C 
ENDBRANCH  21  23
ENDBRANCH  20  21
ENDBRANCH   1  20
TORSDOF 4
ENDMDL
MODEL 6
REMARK VINA RESULT:      -9.9      8.385     15.695
REMARK  Name = 4257
REMARK  4 active torsions:
REMARK  status: ('A' for Active; 'I' for Inactive)
REMARK    1  A    between atoms: C_1  and  N_5
REMARK    2  A    between atoms: C_1  and  C_20
REMARK    3  A    between atoms: C_20  and  C_21
REMARK    4  A    between atoms: C_21  and  N_23
REMARK                            x       y       z     vdW  Elec       q    Type
REMARK                         _______ _______ _______ _____ _____    ______ ____
ROOT
ATOM      1  C   UNL     1      31.983  -9.395 -23.078  0.00  0.00    -0.076 C 
ENDROOT
BRANCH   1   5
ATOM      2  O   UNL     1      33.848 -12.842 -20.567  0.00  0.00    -0.277 OA
ATOM      3  N   UNL     1      33.653 -14.846 -23.414  0.00  0.00    +0.407 N 
ATOM      4  N   UNL     1      34.842 -14.732 -21.508  0.00  0.00    -0.326 N 
ATOM      5  N   UNL     1      32.339 -10.778 -23.397  0.00  0.00    +0.387 N 
ATOM      6  C   UNL     1      33.433 -13.475 -22.927  0.00  0.00    +0.027 C 
ATOM      7  C   UNL     1      34.888 -15.328 -22.803  0.00  0.00    +0.018 C 
ATOM      8  C   UNL     1      31.927 -13.168 -22.870  0.00  0.00    -0.033 C 
ATOM      9  C   UNL     1      34.186 -12.389 -23.719  0.00  0.00    -0.033 C 
ATOM     10  C   UNL     1      33.605 -15.144 -24.836  0.00  0.00    -0.074 C 
ATOM     11  C   UNL     1      34.028 -13.601 -21.508  0.00  0.00    +0.203 C 
ATOM     12  C   UNL     1      34.907 -16.848 -22.827  0.00  0.00    -0.002 C 
ATOM     13  C   UNL     1      31.620 -11.708 -22.517  0.00  0.00    -0.079 C 
ATOM     14  C   UNL     1      33.790 -10.971 -23.293  0.00  0.00    -0.079 C 
ATOM     15  C   UNL     1      33.628 -16.670 -25.011  0.00  0.00    -0.023 C 
ATOM     16  C   UNL     1      34.801 -17.332 -24.276  0.00  0.00    -0.003 C 
ATOM     17  H   UNL     1      32.814 -15.349 -23.125  0.00  0.00    -0.076 HD
ATOM     18  H   UNL     1      35.323 -15.074 -20.721  0.00  0.00    +0.147 HD
ATOM     19  H   UNL     1      32.061 -10.974 -24.358  0.00  0.00    -0.080 HD
ENDBRANCH   1   5
BRANCH   1  20
ATOM     20  C   UNL     1      31.904  -8.520 -24.333  0.00  0.00    -0.001 C 
BRANCH  20  21
ATOM     21  C   UNL     1      33.145  -7.668 -24.595  0.00  0.00    +0.093 C 
BRANCH  21  23
ATOM     22 CL   UNL     1      33.216  -6.102 -19.486  0.00  0.00    -0.082 Cl
ATOM     23  N   UNL     1      32.796  -6.238 -24.628  0.00  0.00    -0.287 N 
ATOM     24  C   UNL     1      32.302  -5.740 -23.394  0.00  0.00    +0.048 C 
ATOM     25  C   UNL     1      33.121  -5.508 -25.804  0.00  0.00    +0.048 C 
ATOM     26  C   UNL     1      31.188  -4.885 -23.337  0.00  0.00    -0.008 C 
ATOM     27  C   UNL     1      32.521  -4.278 -26.169  0.00  0.00    -0.008 C 
ATOM     28  C   UNL     1      30.488  -4.471 -24.598  0.00  0.00    +0.032 C 
ATOM     29  C   UNL     1      31.399  -3.581 -25.427  0.00  0.00    +0.032 C 
ATOM     30  C   UNL     1      32.914  -6.102 -22.175  0.00  0.00    +0.026 C 
ATOM     31  C   UNL     1      34.143  -5.992 -26.664  0.00  0.00    +0.015 C 
ATOM     32  C   UNL     1      30.714  -4.419 -22.098  0.00  0.00    -0.002 C 
ATOM     33  C   UNL     1      32.975  -3.589 -27.322  0.00  0.00    -0.003 C 
ATOM     34  C   UNL     1      32.439  -5.633 -20.948  0.00  0.00    +0.059 C 
ATOM     35  C   UNL     1      34.562  -5.309 -27.809  0.00  0.00    +0.001 C 
ATOM     36  C   UNL     1      31.337  -4.790 -20.910  0.00  0.00    +0.011 C 
ATOM     37  C   UNL     1      33.979  -4.100 -28.136  0.00  0.00    -0.000 C 
ENDBRANCH  21  23
ENDBRANCH  20  21
ENDBRANCH   1  20
TORSDOF 4
ENDMDL
MODEL 7
REMARK VINA RESULT:      -9.4     11.816     16.418
REMARK  Name = 4257
REMARK  4 active torsions:
REMARK  status: ('A' for Active; 'I' for Inactive)
REMARK    1  A    between atoms: C_1  and  N_5
REMARK    2  A    between atoms: C_1  and  C_20
REMARK    3  A    between atoms: C_20  and  C_21
REMARK    4  A    between atoms: C_21  and  N_23
REMARK                            x       y       z     vdW  Elec       q    Type
REMARK                         _______ _______ _______ _____ _____    ______ ____
ROOT
ATOM      1  C   UNL     1      35.245  -7.069 -24.083  0.00  0.00    -0.076 C 
ENDROOT
BRANCH   1   5
ATOM      2  O   UNL     1      36.469  -3.532 -26.849  0.00  0.00    -0.277 OA
ATOM      3  N   UNL     1      33.318  -3.764 -28.323  0.00  0.00    +0.407 N 
ATOM      4  N   UNL     1      34.937  -2.230 -28.034  0.00  0.00    -0.326 N 
ATOM      5  N   UNL     1      34.546  -6.354 -25.151  0.00  0.00    +0.387 N 
ATOM      6  C   UNL     1      34.148  -4.309 -27.238  0.00  0.00    +0.027 C 
ATOM      7  C   UNL     1      33.553  -2.324 -28.365  0.00  0.00    +0.018 C 
ATOM      8  C   UNL     1      34.559  -5.755 -27.560  0.00  0.00    -0.033 C 
ATOM      9  C   UNL     1      33.508  -4.217 -25.839  0.00  0.00    -0.033 C 
ATOM     10  C   UNL     1      31.901  -4.080 -28.402  0.00  0.00    -0.074 C 
ATOM     11  C   UNL     1      35.359  -3.354 -27.327  0.00  0.00    +0.203 C 
ATOM     12  C   UNL     1      33.167  -1.786 -29.733  0.00  0.00    -0.002 C 
ATOM     13  C   UNL     1      35.300  -6.445 -26.408  0.00  0.00    -0.079 C 
ATOM     14  C   UNL     1      34.325  -4.954 -24.771  0.00  0.00    -0.079 C 
ATOM     15  C   UNL     1      31.369  -3.576 -29.752  0.00  0.00    -0.023 C 
ATOM     16  C   UNL     1      31.691  -2.097 -30.000  0.00  0.00    -0.003 C 
ATOM     17  H   UNL     1      33.632  -4.268 -29.152  0.00  0.00    -0.076 HD
ATOM     18  H   UNL     1      35.516  -1.471 -28.272  0.00  0.00    +0.147 HD
ATOM     19  H   UNL     1      33.635  -6.789 -25.295  0.00  0.00    -0.080 HD
ENDBRANCH   1   5
BRANCH   1  20
ATOM     20  C   UNL     1      34.590  -8.420 -23.775  0.00  0.00    -0.001 C 
BRANCH  20  21
ATOM     21  C   UNL     1      33.069  -8.439 -23.924  0.00  0.00    +0.093 C 
BRANCH  21  23
ATOM     22 CL   UNL     1      30.231  -3.939 -24.423  0.00  0.00    -0.082 Cl
ATOM     23  N   UNL     1      32.416  -8.252 -22.619  0.00  0.00    -0.287 N 
ATOM     24  C   UNL     1      32.007  -6.916 -22.368  0.00  0.00    +0.048 C 
ATOM     25  C   UNL     1      32.143  -9.414 -21.846  0.00  0.00    +0.048 C 
ATOM     26  C   UNL     1      32.214  -6.303 -21.120  0.00  0.00    -0.008 C 
ATOM     27  C   UNL     1      31.906  -9.405 -20.450  0.00  0.00    -0.008 C 
ATOM     28  C   UNL     1      32.878  -7.060 -20.007  0.00  0.00    +0.032 C 
ATOM     29  C   UNL     1      31.977  -8.193 -19.543  0.00  0.00    +0.032 C 
ATOM     30  C   UNL     1      31.385  -6.152 -23.379  0.00  0.00    +0.026 C 
ATOM     31  C   UNL     1      32.048 -10.674 -22.495  0.00  0.00    +0.015 C 
ATOM     32  C   UNL     1      31.809  -4.974 -20.907  0.00  0.00    -0.002 C 
ATOM     33  C   UNL     1      31.563 -10.610 -19.787  0.00  0.00    -0.003 C 
ATOM     34  C   UNL     1      30.984  -4.833 -23.159  0.00  0.00    +0.059 C 
ATOM     35  C   UNL     1      31.729 -11.856 -21.820  0.00  0.00    +0.001 C 
ATOM     36  C   UNL     1      31.197  -4.243 -21.921  0.00  0.00    +0.011 C 
ATOM     37  C   UNL     1      31.481 -11.823 -20.461  0.00  0.00    -0.000 C 
ENDBRANCH  21  23
ENDBRANCH  20  21
ENDBRANCH   1  20
TORSDOF 4
ENDMDL
MODEL 8
REMARK VINA RESULT:      -9.3      8.926     14.877
REMARK  Name = 4257
REMARK  4 active torsions:
REMARK  status: ('A' for Active; 'I' for Inactive)
REMARK    1  A    between atoms: C_1  and  N_5
REMARK    2  A    between atoms: C_1  and  C_20
REMARK    3  A    between atoms: C_20  and  C_21
REMARK    4  A    between atoms: C_21  and  N_23
REMARK                            x       y       z     vdW  Elec       q    Type
REMARK                         _______ _______ _______ _____ _____    ______ ____
ROOT
ATOM      1  C   UNL     1      31.241  -9.228 -22.907  0.00  0.00    -0.076 C 
ENDROOT
BRANCH   1   5
ATOM      2  O   UNL     1      33.288 -12.522 -20.334  0.00  0.00    -0.277 OA
ATOM      3  N   UNL     1      33.523 -14.453 -23.226  0.00  0.00    +0.407 N 
ATOM      4  N   UNL     1      34.551 -14.265 -21.235  0.00  0.00    -0.326 N 
ATOM      5  N   UNL     1      31.769 -10.555 -23.226  0.00  0.00    +0.387 N 
ATOM      6  C   UNL     1      33.118 -13.129 -22.730  0.00  0.00    +0.027 C 
ATOM      7  C   UNL     1      34.756 -14.815 -22.533  0.00  0.00    +0.018 C 
ATOM      8  C   UNL     1      31.588 -12.990 -22.781  0.00  0.00    -0.033 C 
ATOM      9  C   UNL     1      33.803 -11.946 -23.441  0.00  0.00    -0.033 C 
ATOM     10  C   UNL     1      33.612 -14.715 -24.654  0.00  0.00    -0.074 C 
ATOM     11  C   UNL     1      33.619 -13.230 -21.272  0.00  0.00    +0.203 C 
ATOM     12  C   UNL     1      34.945 -16.323 -22.586  0.00  0.00    -0.002 C 
ATOM     13  C   UNL     1      31.096 -11.582 -22.422  0.00  0.00    -0.079 C 
ATOM     14  C   UNL     1      33.222 -10.592 -23.018  0.00  0.00    -0.079 C 
ATOM     15  C   UNL     1      33.816 -16.224 -24.857  0.00  0.00    -0.023 C 
ATOM     16  C   UNL     1      34.998 -16.775 -24.050  0.00  0.00    -0.003 C 
ATOM     17  H   UNL     1      32.726 -15.053 -23.012  0.00  0.00    -0.076 HD
ATOM     18  H   UNL     1      35.007 -14.575 -20.420  0.00  0.00    +0.147 HD
ATOM     19  H   UNL     1      31.586 -10.752 -24.210  0.00  0.00    -0.080 HD
ENDBRANCH   1   5
BRANCH   1  20
ATOM     20  C   UNL     1      30.739  -8.497 -24.157  0.00  0.00    -0.001 C 
BRANCH  20  21
ATOM     21  C   UNL     1      30.931  -6.981 -24.127  0.00  0.00    +0.093 C 
BRANCH  21  23
ATOM     22 CL   UNL     1      32.536  -3.231 -27.579  0.00  0.00    -0.082 Cl
ATOM     23  N   UNL     1      32.300  -6.638 -23.709  0.00  0.00    -0.287 N 
ATOM     24  C   UNL     1      33.076  -6.032 -24.732  0.00  0.00    +0.048 C 
ATOM     25  C   UNL     1      32.633  -6.808 -22.338  0.00  0.00    +0.048 C 
ATOM     26  C   UNL     1      34.413  -6.401 -24.960  0.00  0.00    -0.008 C 
ATOM     27  C   UNL     1      33.957  -6.919 -21.847  0.00  0.00    -0.008 C 
ATOM     28  C   UNL     1      35.061  -7.456 -24.112  0.00  0.00    +0.032 C 
ATOM     29  C   UNL     1      35.217  -6.951 -22.687  0.00  0.00    +0.032 C 
ATOM     30  C   UNL     1      32.518  -5.039 -25.566  0.00  0.00    +0.026 C 
ATOM     31  C   UNL     1      31.596  -6.825 -21.367  0.00  0.00    +0.015 C 
ATOM     32  C   UNL     1      35.152  -5.791 -25.989  0.00  0.00    -0.002 C 
ATOM     33  C   UNL     1      34.184  -7.005 -20.450  0.00  0.00    -0.003 C 
ATOM     34  C   UNL     1      33.259  -4.436 -26.585  0.00  0.00    +0.059 C 
ATOM     35  C   UNL     1      31.839  -6.932 -19.995  0.00  0.00    +0.001 C 
ATOM     36  C   UNL     1      34.578  -4.814 -26.797  0.00  0.00    +0.011 C 
ATOM     37  C   UNL     1      33.138  -7.017 -19.535  0.00  0.00    -0.000 C 
ENDBRANCH  21  23
ENDBRANCH  20  21
ENDBRANCH   1  20
TORSDOF 4
ENDMDL
MODEL 9
REMARK VINA RESULT:      -9.2     10.819     18.347
REMARK  Name = 4257
REMARK  4 active torsions:
REMARK  status: ('A' for Active; 'I' for Inactive)
REMARK    1  A    between atoms: C_1  and  N_5
REMARK    2  A    between atoms: C_1  and  C_20
REMARK    3  A    between atoms: C_20  and  C_21
REMARK    4  A    between atoms: C_21  and  N_23
REMARK                            x       y       z     vdW  Elec       q    Type
REMARK                         _______ _______ _______ _____ _____    ______ ____
ROOT
ATOM      1  C   UNL     1      32.993  -5.240 -24.370  0.00  0.00    -0.076 C 
ENDROOT
BRANCH   1   5
ATOM      2  O   UNL     1      35.415  -9.201 -24.043  0.00  0.00    -0.277 OA
ATOM      3  N   UNL     1      32.760 -10.521 -22.210  0.00  0.00    +0.407 N 
ATOM      4  N   UNL     1      34.460 -11.256 -23.486  0.00  0.00    -0.326 N 
ATOM      5  N   UNL     1      32.713  -6.528 -23.734  0.00  0.00    +0.387 N 
ATOM      6  C   UNL     1      33.187  -9.335 -22.968  0.00  0.00    +0.027 C 
ATOM      7  C   UNL     1      33.213 -11.694 -22.951  0.00  0.00    +0.018 C 
ATOM      8  C   UNL     1      33.444  -8.159 -22.012  0.00  0.00    -0.033 C 
ATOM      9  C   UNL     1      32.226  -8.924 -24.100  0.00  0.00    -0.033 C 
ATOM     10  C   UNL     1      31.382 -10.663 -21.768  0.00  0.00    -0.074 C 
ATOM     11  C   UNL     1      34.509  -9.866 -23.565  0.00  0.00    +0.203 C 
ATOM     12  C   UNL     1      33.283 -12.891 -22.017  0.00  0.00    -0.002 C 
ATOM     13  C   UNL     1      33.745  -6.843 -22.739  0.00  0.00    -0.079 C 
ATOM     14  C   UNL     1      32.615  -7.588 -24.743  0.00  0.00    -0.079 C 
ATOM     15  C   UNL     1      31.303 -11.861 -20.810  0.00  0.00    -0.023 C 
ATOM     16  C   UNL     1      31.898 -13.141 -21.411  0.00  0.00    -0.003 C 
ATOM     17  H   UNL     1      33.200 -10.403 -21.297  0.00  0.00    -0.076 HD
ATOM     18  H   UNL     1      35.189 -11.856 -23.763  0.00  0.00    +0.147 HD
ATOM     19  H   UNL     1      31.817  -6.467 -23.252  0.00  0.00    -0.080 HD
ENDBRANCH   1   5
BRANCH   1  20
ATOM     20  C   UNL     1      34.355  -5.232 -25.071  0.00  0.00    -0.001 C 
BRANCH  20  21
ATOM     21  C   UNL     1      34.594  -4.031 -25.985  0.00  0.00    +0.093 C 
BRANCH  21  23
ATOM     22 CL   UNL     1      30.730  -2.038 -29.091  0.00  0.00    -0.082 Cl
ATOM     23  N   UNL     1      34.933  -4.474 -27.348  0.00  0.00    -0.287 N 
ATOM     24  C   UNL     1      33.830  -4.469 -28.242  0.00  0.00    +0.048 C 
ATOM     25  C   UNL     1      36.303  -4.706 -27.644  0.00  0.00    +0.048 C 
ATOM     26  C   UNL     1      33.600  -5.529 -29.135  0.00  0.00    -0.008 C 
ATOM     27  C   UNL     1      36.762  -5.495 -28.727  0.00  0.00    -0.008 C 
ATOM     28  C   UNL     1      34.531  -6.706 -29.167  0.00  0.00    +0.032 C 
ATOM     29  C   UNL     1      35.892  -6.276 -29.690  0.00  0.00    +0.032 C 
ATOM     30  C   UNL     1      32.917  -3.393 -28.252  0.00  0.00    +0.026 C 
ATOM     31  C   UNL     1      37.302  -4.081 -26.851  0.00  0.00    +0.015 C 
ATOM     32  C   UNL     1      32.492  -5.501 -30.000  0.00  0.00    -0.002 C 
ATOM     33  C   UNL     1      38.153  -5.597 -28.983  0.00  0.00    -0.003 C 
ATOM     34  C   UNL     1      31.819  -3.370 -29.115  0.00  0.00    +0.059 C 
ATOM     35  C   UNL     1      38.670  -4.210 -27.107  0.00  0.00    +0.001 C 
ATOM     36  C   UNL     1      31.607  -4.427 -29.990  0.00  0.00    +0.011 C 
ATOM     37  C   UNL     1      39.097  -4.968 -28.180  0.00  0.00    -0.000 C 
ENDBRANCH  21  23
ENDBRANCH  20  21
ENDBRANCH   1  20
TORSDOF 4
ENDMDL
