MODEL 1
REMARK VINA RESULT:     -12.6      0.000      0.000
REMARK  Name = 119057475
REMARK  5 active torsions:
REMARK  status: ('A' for Active; 'I' for Inactive)
REMARK    1  A    between atoms: N_1  and  C_22
REMARK    2  A    between atoms: C_2  and  N_8
REMARK    3  A    between atoms: N_8  and  C_11
REMARK    4  A    between atoms: C_11  and  C_16
REMARK    5  A    between atoms: C_22  and  C_26
REMARK                            x       y       z     vdW  Elec       q    Type
REMARK                         _______ _______ _______ _____ _____    ______ ____
ROOT
ATOM      1  N   UNL     1      34.178 -14.708 -22.575  0.00  0.00    +0.387 N 
ATOM      2  C   UNL     1      35.325 -17.398 -22.485  0.00  0.00    -0.066 C 
ATOM      3  C   UNL     1      34.921 -15.161 -21.391  0.00  0.00    -0.079 C 
ATOM      4  C   UNL     1      34.691 -15.339 -23.799  0.00  0.00    -0.079 C 
ATOM      5  C   UNL     1      34.827 -16.681 -21.229  0.00  0.00    -0.044 C 
ATOM      6  C   UNL     1      34.590 -16.865 -23.718  0.00  0.00    -0.044 C 
ATOM      7  H   UNL     1      33.205 -14.989 -22.461  0.00  0.00    -0.080 HD
ENDROOT
BRANCH   2   8
ATOM      8  N   UNL     1      35.141 -18.842 -22.351  0.00  0.00    +0.389 N 
ATOM      9  H   UNL     1      35.452 -19.299 -23.208  0.00  0.00    -0.084 HD
ATOM     10  H   UNL     1      34.152 -19.032 -22.187  0.00  0.00    -0.084 HD
BRANCH   8  11
ATOM     11  C   UNL     1      35.908 -19.359 -21.228  0.00  0.00    -0.032 C 
BRANCH  11  16
ATOM     12  O   UNL     1      35.431 -22.492 -17.547  0.00  0.00    -0.467 OA
ATOM     13  O   UNL     1      32.596 -22.477 -18.035  0.00  0.00    -0.453 OA
ATOM     14  N   UNL     1      33.732 -20.193 -20.518  0.00  0.00    -0.151 NA
ATOM     15  N   UNL     1      32.929 -20.956 -19.728  0.00  0.00    -0.107 NA
ATOM     16  C   UNL     1      35.067 -20.217 -20.322  0.00  0.00    +0.062 C 
ATOM     17  C   UNL     1      35.666 -20.979 -19.339  0.00  0.00    +0.056 C 
ATOM     18  C   UNL     1      34.845 -21.746 -18.529  0.00  0.00    +0.194 C 
ATOM     19  C   UNL     1      33.481 -21.724 -18.764  0.00  0.00    +0.278 C 
ATOM     20  C   UNL     1      34.473 -22.976 -16.600  0.00  0.00    +0.253 C 
ATOM     21  C   UNL     1      33.255 -23.524 -17.318  0.00  0.00    +0.254 C 
ENDBRANCH  11  16
ENDBRANCH   8  11
ENDBRANCH   2   8
BRANCH   1  22
ATOM     22  C   UNL     1      34.235 -13.251 -22.688  0.00  0.00    -0.071 C 
BRANCH  22  26
ATOM     23  F   UNL     1      32.587 -13.670 -19.879  0.00  0.00    -0.204 F 
ATOM     24  O   UNL     1      32.217  -8.722 -24.786  0.00  0.00    -0.270 OA
ATOM     25  N   UNL     1      32.317 -10.307 -23.103  0.00  0.00    -0.255 N 
ATOM     26  C   UNL     1      32.837 -12.653 -22.755  0.00  0.00    +0.025 C 
ATOM     27  C   UNL     1      32.737 -11.519 -23.819  0.00  0.00    +0.101 C 
ATOM     28  C   UNL     1      32.446 -11.938 -21.491  0.00  0.00    +0.018 C 
ATOM     29  C   UNL     1      32.159 -10.611 -21.759  0.00  0.00    +0.052 C 
ATOM     30  C   UNL     1      31.768  -9.685 -20.814  0.00  0.00    +0.014 C 
ATOM     31  C   UNL     1      32.331 -12.394 -20.191  0.00  0.00    +0.137 C 
ATOM     32  C   UNL     1      32.093  -9.045 -23.607  0.00  0.00    +0.253 C 
ATOM     33  C   UNL     1      31.653 -10.135 -19.502  0.00  0.00    +0.004 C 
ATOM     34  C   UNL     1      31.934 -11.484 -19.196  0.00  0.00    +0.029 C 
ATOM     35  C   UNL     1      31.513  -8.328 -21.288  0.00  0.00    +0.006 C 
ATOM     36  C   UNL     1      31.664  -8.025 -22.588  0.00  0.00    +0.058 C 
ENDBRANCH  22  26
ENDBRANCH   1  22
TORSDOF 5
ENDMDL
MODEL 2
REMARK VINA RESULT:     -12.2      3.652     11.994
REMARK  Name = 119057475
REMARK  5 active torsions:
REMARK  status: ('A' for Active; 'I' for Inactive)
REMARK    1  A    between atoms: N_1  and  C_22
REMARK    2  A    between atoms: C_2  and  N_8
REMARK    3  A    between atoms: N_8  and  C_11
REMARK    4  A    between atoms: C_11  and  C_16
REMARK    5  A    between atoms: C_22  and  C_26
REMARK                            x       y       z     vdW  Elec       q    Type
REMARK                         _______ _______ _______ _____ _____    ______ ____
ROOT
ATOM      1  N   UNL     1      34.878 -21.647 -18.276  0.00  0.00    +0.387 N 
ATOM      2  C   UNL     1      34.930 -20.384 -20.916  0.00  0.00    -0.066 C 
ATOM      3  C   UNL     1      33.701 -21.708 -19.154  0.00  0.00    -0.079 C 
ATOM      4  C   UNL     1      36.122 -21.606 -19.057  0.00  0.00    -0.079 C 
ATOM      5  C   UNL     1      33.647 -20.497 -20.090  0.00  0.00    -0.044 C 
ATOM      6  C   UNL     1      36.150 -20.392 -19.990  0.00  0.00    -0.044 C 
ATOM      7  H   UNL     1      34.820 -20.785 -17.733  0.00  0.00    -0.080 HD
ENDROOT
BRANCH   2   8
ATOM      8  N   UNL     1      34.901 -19.173 -21.733  0.00  0.00    +0.389 N 
ATOM      9  H   UNL     1      33.937 -18.850 -21.817  0.00  0.00    -0.084 HD
ATOM     10  H   UNL     1      35.283 -19.391 -22.653  0.00  0.00    -0.084 HD
BRANCH   8  11
ATOM     11  C   UNL     1      35.706 -18.122 -21.130  0.00  0.00    -0.032 C 
BRANCH  11  16
ATOM     12  O   UNL     1      34.162 -14.776 -24.293  0.00  0.00    -0.467 OA
ATOM     13  O   UNL     1      33.775 -12.996 -22.066  0.00  0.00    -0.453 OA
ATOM     14  N   UNL     1      34.953 -15.920 -20.412  0.00  0.00    -0.151 NA
ATOM     15  N   UNL     1      34.475 -14.668 -20.651  0.00  0.00    -0.107 NA
ATOM     16  C   UNL     1      35.171 -16.752 -21.451  0.00  0.00    +0.062 C 
ATOM     17  C   UNL     1      34.921 -16.398 -22.761  0.00  0.00    +0.056 C 
ATOM     18  C   UNL     1      34.424 -15.128 -23.000  0.00  0.00    +0.194 C 
ATOM     19  C   UNL     1      34.230 -14.282 -21.922  0.00  0.00    +0.278 C 
ATOM     20  C   UNL     1      33.372 -13.585 -24.373  0.00  0.00    +0.253 C 
ATOM     21  C   UNL     1      33.902 -12.537 -23.414  0.00  0.00    +0.254 C 
ENDBRANCH  11  16
ENDBRANCH   8  11
ENDBRANCH   2   8
BRANCH   1  22
ATOM     22  C   UNL     1      34.889 -22.782 -17.354  0.00  0.00    -0.071 C 
BRANCH  22  26
ATOM     23  F   UNL     1      32.568 -22.505 -15.048  0.00  0.00    -0.204 F 
ATOM     24  O   UNL     1      39.326 -24.198 -14.654  0.00  0.00    -0.270 OA
ATOM     25  N   UNL     1      37.071 -23.684 -14.720  0.00  0.00    -0.255 N 
ATOM     26  C   UNL     1      35.473 -22.385 -16.006  0.00  0.00    +0.025 C 
ATOM     27  C   UNL     1      36.973 -22.786 -15.878  0.00  0.00    +0.101 C 
ATOM     28  C   UNL     1      34.846 -23.128 -14.857  0.00  0.00    +0.018 C 
ATOM     29  C   UNL     1      35.809 -23.841 -14.165  0.00  0.00    +0.052 C 
ATOM     30  C   UNL     1      35.561 -24.626 -13.057  0.00  0.00    +0.014 C 
ATOM     31  C   UNL     1      33.536 -23.183 -14.421  0.00  0.00    +0.137 C 
ATOM     32  C   UNL     1      38.188 -24.303 -14.204  0.00  0.00    +0.253 C 
ATOM     33  C   UNL     1      34.244 -24.690 -12.614  0.00  0.00    +0.004 C 
ATOM     34  C   UNL     1      33.239 -23.970 -13.295  0.00  0.00    +0.029 C 
ATOM     35  C   UNL     1      36.708 -25.308 -12.464  0.00  0.00    +0.006 C 
ATOM     36  C   UNL     1      37.933 -25.161 -12.995  0.00  0.00    +0.058 C 
ENDBRANCH  22  26
ENDBRANCH   1  22
TORSDOF 5
ENDMDL
MODEL 3
REMARK VINA RESULT:     -12.2      3.522     11.670
REMARK  Name = 119057475
REMARK  5 active torsions:
REMARK  status: ('A' for Active; 'I' for Inactive)
REMARK    1  A    between atoms: N_1  and  C_22
REMARK    2  A    between atoms: C_2  and  N_8
REMARK    3  A    between atoms: N_8  and  C_11
REMARK    4  A    between atoms: C_11  and  C_16
REMARK    5  A    between atoms: C_22  and  C_26
REMARK                            x       y       z     vdW  Elec       q    Type
REMARK                         _______ _______ _______ _____ _____    ______ ____
ROOT
ATOM      1  N   UNL     1      34.122 -22.533 -18.979  0.00  0.00    +0.387 N 
ATOM      2  C   UNL     1      34.716 -19.979 -20.279  0.00  0.00    -0.066 C 
ATOM      3  C   UNL     1      35.494 -22.005 -18.991  0.00  0.00    -0.079 C 
ATOM      4  C   UNL     1      33.134 -21.445 -18.969  0.00  0.00    -0.079 C 
ATOM      5  C   UNL     1      35.734 -21.120 -20.218  0.00  0.00    -0.044 C 
ATOM      6  C   UNL     1      33.294 -20.541 -20.194  0.00  0.00    -0.044 C 
ATOM      7  H   UNL     1      33.986 -23.072 -19.834  0.00  0.00    -0.080 HD
ENDROOT
BRANCH   2   8
ATOM      8  N   UNL     1      34.900 -19.201 -21.502  0.00  0.00    +0.389 N 
ATOM      9  H   UNL     1      34.004 -18.797 -21.777  0.00  0.00    -0.084 HD
ATOM     10  H   UNL     1      35.250 -19.820 -22.233  0.00  0.00    -0.084 HD
BRANCH   8  11
ATOM     11  C   UNL     1      35.864 -18.131 -21.295  0.00  0.00    -0.032 C 
BRANCH  11  16
ATOM     12  O   UNL     1      34.166 -14.692 -24.276  0.00  0.00    -0.467 OA
ATOM     13  O   UNL     1      33.665 -13.069 -21.953  0.00  0.00    -0.453 OA
ATOM     14  N   UNL     1      34.987 -16.018 -20.459  0.00  0.00    -0.151 NA
ATOM     15  N   UNL     1      34.443 -14.781 -20.630  0.00  0.00    -0.107 NA
ATOM     16  C   UNL     1      35.258 -16.775 -21.542  0.00  0.00    +0.062 C 
ATOM     17  C   UNL     1      35.000 -16.358 -22.832  0.00  0.00    +0.056 C 
ATOM     18  C   UNL     1      34.436 -15.105 -23.002  0.00  0.00    +0.194 C 
ATOM     19  C   UNL     1      34.188 -14.336 -21.879  0.00  0.00    +0.278 C 
ATOM     20  C   UNL     1      33.313 -13.543 -24.295  0.00  0.00    +0.253 C 
ATOM     21  C   UNL     1      33.778 -12.526 -23.271  0.00  0.00    +0.254 C 
ENDBRANCH  11  16
ENDBRANCH   8  11
ENDBRANCH   2   8
BRANCH   1  22
ATOM     22  C   UNL     1      33.923 -23.416 -17.831  0.00  0.00    -0.071 C 
BRANCH  22  26
ATOM     23  F   UNL     1      31.048 -23.288 -16.249  0.00  0.00    -0.204 F 
ATOM     24  O   UNL     1      37.630 -23.175 -13.935  0.00  0.00    -0.270 OA
ATOM     25  N   UNL     1      35.426 -23.249 -14.632  0.00  0.00    -0.255 N 
ATOM     26  C   UNL     1      34.028 -22.644 -16.523  0.00  0.00    +0.025 C 
ATOM     27  C   UNL     1      35.483 -22.636 -15.965  0.00  0.00    +0.101 C 
ATOM     28  C   UNL     1      33.261 -23.289 -15.401  0.00  0.00    +0.018 C 
ATOM     29  C   UNL     1      34.113 -23.604 -14.357  0.00  0.00    +0.052 C 
ATOM     30  C   UNL     1      33.722 -24.204 -13.177  0.00  0.00    +0.014 C 
ATOM     31  C   UNL     1      31.917 -23.580 -15.273  0.00  0.00    +0.137 C 
ATOM     32  C   UNL     1      36.453 -23.469 -13.742  0.00  0.00    +0.253 C 
ATOM     33  C   UNL     1      32.370 -24.504 -13.042  0.00  0.00    +0.004 C 
ATOM     34  C   UNL     1      31.475 -24.192 -14.087  0.00  0.00    +0.029 C 
ATOM     35  C   UNL     1      34.768 -24.462 -12.192  0.00  0.00    +0.006 C 
ATOM     36  C   UNL     1      36.042 -24.122 -12.451  0.00  0.00    +0.058 C 
ENDBRANCH  22  26
ENDBRANCH   1  22
TORSDOF 5
ENDMDL
MODEL 4
REMARK VINA RESULT:     -12.1      3.761     11.239
REMARK  Name = 119057475
REMARK  5 active torsions:
REMARK  status: ('A' for Active; 'I' for Inactive)
REMARK    1  A    between atoms: N_1  and  C_22
REMARK    2  A    between atoms: C_2  and  N_8
REMARK    3  A    between atoms: N_8  and  C_11
REMARK    4  A    between atoms: C_11  and  C_16
REMARK    5  A    between atoms: C_22  and  C_26
REMARK                            x       y       z     vdW  Elec       q    Type
REMARK                         _______ _______ _______ _____ _____    ______ ____
ROOT
ATOM      1  N   UNL     1      34.942 -21.730 -18.809  0.00  0.00    +0.387 N 
ATOM      2  C   UNL     1      34.723 -19.775 -20.975  0.00  0.00    -0.066 C 
ATOM      3  C   UNL     1      36.113 -20.943 -19.224  0.00  0.00    -0.079 C 
ATOM      4  C   UNL     1      33.697 -20.975 -19.007  0.00  0.00    -0.079 C 
ATOM      5  C   UNL     1      36.015 -20.544 -20.699  0.00  0.00    -0.044 C 
ATOM      6  C   UNL     1      33.518 -20.577 -20.474  0.00  0.00    -0.044 C 
ATOM      7  H   UNL     1      34.901 -22.563 -19.396  0.00  0.00    -0.080 HD
ENDROOT
BRANCH   2   8
ATOM      8  N   UNL     1      34.601 -19.484 -22.402  0.00  0.00    +0.389 N 
ATOM      9  H   UNL     1      33.674 -19.099 -22.587  0.00  0.00    -0.084 HD
ATOM     10  H   UNL     1      34.736 -20.350 -22.925  0.00  0.00    -0.084 HD
BRANCH   8  11
ATOM     11  C   UNL     1      35.609 -18.523 -22.822  0.00  0.00    -0.032 C 
BRANCH  11  16
ATOM     12  O   UNL     1      34.511 -13.812 -22.379  0.00  0.00    -0.467 OA
ATOM     13  O   UNL     1      33.220 -13.976 -24.945  0.00  0.00    -0.453 OA
ATOM     14  N   UNL     1      34.412 -17.309 -24.562  0.00  0.00    -0.151 NA
ATOM     15  N   UNL     1      33.834 -16.188 -25.075  0.00  0.00    -0.107 NA
ATOM     16  C   UNL     1      34.991 -17.254 -23.344  0.00  0.00    +0.062 C 
ATOM     17  C   UNL     1      35.036 -16.101 -22.587  0.00  0.00    +0.056 C 
ATOM     18  C   UNL     1      34.457 -14.960 -23.117  0.00  0.00    +0.194 C 
ATOM     19  C   UNL     1      33.849 -15.045 -24.357  0.00  0.00    +0.278 C 
ATOM     20  C   UNL     1      34.169 -12.660 -23.156  0.00  0.00    +0.253 C 
ATOM     21  C   UNL     1      32.940 -12.941 -23.999  0.00  0.00    +0.254 C 
ENDBRANCH  11  16
ENDBRANCH   8  11
ENDBRANCH   2   8
BRANCH   1  22
ATOM     22  C   UNL     1      35.073 -22.146 -17.413  0.00  0.00    -0.071 C 
BRANCH  22  26
ATOM     23  F   UNL     1      36.383 -24.251 -15.261  0.00  0.00    -0.204 F 
ATOM     24  O   UNL     1      29.764 -22.478 -16.581  0.00  0.00    -0.270 OA
ATOM     25  N   UNL     1      31.938 -23.080 -16.065  0.00  0.00    -0.255 N 
ATOM     26  C   UNL     1      34.126 -23.295 -17.094  0.00  0.00    +0.025 C 
ATOM     27  C   UNL     1      32.638 -22.912 -17.346  0.00  0.00    +0.101 C 
ATOM     28  C   UNL     1      34.120 -23.657 -15.635  0.00  0.00    +0.018 C 
ATOM     29  C   UNL     1      32.846 -23.518 -15.112  0.00  0.00    +0.052 C 
ATOM     30  C   UNL     1      32.501 -23.774 -13.800  0.00  0.00    +0.014 C 
ATOM     31  C   UNL     1      35.135 -24.090 -14.804  0.00  0.00    +0.137 C 
ATOM     32  C   UNL     1      30.609 -22.864 -15.777  0.00  0.00    +0.253 C 
ATOM     33  C   UNL     1      33.520 -24.207 -12.956  0.00  0.00    +0.004 C 
ATOM     34  C   UNL     1      34.829 -24.364 -13.460  0.00  0.00    +0.029 C 
ATOM     35  C   UNL     1      31.104 -23.565 -13.433  0.00  0.00    +0.006 C 
ATOM     36  C   UNL     1      30.219 -23.141 -14.351  0.00  0.00    +0.058 C 
ENDBRANCH  22  26
ENDBRANCH   1  22
TORSDOF 5
ENDMDL
MODEL 5
REMARK VINA RESULT:     -12.0      3.604     11.434
REMARK  Name = 119057475
REMARK  5 active torsions:
REMARK  status: ('A' for Active; 'I' for Inactive)
REMARK    1  A    between atoms: N_1  and  C_22
REMARK    2  A    between atoms: C_2  and  N_8
REMARK    3  A    between atoms: N_8  and  C_11
REMARK    4  A    between atoms: C_11  and  C_16
REMARK    5  A    between atoms: C_22  and  C_26
REMARK                            x       y       z     vdW  Elec       q    Type
REMARK                         _______ _______ _______ _____ _____    ______ ____
ROOT
ATOM      1  N   UNL     1      35.177 -21.789 -19.590  0.00  0.00    +0.387 N 
ATOM      2  C   UNL     1      35.837 -19.117 -20.584  0.00  0.00    -0.066 C 
ATOM      3  C   UNL     1      36.406 -21.114 -19.151  0.00  0.00    -0.079 C 
ATOM      4  C   UNL     1      34.112 -20.819 -19.880  0.00  0.00    -0.079 C 
ATOM      5  C   UNL     1      36.914 -20.141 -20.219  0.00  0.00    -0.044 C 
ATOM      6  C   UNL     1      34.542 -19.836 -20.973  0.00  0.00    -0.044 C 
ATOM      7  H   UNL     1      35.387 -22.292 -20.453  0.00  0.00    -0.080 HD
ENDROOT
BRANCH   2   8
ATOM      8  N   UNL     1      36.304 -18.257 -21.669  0.00  0.00    +0.389 N 
ATOM      9  H   UNL     1      37.286 -18.461 -21.857  0.00  0.00    -0.084 HD
ATOM     10  H   UNL     1      36.192 -17.284 -21.386  0.00  0.00    -0.084 HD
BRANCH   8  11
ATOM     11  C   UNL     1      35.529 -18.484 -22.879  0.00  0.00    -0.032 C 
BRANCH  11  16
ATOM     12  O   UNL     1      34.474 -13.762 -22.448  0.00  0.00    -0.467 OA
ATOM     13  O   UNL     1      33.208 -13.913 -25.027  0.00  0.00    -0.453 OA
ATOM     14  N   UNL     1      34.363 -17.258 -24.632  0.00  0.00    -0.151 NA
ATOM     15  N   UNL     1      33.801 -16.132 -25.151  0.00  0.00    -0.107 NA
ATOM     16  C   UNL     1      34.929 -17.208 -23.408  0.00  0.00    +0.062 C 
ATOM     17  C   UNL     1      34.978 -16.056 -22.650  0.00  0.00    +0.056 C 
ATOM     18  C   UNL     1      34.416 -14.909 -23.187  0.00  0.00    +0.194 C 
ATOM     19  C   UNL     1      33.820 -14.988 -24.433  0.00  0.00    +0.278 C 
ATOM     20  C   UNL     1      34.152 -12.607 -23.229  0.00  0.00    +0.253 C 
ATOM     21  C   UNL     1      32.929 -12.875 -24.085  0.00  0.00    +0.254 C 
ENDBRANCH  11  16
ENDBRANCH   8  11
ENDBRANCH   2   8
BRANCH   1  22
ATOM     22  C   UNL     1      34.733 -22.752 -18.583  0.00  0.00    -0.071 C 
BRANCH  22  26
ATOM     23  F   UNL     1      31.842 -22.468 -17.051  0.00  0.00    -0.204 F 
ATOM     24  O   UNL     1      38.299 -23.522 -14.624  0.00  0.00    -0.270 OA
ATOM     25  N   UNL     1      36.129 -23.215 -15.365  0.00  0.00    -0.255 N 
ATOM     26  C   UNL     1      34.887 -22.184 -17.179  0.00  0.00    +0.025 C 
ATOM     27  C   UNL     1      36.310 -22.439 -16.599  0.00  0.00    +0.101 C 
ATOM     28  C   UNL     1      34.005 -22.870 -16.172  0.00  0.00    +0.018 C 
ATOM     29  C   UNL     1      34.773 -23.431 -15.166  0.00  0.00    +0.052 C 
ATOM     30  C   UNL     1      34.268 -24.129 -14.088  0.00  0.00    +0.014 C 
ATOM     31  C   UNL     1      32.631 -22.999 -16.110  0.00  0.00    +0.137 C 
ATOM     32  C   UNL     1      37.088 -23.685 -14.496  0.00  0.00    +0.253 C 
ATOM     33  C   UNL     1      32.884 -24.267 -14.021  0.00  0.00    +0.004 C 
ATOM     34  C   UNL     1      32.073 -23.703 -15.028  0.00  0.00    +0.029 C 
ATOM     35  C   UNL     1      35.237 -24.652 -13.129  0.00  0.00    +0.006 C 
ATOM     36  C   UNL     1      36.552 -24.447 -13.316  0.00  0.00    +0.058 C 
ENDBRANCH  22  26
ENDBRANCH   1  22
TORSDOF 5
ENDMDL
MODEL 6
REMARK VINA RESULT:     -11.3      2.992     11.541
REMARK  Name = 119057475
REMARK  5 active torsions:
REMARK  status: ('A' for Active; 'I' for Inactive)
REMARK    1  A    between atoms: N_1  and  C_22
REMARK    2  A    between atoms: C_2  and  N_8
REMARK    3  A    between atoms: N_8  and  C_11
REMARK    4  A    between atoms: C_11  and  C_16
REMARK    5  A    between atoms: C_22  and  C_26
REMARK                            x       y       z     vdW  Elec       q    Type
REMARK                         _______ _______ _______ _____ _____    ______ ____
ROOT
ATOM      1  N   UNL     1      35.885 -20.624 -19.295  0.00  0.00    +0.387 N 
ATOM      2  C   UNL     1      35.589 -18.882 -21.628  0.00  0.00    -0.066 C 
ATOM      3  C   UNL     1      34.712 -20.747 -20.172  0.00  0.00    -0.079 C 
ATOM      4  C   UNL     1      37.067 -20.180 -20.047  0.00  0.00    -0.079 C 
ATOM      5  C   UNL     1      34.385 -19.412 -20.847  0.00  0.00    -0.044 C 
ATOM      6  C   UNL     1      36.819 -18.826 -20.718  0.00  0.00    -0.044 C 
ATOM      7  H   UNL     1      35.676 -19.916 -18.591  0.00  0.00    -0.080 HD
ENDROOT
BRANCH   2   8
ATOM      8  N   UNL     1      35.291 -17.565 -22.187  0.00  0.00    +0.389 N 
ATOM      9  H   UNL     1      34.340 -17.569 -22.559  0.00  0.00    -0.084 HD
ATOM     10  H   UNL     1      35.962 -17.365 -22.929  0.00  0.00    -0.084 HD
BRANCH   8  11
ATOM     11  C   UNL     1      35.400 -16.534 -21.167  0.00  0.00    -0.032 C 
BRANCH  11  16
ATOM     12  O   UNL     1      32.187 -13.025 -20.189  0.00  0.00    -0.467 OA
ATOM     13  O   UNL     1      32.704 -11.960 -22.811  0.00  0.00    -0.453 OA
ATOM     14  N   UNL     1      34.903 -14.759 -22.760  0.00  0.00    -0.151 NA
ATOM     15  N   UNL     1      34.242 -13.636 -23.152  0.00  0.00    -0.107 NA
ATOM     16  C   UNL     1      34.645 -15.288 -21.546  0.00  0.00    +0.062 C 
ATOM     17  C   UNL     1      33.738 -14.734 -20.665  0.00  0.00    +0.056 C 
ATOM     18  C   UNL     1      33.076 -13.585 -21.062  0.00  0.00    +0.194 C 
ATOM     19  C   UNL     1      33.339 -13.073 -22.320  0.00  0.00    +0.278 C 
ATOM     20  C   UNL     1      31.817 -11.699 -20.580  0.00  0.00    +0.253 C 
ATOM     21  C   UNL     1      31.523 -11.652 -22.067  0.00  0.00    +0.254 C 
ENDBRANCH  11  16
ENDBRANCH   8  11
ENDBRANCH   2   8
BRANCH   1  22
ATOM     22  C   UNL     1      36.154 -21.892 -18.619  0.00  0.00    -0.071 C 
BRANCH  22  26
ATOM     23  F   UNL     1      33.041 -21.902 -17.576  0.00  0.00    -0.204 F 
ATOM     24  O   UNL     1      38.979 -23.880 -14.490  0.00  0.00    -0.270 OA
ATOM     25  N   UNL     1      36.970 -23.281 -15.470  0.00  0.00    -0.255 N 
ATOM     26  C   UNL     1      36.062 -21.737 -17.108  0.00  0.00    +0.025 C 
ATOM     27  C   UNL     1      37.363 -22.207 -16.392  0.00  0.00    +0.101 C 
ATOM     28  C   UNL     1      35.019 -22.630 -16.493  0.00  0.00    +0.018 C 
ATOM     29  C   UNL     1      35.600 -23.479 -15.568  0.00  0.00    +0.052 C 
ATOM     30  C   UNL     1      34.917 -24.420 -14.826  0.00  0.00    +0.014 C 
ATOM     31  C   UNL     1      33.655 -22.706 -16.700  0.00  0.00    +0.137 C 
ATOM     32  C   UNL     1      37.765 -24.014 -14.617  0.00  0.00    +0.253 C 
ATOM     33  C   UNL     1      33.543 -24.506 -15.032  0.00  0.00    +0.004 C 
ATOM     34  C   UNL     1      32.919 -23.651 -15.965  0.00  0.00    +0.029 C 
ATOM     35  C   UNL     1      35.705 -25.230 -13.901  0.00  0.00    +0.006 C 
ATOM     36  C   UNL     1      37.032 -25.044 -13.800  0.00  0.00    +0.058 C 
ENDBRANCH  22  26
ENDBRANCH   1  22
TORSDOF 5
ENDMDL
MODEL 7
REMARK VINA RESULT:     -11.3      3.220      5.381
REMARK  Name = 119057475
REMARK  5 active torsions:
REMARK  status: ('A' for Active; 'I' for Inactive)
REMARK    1  A    between atoms: N_1  and  C_22
REMARK    2  A    between atoms: C_2  and  N_8
REMARK    3  A    between atoms: N_8  and  C_11
REMARK    4  A    between atoms: C_11  and  C_16
REMARK    5  A    between atoms: C_22  and  C_26
REMARK                            x       y       z     vdW  Elec       q    Type
REMARK                         _______ _______ _______ _____ _____    ______ ____
ROOT
ATOM      1  N   UNL     1      35.246 -18.648 -21.051  0.00  0.00    +0.387 N 
ATOM      2  C   UNL     1      36.146 -20.993 -19.549  0.00  0.00    -0.066 C 
ATOM      3  C   UNL     1      36.679 -18.958 -20.942  0.00  0.00    -0.079 C 
ATOM      4  C   UNL     1      34.434 -19.873 -21.026  0.00  0.00    -0.079 C 
ATOM      5  C   UNL     1      36.983 -19.717 -19.647  0.00  0.00    -0.044 C 
ATOM      6  C   UNL     1      34.662 -20.662 -19.734  0.00  0.00    -0.044 C 
ATOM      7  H   UNL     1      34.986 -18.082 -20.243  0.00  0.00    -0.080 HD
ENDROOT
BRANCH   2   8
ATOM      8  N   UNL     1      36.379 -21.655 -18.267  0.00  0.00    +0.389 N 
ATOM      9  H   UNL     1      36.799 -20.987 -17.619  0.00  0.00    -0.084 HD
ATOM     10  H   UNL     1      37.004 -22.446 -18.416  0.00  0.00    -0.084 HD
BRANCH   8  11
ATOM     11  C   UNL     1      35.130 -22.146 -17.704  0.00  0.00    -0.032 C 
BRANCH  11  16
ATOM     12  O   UNL     1      37.642 -22.880 -13.612  0.00  0.00    -0.467 OA
ATOM     13  O   UNL     1      35.740 -24.929 -12.932  0.00  0.00    -0.453 OA
ATOM     14  N   UNL     1      34.442 -23.793 -16.047  0.00  0.00    -0.151 NA
ATOM     15  N   UNL     1      34.598 -24.466 -14.873  0.00  0.00    -0.107 NA
ATOM     16  C   UNL     1      35.347 -22.854 -16.393  0.00  0.00    +0.062 C 
ATOM     17  C   UNL     1      36.431 -22.529 -15.603  0.00  0.00    +0.056 C 
ATOM     18  C   UNL     1      36.579 -23.207 -14.404  0.00  0.00    +0.194 C 
ATOM     19  C   UNL     1      35.653 -24.182 -14.080  0.00  0.00    +0.278 C 
ATOM     20  C   UNL     1      37.506 -23.412 -12.290  0.00  0.00    +0.253 C 
ATOM     21  C   UNL     1      37.043 -24.855 -12.349  0.00  0.00    +0.254 C 
ENDBRANCH  11  16
ENDBRANCH   8  11
ENDBRANCH   2   8
BRANCH   1  22
ATOM     22  C   UNL     1      34.979 -17.881 -22.266  0.00  0.00    -0.071 C 
BRANCH  22  26
ATOM     23  F   UNL     1      35.495 -16.287 -25.091  0.00  0.00    -0.204 F 
ATOM     24  O   UNL     1      32.827 -14.187 -18.994  0.00  0.00    -0.270 OA
ATOM     25  N   UNL     1      33.664 -14.829 -21.054  0.00  0.00    -0.255 N 
ATOM     26  C   UNL     1      35.231 -16.397 -22.043  0.00  0.00    +0.025 C 
ATOM     27  C   UNL     1      34.613 -15.894 -20.704  0.00  0.00    +0.101 C 
ATOM     28  C   UNL     1      34.542 -15.528 -23.058  0.00  0.00    +0.018 C 
ATOM     29  C   UNL     1      33.669 -14.657 -22.430  0.00  0.00    +0.052 C 
ATOM     30  C   UNL     1      32.884 -13.726 -23.080  0.00  0.00    +0.014 C 
ATOM     31  C   UNL     1      34.659 -15.474 -24.434  0.00  0.00    +0.137 C 
ATOM     32  C   UNL     1      32.870 -14.077 -20.217  0.00  0.00    +0.253 C 
ATOM     33  C   UNL     1      32.993 -13.669 -24.466  0.00  0.00    +0.004 C 
ATOM     34  C   UNL     1      33.878 -14.540 -25.136  0.00  0.00    +0.029 C 
ATOM     35  C   UNL     1      32.019 -12.896 -22.245  0.00  0.00    +0.006 C 
ATOM     36  C   UNL     1      32.009 -13.057 -20.911  0.00  0.00    +0.058 C 
ENDBRANCH  22  26
ENDBRANCH   1  22
TORSDOF 5
ENDMDL
MODEL 8
REMARK VINA RESULT:     -11.2      1.675      2.240
REMARK  Name = 119057475
REMARK  5 active torsions:
REMARK  status: ('A' for Active; 'I' for Inactive)
REMARK    1  A    between atoms: N_1  and  C_22
REMARK    2  A    between atoms: C_2  and  N_8
REMARK    3  A    between atoms: N_8  and  C_11
REMARK    4  A    between atoms: C_11  and  C_16
REMARK    5  A    between atoms: C_22  and  C_26
REMARK                            x       y       z     vdW  Elec       q    Type
REMARK                         _______ _______ _______ _____ _____    ______ ____
ROOT
ATOM      1  N   UNL     1      33.639 -12.975 -22.760  0.00  0.00    +0.387 N 
ATOM      2  C   UNL     1      34.748 -15.683 -22.731  0.00  0.00    -0.066 C 
ATOM      3  C   UNL     1      34.569 -13.388 -21.699  0.00  0.00    -0.079 C 
ATOM      4  C   UNL     1      33.925 -13.676 -24.020  0.00  0.00    -0.079 C 
ATOM      5  C   UNL     1      34.485 -14.895 -21.446  0.00  0.00    -0.044 C 
ATOM      6  C   UNL     1      33.819 -15.193 -23.845  0.00  0.00    -0.044 C 
ATOM      7  H   UNL     1      32.696 -13.230 -22.466  0.00  0.00    -0.080 HD
ENDROOT
BRANCH   2   8
ATOM      8  N   UNL     1      34.571 -17.114 -22.493  0.00  0.00    +0.389 N 
ATOM      9  H   UNL     1      33.981 -17.504 -23.229  0.00  0.00    -0.084 HD
ATOM     10  H   UNL     1      34.132 -17.242 -21.581  0.00  0.00    -0.084 HD
BRANCH   8  11
ATOM     11  C   UNL     1      35.853 -17.802 -22.494  0.00  0.00    -0.032 C 
BRANCH  11  16
ATOM     12  O   UNL     1      34.059 -21.482 -19.881  0.00  0.00    -0.467 OA
ATOM     13  O   UNL     1      36.442 -21.367 -18.272  0.00  0.00    -0.453 OA
ATOM     14  N   UNL     1      37.082 -18.780 -20.633  0.00  0.00    -0.151 NA
ATOM     15  N   UNL     1      37.219 -19.661 -19.604  0.00  0.00    -0.107 NA
ATOM     16  C   UNL     1      35.954 -18.801 -21.373  0.00  0.00    +0.062 C 
ATOM     17  C   UNL     1      34.923 -19.689 -21.144  0.00  0.00    +0.056 C 
ATOM     18  C   UNL     1      35.071 -20.592 -20.104  0.00  0.00    +0.194 C 
ATOM     19  C   UNL     1      36.225 -20.537 -19.343  0.00  0.00    +0.278 C 
ATOM     20  C   UNL     1      34.462 -22.540 -19.006  0.00  0.00    +0.253 C 
ATOM     21  C   UNL     1      35.231 -21.981 -17.824  0.00  0.00    +0.254 C 
ENDBRANCH  11  16
ENDBRANCH   8  11
ENDBRANCH   2   8
BRANCH   1  22
ATOM     22  C   UNL     1      33.695 -11.527 -22.955  0.00  0.00    -0.071 C 
BRANCH  22  26
ATOM     23  F   UNL     1      32.410 -12.257 -20.023  0.00  0.00    -0.204 F 
ATOM     24  O   UNL     1      31.592  -6.732 -24.206  0.00  0.00    -0.270 OA
ATOM     25  N   UNL     1      31.850  -8.515 -22.755  0.00  0.00    -0.255 N 
ATOM     26  C   UNL     1      32.323 -10.896 -22.764  0.00  0.00    +0.025 C 
ATOM     27  C   UNL     1      32.129  -9.637 -23.661  0.00  0.00    +0.101 C 
ATOM     28  C   UNL     1      32.126 -10.336 -21.382  0.00  0.00    +0.018 C 
ATOM     29  C   UNL     1      31.856  -8.981 -21.448  0.00  0.00    +0.052 C 
ATOM     30  C   UNL     1      31.625  -8.170 -20.355  0.00  0.00    +0.014 C 
ATOM     31  C   UNL     1      32.163 -10.947 -20.143  0.00  0.00    +0.137 C 
ATOM     32  C   UNL     1      31.610  -7.196 -23.069  0.00  0.00    +0.253 C 
ATOM     33  C   UNL     1      31.664  -8.777 -19.103  0.00  0.00    +0.004 C 
ATOM     34  C   UNL     1      31.932 -10.159 -19.002  0.00  0.00    +0.029 C 
ATOM     35  C   UNL     1      31.361  -6.760 -20.624  0.00  0.00    +0.006 C 
ATOM     36  C   UNL     1      31.354  -6.301 -21.887  0.00  0.00    +0.058 C 
ENDBRANCH  22  26
ENDBRANCH   1  22
TORSDOF 5
ENDMDL
MODEL 9
REMARK VINA RESULT:     -10.9      4.546     11.786
REMARK  Name = 119057475
REMARK  5 active torsions:
REMARK  status: ('A' for Active; 'I' for Inactive)
REMARK    1  A    between atoms: N_1  and  C_22
REMARK    2  A    between atoms: C_2  and  N_8
REMARK    3  A    between atoms: N_8  and  C_11
REMARK    4  A    between atoms: C_11  and  C_16
REMARK    5  A    between atoms: C_22  and  C_26
REMARK                            x       y       z     vdW  Elec       q    Type
REMARK                         _______ _______ _______ _____ _____    ______ ____
ROOT
ATOM      1  N   UNL     1      31.350 -11.225 -21.535  0.00  0.00    +0.387 N 
ATOM      2  C   UNL     1      32.217  -8.687 -20.364  0.00  0.00    -0.066 C 
ATOM      3  C   UNL     1      32.270 -10.343 -22.267  0.00  0.00    -0.079 C 
ATOM      4  C   UNL     1      31.537 -11.100 -20.082  0.00  0.00    -0.079 C 
ATOM      5  C   UNL     1      32.060  -8.878 -21.874  0.00  0.00    -0.044 C 
ATOM      6  C   UNL     1      31.303  -9.661 -19.616  0.00  0.00    -0.044 C 
ATOM      7  H   UNL     1      30.397 -10.935 -21.755  0.00  0.00    -0.080 HD
ENDROOT
BRANCH   2   8
ATOM      8  N   UNL     1      31.921  -7.304 -19.996  0.00  0.00    +0.389 N 
ATOM      9  H   UNL     1      32.025  -7.198 -18.986  0.00  0.00    -0.084 HD
ATOM     10  H   UNL     1      30.966  -7.087 -20.278  0.00  0.00    -0.084 HD
BRANCH   8  11
ATOM     11  C   UNL     1      32.827  -6.384 -20.667  0.00  0.00    -0.032 C 
BRANCH  11  16
ATOM     12  O   UNL     1      32.663  -4.368 -25.083  0.00  0.00    -0.467 OA
ATOM     13  O   UNL     1      30.051  -3.363 -24.416  0.00  0.00    -0.453 OA
ATOM     14  N   UNL     1      30.886  -5.134 -21.443  0.00  0.00    -0.151 NA
ATOM     15  N   UNL     1      30.212  -4.399 -22.370  0.00  0.00    -0.107 NA
ATOM     16  C   UNL     1      32.125  -5.582 -21.730  0.00  0.00    +0.062 C 
ATOM     17  C   UNL     1      32.749  -5.339 -22.937  0.00  0.00    +0.056 C 
ATOM     18  C   UNL     1      32.056  -4.601 -23.882  0.00  0.00    +0.194 C 
ATOM     19  C   UNL     1      30.796  -4.131 -23.557  0.00  0.00    +0.278 C 
ATOM     20  C   UNL     1      31.740  -3.881 -26.063  0.00  0.00    +0.253 C 
ATOM     21  C   UNL     1      30.853  -2.809 -25.462  0.00  0.00    +0.254 C 
ENDBRANCH  11  16
ENDBRANCH   8  11
ENDBRANCH   2   8
BRANCH   1  22
ATOM     22  C   UNL     1      31.527 -12.614 -21.957  0.00  0.00    -0.071 C 
BRANCH  22  26
ATOM     23  F   UNL     1      33.722 -13.105 -19.564  0.00  0.00    -0.204 F 
ATOM     24  O   UNL     1      33.470 -15.351 -26.165  0.00  0.00    -0.270 OA
ATOM     25  N   UNL     1      33.594 -14.675 -23.956  0.00  0.00    -0.255 N 
ATOM     26  C   UNL     1      32.927 -12.844 -22.508  0.00  0.00    +0.025 C 
ATOM     27  C   UNL     1      32.898 -13.381 -23.970  0.00  0.00    +0.101 C 
ATOM     28  C   UNL     1      33.669 -13.933 -21.783  0.00  0.00    +0.018 C 
ATOM     29  C   UNL     1      34.023 -14.940 -22.664  0.00  0.00    +0.052 C 
ATOM     30  C   UNL     1      34.714 -16.082 -22.315  0.00  0.00    +0.014 C 
ATOM     31  C   UNL     1      34.030 -14.054 -20.455  0.00  0.00    +0.137 C 
ATOM     32  C   UNL     1      33.826 -15.537 -25.004  0.00  0.00    +0.253 C 
ATOM     33  C   UNL     1      35.078 -16.213 -20.978  0.00  0.00    +0.004 C 
ATOM     34  C   UNL     1      34.737 -15.202 -20.056  0.00  0.00    +0.029 C 
ATOM     35  C   UNL     1      34.993 -17.036 -23.385  0.00  0.00    +0.006 C 
ATOM     36  C   UNL     1      34.581 -16.786 -24.640  0.00  0.00    +0.058 C 
ENDBRANCH  22  26
ENDBRANCH   1  22
TORSDOF 5
ENDMDL
