MODEL 1
REMARK VINA RESULT:     -11.5      0.000      0.000
REMARK  Name = 11659487
REMARK  5 active torsions:
REMARK  status: ('A' for Active; 'I' for Inactive)
REMARK    1  A    between atoms: C_1  and  C_15
REMARK    2  A    between atoms: C_2  and  C_7
REMARK    3  A    between atoms: C_10  and  O_13
REMARK    4  A    between atoms: C_15  and  C_16
REMARK    5  A    between atoms: C_16  and  C_18
REMARK                            x       y       z     vdW  Elec       q    Type
REMARK                         _______ _______ _______ _____ _____    ______ ____
ROOT
ATOM      1  C   UNL     1      34.539 -21.155 -19.486  0.00  0.00    -0.022 C 
ATOM      2  C   UNL     1      35.325 -19.495 -21.056  0.00  0.00    -0.000 C 
ATOM      3  C   UNL     1      34.288 -20.268 -20.533  0.00  0.00    -0.004 C 
ATOM      4  C   UNL     1      35.828 -21.271 -18.965  0.00  0.00    -0.004 C 
ATOM      5  C   UNL     1      36.613 -19.611 -20.535  0.00  0.00    -0.000 C 
ATOM      6  C   UNL     1      36.865 -20.499 -19.489  0.00  0.00    -0.000 C 
ENDROOT
BRANCH   2   7
ATOM      7  C   UNL     1      35.064 -18.574 -22.141  0.00  0.00    +0.003 C 
ATOM      8  C   UNL     1      35.326 -17.214 -21.979  0.00  0.00    +0.037 C 
ATOM      9  C   UNL     1      34.551 -19.046 -23.349  0.00  0.00    +0.000 C 
ATOM     10  C   UNL     1      35.075 -16.326 -23.025  0.00  0.00    +0.139 C 
ATOM     11  C   UNL     1      34.300 -18.159 -24.395  0.00  0.00    +0.003 C 
ATOM     12  C   UNL     1      34.562 -16.798 -24.233  0.00  0.00    +0.037 C 
BRANCH  10  13
ATOM     13  O   UNL     1      35.331 -14.998 -22.867  0.00  0.00    -0.471 OA
ATOM     14  C   UNL     1      34.211 -14.141 -22.656  0.00  0.00    +0.252 C 
ENDBRANCH  10  13
ENDBRANCH   2   7
BRANCH   1  15
ATOM     15  C   UNL     1      33.431 -21.981 -18.925  0.00  0.00    +0.034 C 
BRANCH  15  16
ATOM     16  C   UNL     1      33.852 -22.874 -17.741  0.00  0.00    +0.064 C 
BRANCH  16  18
ATOM     17  N   UNL     1      31.534 -22.790 -17.043  0.00  0.00    -0.396 NA
ATOM     18  C   UNL     1      32.811 -22.943 -16.650  0.00  0.00    +0.110 C 
ATOM     19  C   UNL     1      33.225 -23.151 -15.352  0.00  0.00    +0.023 C 
ATOM     20  C   UNL     1      32.241 -23.209 -14.371  0.00  0.00    -0.015 C 
ATOM     21  C   UNL     1      30.607 -22.851 -16.063  0.00  0.00    +0.158 C 
ATOM     22  C   UNL     1      30.905 -23.057 -14.724  0.00  0.00    +0.100 C 
ATOM     23  N   UNL     1      29.240 -22.700 -16.406  0.00  0.00    -0.336 N 
ATOM     24  H   UNL     1      28.983 -22.551 -17.344  0.00  0.00    +0.144 HD
ATOM     25  H   UNL     1      28.549 -22.741 -15.706  0.00  0.00    +0.144 HD
ENDBRANCH  16  18
ENDBRANCH  15  16
ENDBRANCH   1  15
TORSDOF 5
ENDMDL
MODEL 2
REMARK VINA RESULT:     -11.3      4.242      8.273
REMARK  Name = 11659487
REMARK  5 active torsions:
REMARK  status: ('A' for Active; 'I' for Inactive)
REMARK    1  A    between atoms: C_1  and  C_15
REMARK    2  A    between atoms: C_2  and  C_7
REMARK    3  A    between atoms: C_10  and  O_13
REMARK    4  A    between atoms: C_15  and  C_16
REMARK    5  A    between atoms: C_16  and  C_18
REMARK                            x       y       z     vdW  Elec       q    Type
REMARK                         _______ _______ _______ _____ _____    ______ ____
ROOT
ATOM      1  C   UNL     1      34.964 -16.786 -22.763  0.00  0.00    -0.022 C 
ATOM      2  C   UNL     1      34.887 -19.038 -21.892  0.00  0.00    -0.000 C 
ATOM      3  C   UNL     1      35.088 -17.672 -21.693  0.00  0.00    -0.004 C 
ATOM      4  C   UNL     1      34.643 -17.267 -24.032  0.00  0.00    -0.004 C 
ATOM      5  C   UNL     1      34.565 -19.519 -23.160  0.00  0.00    -0.000 C 
ATOM      6  C   UNL     1      34.443 -18.633 -24.231  0.00  0.00    -0.000 C 
ENDROOT
BRANCH   2   7
ATOM      7  C   UNL     1      35.013 -19.957 -20.781  0.00  0.00    +0.003 C 
ATOM      8  C   UNL     1      33.881 -20.584 -20.262  0.00  0.00    +0.037 C 
ATOM      9  C   UNL     1      36.268 -20.216 -20.230  0.00  0.00    +0.000 C 
ATOM     10  C   UNL     1      34.003 -21.470 -19.192  0.00  0.00    +0.139 C 
ATOM     11  C   UNL     1      36.391 -21.102 -19.160  0.00  0.00    +0.003 C 
ATOM     12  C   UNL     1      35.258 -21.730 -18.641  0.00  0.00    +0.037 C 
BRANCH  10  13
ATOM     13  O   UNL     1      32.898 -22.083 -18.685  0.00  0.00    -0.471 OA
ATOM     14  C   UNL     1      33.058 -22.812 -17.470  0.00  0.00    +0.252 C 
ENDBRANCH  10  13
ENDBRANCH   2   7
BRANCH   1  15
ATOM     15  C   UNL     1      35.178 -15.325 -22.551  0.00  0.00    +0.034 C 
BRANCH  15  16
ATOM     16  C   UNL     1      34.074 -14.435 -23.157  0.00  0.00    +0.064 C 
BRANCH  16  18
ATOM     17  N   UNL     1      32.373 -12.814 -22.571  0.00  0.00    -0.396 NA
ATOM     18  C   UNL     1      33.227 -13.746 -22.114  0.00  0.00    +0.110 C 
ATOM     19  C   UNL     1      33.381 -14.107 -20.793  0.00  0.00    +0.023 C 
ATOM     20  C   UNL     1      32.586 -13.454 -19.858  0.00  0.00    -0.015 C 
ATOM     21  C   UNL     1      31.618 -12.200 -21.633  0.00  0.00    +0.158 C 
ATOM     22  C   UNL     1      31.685 -12.481 -20.277  0.00  0.00    +0.100 C 
ATOM     23  N   UNL     1      30.694 -11.208 -22.045  0.00  0.00    -0.336 N 
ATOM     24  H   UNL     1      30.613 -10.976 -22.998  0.00  0.00    +0.144 HD
ATOM     25  H   UNL     1      30.135 -10.748 -21.377  0.00  0.00    +0.144 HD
ENDBRANCH  16  18
ENDBRANCH  15  16
ENDBRANCH   1  15
TORSDOF 5
ENDMDL
MODEL 3
REMARK VINA RESULT:     -10.8      4.424      9.071
REMARK  Name = 11659487
REMARK  5 active torsions:
REMARK  status: ('A' for Active; 'I' for Inactive)
REMARK    1  A    between atoms: C_1  and  C_15
REMARK    2  A    between atoms: C_2  and  C_7
REMARK    3  A    between atoms: C_10  and  O_13
REMARK    4  A    between atoms: C_15  and  C_16
REMARK    5  A    between atoms: C_16  and  C_18
REMARK                            x       y       z     vdW  Elec       q    Type
REMARK                         _______ _______ _______ _____ _____    ______ ____
ROOT
ATOM      1  C   UNL     1      34.907 -16.135 -21.863  0.00  0.00    -0.022 C 
ATOM      2  C   UNL     1      35.038 -18.522 -21.508  0.00  0.00    -0.000 C 
ATOM      3  C   UNL     1      34.978 -17.225 -20.995  0.00  0.00    -0.004 C 
ATOM      4  C   UNL     1      34.897 -16.342 -23.243  0.00  0.00    -0.004 C 
ATOM      5  C   UNL     1      35.028 -18.728 -22.887  0.00  0.00    -0.000 C 
ATOM      6  C   UNL     1      34.958 -17.638 -23.755  0.00  0.00    -0.000 C 
ENDROOT
BRANCH   2   7
ATOM      7  C   UNL     1      35.110 -19.652 -20.608  0.00  0.00    +0.003 C 
ATOM      8  C   UNL     1      33.941 -20.280 -20.181  0.00  0.00    +0.037 C 
ATOM      9  C   UNL     1      36.350 -20.114 -20.167  0.00  0.00    +0.000 C 
ATOM     10  C   UNL     1      34.011 -21.370 -19.314  0.00  0.00    +0.139 C 
ATOM     11  C   UNL     1      36.421 -21.204 -19.300  0.00  0.00    +0.003 C 
ATOM     12  C   UNL     1      35.251 -21.833 -18.873  0.00  0.00    +0.037 C 
BRANCH  10  13
ATOM     13  O   UNL     1      32.869 -21.984 -18.897  0.00  0.00    -0.471 OA
ATOM     14  C   UNL     1      32.918 -22.668 -17.647  0.00  0.00    +0.252 C 
ENDBRANCH  10  13
ENDBRANCH   2   7
BRANCH   1  15
ATOM     15  C   UNL     1      34.842 -14.749 -21.317  0.00  0.00    +0.034 C 
BRANCH  15  16
ATOM     16  C   UNL     1      33.418 -14.163 -21.259  0.00  0.00    +0.064 C 
BRANCH  16  18
ATOM     17  N   UNL     1      32.215 -12.131 -21.801  0.00  0.00    -0.396 NA
ATOM     18  C   UNL     1      33.245 -12.935 -22.120  0.00  0.00    +0.110 C 
ATOM     19  C   UNL     1      34.131 -12.721 -23.154  0.00  0.00    +0.023 C 
ATOM     20  C   UNL     1      33.945 -11.581 -23.928  0.00  0.00    -0.015 C 
ATOM     21  C   UNL     1      32.065 -11.034 -22.575  0.00  0.00    +0.158 C 
ATOM     22  C   UNL     1      32.894 -10.716 -23.640  0.00  0.00    +0.100 C 
ATOM     23  N   UNL     1      31.000 -10.142 -22.294  0.00  0.00    -0.336 N 
ATOM     24  H   UNL     1      30.387 -10.329 -21.548  0.00  0.00    +0.144 HD
ATOM     25  H   UNL     1      30.874  -9.337 -22.847  0.00  0.00    +0.144 HD
ENDBRANCH  16  18
ENDBRANCH  15  16
ENDBRANCH   1  15
TORSDOF 5
ENDMDL
MODEL 4
REMARK VINA RESULT:     -10.8      3.668      8.567
REMARK  Name = 11659487
REMARK  5 active torsions:
REMARK  status: ('A' for Active; 'I' for Inactive)
REMARK    1  A    between atoms: C_1  and  C_15
REMARK    2  A    between atoms: C_2  and  C_7
REMARK    3  A    between atoms: C_10  and  O_13
REMARK    4  A    between atoms: C_15  and  C_16
REMARK    5  A    between atoms: C_16  and  C_18
REMARK                            x       y       z     vdW  Elec       q    Type
REMARK                         _______ _______ _______ _____ _____    ______ ____
ROOT
ATOM      1  C   UNL     1      34.377 -22.654 -17.558  0.00  0.00    -0.022 C 
ATOM      2  C   UNL     1      32.651 -23.145 -15.940  0.00  0.00    -0.000 C 
ATOM      3  C   UNL     1      33.035 -22.885 -17.257  0.00  0.00    -0.004 C 
ATOM      4  C   UNL     1      35.334 -22.680 -16.544  0.00  0.00    -0.004 C 
ATOM      5  C   UNL     1      33.607 -23.172 -14.927  0.00  0.00    -0.000 C 
ATOM      6  C   UNL     1      34.950 -22.939 -15.228  0.00  0.00    -0.000 C 
ENDROOT
BRANCH   2   7
ATOM      7  C   UNL     1      31.259 -23.386 -15.628  0.00  0.00    +0.003 C 
ATOM      8  C   UNL     1      30.272 -22.549 -16.147  0.00  0.00    +0.037 C 
ATOM      9  C   UNL     1      30.904 -24.458 -14.809  0.00  0.00    +0.000 C 
ATOM     10  C   UNL     1      28.930 -22.783 -15.845  0.00  0.00    +0.139 C 
ATOM     11  C   UNL     1      29.563 -24.692 -14.508  0.00  0.00    +0.003 C 
ATOM     12  C   UNL     1      28.575 -23.854 -15.027  0.00  0.00    +0.037 C 
BRANCH  10  13
ATOM     13  O   UNL     1      27.966 -21.965 -16.352  0.00  0.00    -0.471 OA
ATOM     14  C   UNL     1      26.625 -22.200 -15.926  0.00  0.00    +0.252 C 
ENDBRANCH  10  13
ENDBRANCH   2   7
BRANCH   1  15
ATOM     15  C   UNL     1      34.789 -22.377 -18.964  0.00  0.00    +0.034 C 
BRANCH  15  16
ATOM     16  C   UNL     1      34.086 -21.158 -19.596  0.00  0.00    +0.064 C 
BRANCH  16  18
ATOM     17  N   UNL     1      34.538 -19.613 -21.405  0.00  0.00    -0.396 NA
ATOM     18  C   UNL     1      35.035 -20.235 -20.321  0.00  0.00    +0.110 C 
ATOM     19  C   UNL     1      36.318 -20.092 -19.839  0.00  0.00    +0.023 C 
ATOM     20  C   UNL     1      37.166 -19.234 -20.530  0.00  0.00    -0.015 C 
ATOM     21  C   UNL     1      35.391 -18.788 -22.050  0.00  0.00    +0.158 C 
ATOM     22  C   UNL     1      36.703 -18.566 -21.658  0.00  0.00    +0.100 C 
ATOM     23  N   UNL     1      34.934 -18.098 -23.201  0.00  0.00    -0.336 N 
ATOM     24  H   UNL     1      34.011 -18.226 -23.516  0.00  0.00    +0.144 HD
ATOM     25  H   UNL     1      35.541 -17.492 -23.685  0.00  0.00    +0.144 HD
ENDBRANCH  16  18
ENDBRANCH  15  16
ENDBRANCH   1  15
TORSDOF 5
ENDMDL
MODEL 5
REMARK VINA RESULT:     -10.8      3.241      6.134
REMARK  Name = 11659487
REMARK  5 active torsions:
REMARK  status: ('A' for Active; 'I' for Inactive)
REMARK    1  A    between atoms: C_1  and  C_15
REMARK    2  A    between atoms: C_2  and  C_7
REMARK    3  A    between atoms: C_10  and  O_13
REMARK    4  A    between atoms: C_15  and  C_16
REMARK    5  A    between atoms: C_16  and  C_18
REMARK                            x       y       z     vdW  Elec       q    Type
REMARK                         _______ _______ _______ _____ _____    ______ ____
ROOT
ATOM      1  C   UNL     1      35.038 -16.517 -22.410  0.00  0.00    -0.022 C 
ATOM      2  C   UNL     1      33.869 -14.582 -23.263  0.00  0.00    -0.000 C 
ATOM      3  C   UNL     1      34.507 -15.243 -22.212  0.00  0.00    -0.004 C 
ATOM      4  C   UNL     1      34.930 -17.132 -23.658  0.00  0.00    -0.004 C 
ATOM      5  C   UNL     1      33.762 -15.196 -24.511  0.00  0.00    -0.000 C 
ATOM      6  C   UNL     1      34.292 -16.471 -24.708  0.00  0.00    -0.000 C 
ENDROOT
BRANCH   2   7
ATOM      7  C   UNL     1      33.320 -13.260 -23.058  0.00  0.00    +0.003 C 
ATOM      8  C   UNL     1      32.369 -13.046 -22.060  0.00  0.00    +0.037 C 
ATOM      9  C   UNL     1      33.742 -12.198 -23.857  0.00  0.00    +0.000 C 
ATOM     10  C   UNL     1      31.840 -11.770 -21.863  0.00  0.00    +0.139 C 
ATOM     11  C   UNL     1      33.213 -10.922 -23.660  0.00  0.00    +0.003 C 
ATOM     12  C   UNL     1      32.262 -10.708 -22.662  0.00  0.00    +0.037 C 
BRANCH  10  13
ATOM     13  O   UNL     1      30.912 -11.562 -20.888  0.00  0.00    -0.471 OA
ATOM     14  C   UNL     1      31.053 -10.383 -20.098  0.00  0.00    +0.252 C 
ENDBRANCH  10  13
ENDBRANCH   2   7
BRANCH   1  15
ATOM     15  C   UNL     1      35.720 -17.225 -21.288  0.00  0.00    +0.034 C 
BRANCH  15  16
ATOM     16  C   UNL     1      36.073 -18.694 -21.595  0.00  0.00    +0.064 C 
BRANCH  16  18
ATOM     17  N   UNL     1      36.132 -20.312 -19.793  0.00  0.00    -0.396 NA
ATOM     18  C   UNL     1      35.362 -19.676 -20.694  0.00  0.00    +0.110 C 
ATOM     19  C   UNL     1      34.005 -19.854 -20.849  0.00  0.00    +0.023 C 
ATOM     20  C   UNL     1      33.382 -20.766 -20.004  0.00  0.00    -0.015 C 
ATOM     21  C   UNL     1      35.492 -21.189 -18.990  0.00  0.00    +0.158 C 
ATOM     22  C   UNL     1      34.132 -21.450 -19.054  0.00  0.00    +0.100 C 
ATOM     23  N   UNL     1      36.242 -21.894 -18.016  0.00  0.00    -0.336 N 
ATOM     24  H   UNL     1      37.210 -21.741 -17.936  0.00  0.00    +0.144 HD
ATOM     25  H   UNL     1      35.794 -22.539 -17.421  0.00  0.00    +0.144 HD
ENDBRANCH  16  18
ENDBRANCH  15  16
ENDBRANCH   1  15
TORSDOF 5
ENDMDL
MODEL 6
REMARK VINA RESULT:     -10.8      4.434      8.317
REMARK  Name = 11659487
REMARK  5 active torsions:
REMARK  status: ('A' for Active; 'I' for Inactive)
REMARK    1  A    between atoms: C_1  and  C_15
REMARK    2  A    between atoms: C_2  and  C_7
REMARK    3  A    between atoms: C_10  and  O_13
REMARK    4  A    between atoms: C_15  and  C_16
REMARK    5  A    between atoms: C_16  and  C_18
REMARK                            x       y       z     vdW  Elec       q    Type
REMARK                         _______ _______ _______ _____ _____    ______ ____
ROOT
ATOM      1  C   UNL     1      35.074 -17.084 -22.049  0.00  0.00    -0.022 C 
ATOM      2  C   UNL     1      34.782 -19.369 -21.321  0.00  0.00    -0.000 C 
ATOM      3  C   UNL     1      34.994 -18.023 -21.021  0.00  0.00    -0.004 C 
ATOM      4  C   UNL     1      34.946 -17.492 -23.378  0.00  0.00    -0.004 C 
ATOM      5  C   UNL     1      34.654 -19.777 -22.648  0.00  0.00    -0.000 C 
ATOM      6  C   UNL     1      34.736 -18.838 -23.677  0.00  0.00    -0.000 C 
ENDROOT
BRANCH   2   7
ATOM      7  C   UNL     1      34.697 -20.343 -20.254  0.00  0.00    +0.003 C 
ATOM      8  C   UNL     1      35.851 -20.746 -19.583  0.00  0.00    +0.037 C 
ATOM      9  C   UNL     1      33.460 -20.878 -19.896  0.00  0.00    +0.000 C 
ATOM     10  C   UNL     1      35.768 -21.684 -18.554  0.00  0.00    +0.139 C 
ATOM     11  C   UNL     1      33.376 -21.816 -18.868  0.00  0.00    +0.003 C 
ATOM     12  C   UNL     1      34.531 -22.219 -18.196  0.00  0.00    +0.037 C 
BRANCH  10  13
ATOM     13  O   UNL     1      36.895 -22.077 -17.898  0.00  0.00    -0.471 OA
ATOM     14  C   UNL     1      36.858 -22.055 -16.473  0.00  0.00    +0.252 C 
ENDBRANCH  10  13
ENDBRANCH   2   7
BRANCH   1  15
ATOM     15  C   UNL     1      35.300 -15.645 -21.730  0.00  0.00    +0.034 C 
BRANCH  15  16
ATOM     16  C   UNL     1      34.515 -14.672 -22.633  0.00  0.00    +0.064 C 
BRANCH  16  18
ATOM     17  N   UNL     1      33.010 -12.776 -22.537  0.00  0.00    -0.396 NA
ATOM     18  C   UNL     1      33.519 -13.829 -21.873  0.00  0.00    +0.110 C 
ATOM     19  C   UNL     1      33.205 -14.181 -20.579  0.00  0.00    +0.023 C 
ATOM     20  C   UNL     1      32.284 -13.384 -19.907  0.00  0.00    -0.015 C 
ATOM     21  C   UNL     1      32.120 -12.025 -21.853  0.00  0.00    +0.158 C 
ATOM     22  C   UNL     1      31.727 -12.284 -20.548  0.00  0.00    +0.100 C 
ATOM     23  N   UNL     1      31.542 -10.901 -22.493  0.00  0.00    -0.336 N 
ATOM     24  H   UNL     1      31.792 -10.679 -23.418  0.00  0.00    +0.144 HD
ATOM     25  H   UNL     1      30.891 -10.340 -22.011  0.00  0.00    +0.144 HD
ENDBRANCH  16  18
ENDBRANCH  15  16
ENDBRANCH   1  15
TORSDOF 5
ENDMDL
MODEL 7
REMARK VINA RESULT:     -10.6      3.381      6.409
REMARK  Name = 11659487
REMARK  5 active torsions:
REMARK  status: ('A' for Active; 'I' for Inactive)
REMARK    1  A    between atoms: C_1  and  C_15
REMARK    2  A    between atoms: C_2  and  C_7
REMARK    3  A    between atoms: C_10  and  O_13
REMARK    4  A    between atoms: C_15  and  C_16
REMARK    5  A    between atoms: C_16  and  C_18
REMARK                            x       y       z     vdW  Elec       q    Type
REMARK                         _______ _______ _______ _____ _____    ______ ____
ROOT
ATOM      1  C   UNL     1      34.949 -16.254 -22.356  0.00  0.00    -0.022 C 
ATOM      2  C   UNL     1      33.594 -14.294 -22.757  0.00  0.00    -0.000 C 
ATOM      3  C   UNL     1      34.301 -15.115 -21.878  0.00  0.00    -0.004 C 
ATOM      4  C   UNL     1      34.888 -16.572 -23.713  0.00  0.00    -0.004 C 
ATOM      5  C   UNL     1      33.534 -14.612 -24.113  0.00  0.00    -0.000 C 
ATOM      6  C   UNL     1      34.181 -15.752 -24.591  0.00  0.00    -0.000 C 
ENDROOT
BRANCH   2   7
ATOM      7  C   UNL     1      32.923 -13.112 -22.261  0.00  0.00    +0.003 C 
ATOM      8  C   UNL     1      32.840 -11.971 -23.058  0.00  0.00    +0.037 C 
ATOM      9  C   UNL     1      32.359 -13.114 -20.986  0.00  0.00    +0.000 C 
ATOM     10  C   UNL     1      32.192 -10.831 -22.580  0.00  0.00    +0.139 C 
ATOM     11  C   UNL     1      31.712 -11.975 -20.507  0.00  0.00    +0.003 C 
ATOM     12  C   UNL     1      31.628 -10.833 -21.305  0.00  0.00    +0.037 C 
BRANCH  10  13
ATOM     13  O   UNL     1      32.111  -9.717 -23.358  0.00  0.00    -0.471 OA
ATOM     14  C   UNL     1      31.476  -8.573 -22.791  0.00  0.00    +0.252 C 
ENDBRANCH  10  13
ENDBRANCH   2   7
BRANCH   1  15
ATOM     15  C   UNL     1      35.705 -17.132 -21.417  0.00  0.00    +0.034 C 
BRANCH  15  16
ATOM     16  C   UNL     1      35.826 -18.595 -21.887  0.00  0.00    +0.064 C 
BRANCH  16  18
ATOM     17  N   UNL     1      36.186 -20.158 -20.072  0.00  0.00    -0.396 NA
ATOM     18  C   UNL     1      35.282 -19.588 -20.888  0.00  0.00    +0.110 C 
ATOM     19  C   UNL     1      33.928 -19.841 -20.877  0.00  0.00    +0.023 C 
ATOM     20  C   UNL     1      33.459 -20.760 -19.945  0.00  0.00    -0.015 C 
ATOM     21  C   UNL     1      35.693 -21.045 -19.180  0.00  0.00    +0.158 C 
ATOM     22  C   UNL     1      34.351 -21.378 -19.076  0.00  0.00    +0.100 C 
ATOM     23  N   UNL     1      36.590 -21.683 -18.287  0.00  0.00    -0.336 N 
ATOM     24  H   UNL     1      37.551 -21.477 -18.325  0.00  0.00    +0.144 HD
ATOM     25  H   UNL     1      36.251 -22.333 -17.629  0.00  0.00    +0.144 HD
ENDBRANCH  16  18
ENDBRANCH  15  16
ENDBRANCH   1  15
TORSDOF 5
ENDMDL
MODEL 8
REMARK VINA RESULT:     -10.3      1.754      2.890
REMARK  Name = 11659487
REMARK  5 active torsions:
REMARK  status: ('A' for Active; 'I' for Inactive)
REMARK    1  A    between atoms: C_1  and  C_15
REMARK    2  A    between atoms: C_2  and  C_7
REMARK    3  A    between atoms: C_10  and  O_13
REMARK    4  A    between atoms: C_15  and  C_16
REMARK    5  A    between atoms: C_16  and  C_18
REMARK                            x       y       z     vdW  Elec       q    Type
REMARK                         _______ _______ _______ _____ _____    ______ ____
ROOT
ATOM      1  C   UNL     1      34.309 -22.449 -17.608  0.00  0.00    -0.022 C 
ATOM      2  C   UNL     1      35.667 -21.016 -19.001  0.00  0.00    -0.000 C 
ATOM      3  C   UNL     1      34.450 -21.646 -18.740  0.00  0.00    -0.004 C 
ATOM      4  C   UNL     1      35.386 -22.623 -16.739  0.00  0.00    -0.004 C 
ATOM      5  C   UNL     1      36.743 -21.189 -18.132  0.00  0.00    -0.000 C 
ATOM      6  C   UNL     1      36.603 -21.994 -17.001  0.00  0.00    -0.000 C 
ENDROOT
BRANCH   2   7
ATOM      7  C   UNL     1      35.812 -20.181 -20.174  0.00  0.00    +0.003 C 
ATOM      8  C   UNL     1      34.771 -20.088 -21.097  0.00  0.00    +0.037 C 
ATOM      9  C   UNL     1      36.993 -19.469 -20.382  0.00  0.00    +0.000 C 
ATOM     10  C   UNL     1      34.911 -19.283 -22.228  0.00  0.00    +0.139 C 
ATOM     11  C   UNL     1      37.134 -18.664 -21.512  0.00  0.00    +0.003 C 
ATOM     12  C   UNL     1      36.092 -18.570 -22.435  0.00  0.00    +0.037 C 
BRANCH  10  13
ATOM     13  O   UNL     1      33.894 -19.191 -23.129  0.00  0.00    -0.471 OA
ATOM     14  C   UNL     1      34.175 -18.529 -24.360  0.00  0.00    +0.252 C 
ENDBRANCH  10  13
ENDBRANCH   2   7
BRANCH   1  15
ATOM     15  C   UNL     1      33.009 -23.123 -17.328  0.00  0.00    +0.034 C 
BRANCH  15  16
ATOM     16  C   UNL     1      32.684 -23.261 -15.827  0.00  0.00    +0.064 C 
BRANCH  16  18
ATOM     17  N   UNL     1      30.332 -22.974 -16.328  0.00  0.00    -0.396 NA
ATOM     18  C   UNL     1      31.238 -23.604 -15.561  0.00  0.00    +0.110 C 
ATOM     19  C   UNL     1      30.946 -24.518 -14.572  0.00  0.00    +0.023 C 
ATOM     20  C   UNL     1      29.605 -24.813 -14.353  0.00  0.00    -0.015 C 
ATOM     21  C   UNL     1      29.040 -23.285 -16.086  0.00  0.00    +0.158 C 
ATOM     22  C   UNL     1      28.627 -24.189 -15.120  0.00  0.00    +0.100 C 
ATOM     23  N   UNL     1      28.031 -22.658 -16.860  0.00  0.00    -0.336 N 
ATOM     24  H   UNL     1      28.278 -22.009 -17.557  0.00  0.00    +0.144 HD
ATOM     25  H   UNL     1      27.083 -22.871 -16.698  0.00  0.00    +0.144 HD
ENDBRANCH  16  18
ENDBRANCH  15  16
ENDBRANCH   1  15
TORSDOF 5
ENDMDL
MODEL 9
REMARK VINA RESULT:     -10.3      3.665      4.893
REMARK  Name = 11659487
REMARK  5 active torsions:
REMARK  status: ('A' for Active; 'I' for Inactive)
REMARK    1  A    between atoms: C_1  and  C_15
REMARK    2  A    between atoms: C_2  and  C_7
REMARK    3  A    between atoms: C_10  and  O_13
REMARK    4  A    between atoms: C_15  and  C_16
REMARK    5  A    between atoms: C_16  and  C_18
REMARK                            x       y       z     vdW  Elec       q    Type
REMARK                         _______ _______ _______ _____ _____    ______ ____
ROOT
ATOM      1  C   UNL     1      35.575 -22.245 -17.305  0.00  0.00    -0.022 C 
ATOM      2  C   UNL     1      35.136 -21.029 -19.347  0.00  0.00    -0.000 C 
ATOM      3  C   UNL     1      35.998 -21.366 -18.302  0.00  0.00    -0.004 C 
ATOM      4  C   UNL     1      34.290 -22.786 -17.351  0.00  0.00    -0.004 C 
ATOM      5  C   UNL     1      33.852 -21.570 -19.393  0.00  0.00    -0.000 C 
ATOM      6  C   UNL     1      33.428 -22.448 -18.395  0.00  0.00    -0.000 C 
ENDROOT
BRANCH   2   7
ATOM      7  C   UNL     1      35.576 -20.119 -20.382  0.00  0.00    +0.003 C 
ATOM      8  C   UNL     1      34.734 -19.821 -21.452  0.00  0.00    +0.037 C 
ATOM      9  C   UNL     1      36.842 -19.539 -20.308  0.00  0.00    +0.000 C 
ATOM     10  C   UNL     1      35.157 -18.942 -22.450  0.00  0.00    +0.139 C 
ATOM     11  C   UNL     1      37.266 -18.661 -21.305  0.00  0.00    +0.003 C 
ATOM     12  C   UNL     1      36.423 -18.362 -22.376  0.00  0.00    +0.037 C 
BRANCH  10  13
ATOM     13  O   UNL     1      34.335 -18.651 -23.495  0.00  0.00    -0.471 OA
ATOM     14  C   UNL     1      34.568 -17.424 -24.183  0.00  0.00    +0.252 C 
ENDBRANCH  10  13
ENDBRANCH   2   7
BRANCH   1  15
ATOM     15  C   UNL     1      36.496 -22.606 -16.188  0.00  0.00    +0.034 C 
BRANCH  15  16
ATOM     16  C   UNL     1      35.775 -23.067 -14.906  0.00  0.00    +0.064 C 
BRANCH  16  18
ATOM     17  N   UNL     1      37.028 -23.517 -12.883  0.00  0.00    -0.396 NA
ATOM     18  C   UNL     1      36.605 -24.005 -14.062  0.00  0.00    +0.110 C 
ATOM     19  C   UNL     1      36.871 -25.268 -14.543  0.00  0.00    +0.023 C 
ATOM     20  C   UNL     1      37.638 -26.107 -13.742  0.00  0.00    -0.015 C 
ATOM     21  C   UNL     1      37.771 -24.360 -12.132  0.00  0.00    +0.158 C 
ATOM     22  C   UNL     1      38.101 -25.652 -12.512  0.00  0.00    +0.100 C 
ATOM     23  N   UNL     1      38.249 -23.912 -10.875  0.00  0.00    -0.336 N 
ATOM     24  H   UNL     1      38.040 -23.002 -10.566  0.00  0.00    +0.144 HD
ATOM     25  H   UNL     1      38.793 -24.512 -10.314  0.00  0.00    +0.144 HD
ENDBRANCH  16  18
ENDBRANCH  15  16
ENDBRANCH   1  15
TORSDOF 5
ENDMDL
