MODEL 1
REMARK VINA RESULT:     -10.3      0.000      0.000
REMARK  Name = 60848
REMARK  4 active torsions:
REMARK  status: ('A' for Active; 'I' for Inactive)
REMARK    1  A    between atoms: C_8  and  C_10
REMARK    2  A    between atoms: C_16  and  O_19
REMARK    3  A    between atoms: C_23  and  N_27
REMARK    4  A    between atoms: N_27  and  C_29
REMARK                            x       y       z     vdW  Elec       q    Type
REMARK                         _______ _______ _______ _____ _____    ______ ____
ROOT
ATOM      1  O   UNL     1      31.998 -22.451 -17.695  0.00  0.00    -0.269 OA
ATOM      2  N   UNL     1      35.521 -23.549 -14.511  0.00  0.00    -0.289 N 
ATOM      3  N   UNL     1      34.071 -23.080 -16.884  0.00  0.00    -0.272 N 
ATOM      4  C   UNL     1      34.051 -23.613 -14.487  0.00  0.00    +0.114 C 
ATOM      5  C   UNL     1      36.116 -22.718 -15.567  0.00  0.00    +0.114 C 
ATOM      6  C   UNL     1      33.507 -23.966 -15.870  0.00  0.00    +0.115 C 
ATOM      7  C   UNL     1      35.536 -23.096 -16.928  0.00  0.00    +0.115 C 
ATOM      8  C   UNL     1      33.226 -22.366 -17.750  0.00  0.00    +0.263 C 
ATOM      9  N   UNL     1      35.593 -23.308 -12.129  0.00  0.00    -0.228 NA
ATOM     10  C   UNL     1      36.197 -23.710 -13.296  0.00  0.00    +0.145 C 
ATOM     11  C   UNL     1      37.486 -24.278 -13.277  0.00  0.00    +0.077 C 
ATOM     12  C   UNL     1      38.150 -24.434 -12.066  0.00  0.00    +0.019 C 
ATOM     13  C   UNL     1      36.270 -23.475 -10.971  0.00  0.00    +0.100 C 
ATOM     14  C   UNL     1      37.538 -24.027 -10.886  0.00  0.00    +0.022 C 
ENDROOT
BRANCH   8  16
ATOM     15  N   UNL     1      35.201 -21.248 -18.771  0.00  0.00    -0.309 N 
ATOM     16  C   UNL     1      33.858 -21.497 -18.736  0.00  0.00    +0.103 C 
ATOM     17  C   UNL     1      33.265 -20.803 -19.760  0.00  0.00    +0.021 C 
ATOM     18  C   UNL     1      34.289 -20.098 -20.451  0.00  0.00    +0.018 C 
ATOM     19  C   UNL     1      35.495 -20.394 -19.810  0.00  0.00    +0.049 C 
ATOM     20  C   UNL     1      34.308 -19.233 -21.564  0.00  0.00    +0.038 C 
ATOM     21  C   UNL     1      36.722 -19.868 -20.228  0.00  0.00    +0.018 C 
ATOM     22  C   UNL     1      35.529 -18.698 -21.993  0.00  0.00    +0.139 C 
ATOM     23  C   UNL     1      36.715 -19.012 -21.333  0.00  0.00    +0.038 C 
ATOM     24  H   UNL     1      35.862 -21.623 -18.144  0.00  0.00    +0.152 HD
BRANCH  22  25
ATOM     25  O   UNL     1      35.554 -17.861 -23.068  0.00  0.00    -0.471 OA
ATOM     26  C   UNL     1      35.182 -16.504 -22.840  0.00  0.00    +0.252 C 
ENDBRANCH  22  25
ENDBRANCH   8  16
BRANCH  11  27
ATOM     27  N   UNL     1      38.105 -24.689 -14.473  0.00  0.00    -0.330 N 
ATOM     28  H   UNL     1      37.974 -24.144 -15.282  0.00  0.00    +0.147 HD
BRANCH  27  29
ATOM     29  C   UNL     1      38.916 -25.866 -14.567  0.00  0.00    +0.087 C 
ATOM     30  C   UNL     1      40.394 -25.514 -14.571  0.00  0.00    +0.023 C 
ENDBRANCH  27  29
ENDBRANCH  11  27
TORSDOF 4
ENDMDL
MODEL 2
REMARK VINA RESULT:      -9.5      8.569     13.236
REMARK  Name = 60848
REMARK  4 active torsions:
REMARK  status: ('A' for Active; 'I' for Inactive)
REMARK    1  A    between atoms: C_8  and  C_10
REMARK    2  A    between atoms: C_16  and  O_19
REMARK    3  A    between atoms: C_23  and  N_27
REMARK    4  A    between atoms: N_27  and  C_29
REMARK                            x       y       z     vdW  Elec       q    Type
REMARK                         _______ _______ _______ _____ _____    ______ ____
ROOT
ATOM      1  O   UNL     1      31.037  -9.968 -21.199  0.00  0.00    -0.269 OA
ATOM      2  N   UNL     1      33.632 -13.977 -22.182  0.00  0.00    -0.289 N 
ATOM      3  N   UNL     1      32.228 -11.541 -22.409  0.00  0.00    -0.272 N 
ATOM      4  C   UNL     1      32.636 -13.616 -21.159  0.00  0.00    +0.114 C 
ATOM      5  C   UNL     1      34.242 -12.858 -22.914  0.00  0.00    +0.114 C 
ATOM      6  C   UNL     1      31.586 -12.672 -21.743  0.00  0.00    +0.115 C 
ATOM      7  C   UNL     1      33.159 -11.935 -23.469  0.00  0.00    +0.115 C 
ATOM      8  C   UNL     1      31.880 -10.225 -22.061  0.00  0.00    +0.263 C 
ATOM      9  N   UNL     1      34.623 -15.585 -20.710  0.00  0.00    -0.228 NA
ATOM     10  C   UNL     1      34.362 -15.155 -21.988  0.00  0.00    +0.145 C 
ATOM     11  C   UNL     1      34.822 -15.889 -23.099  0.00  0.00    +0.077 C 
ATOM     12  C   UNL     1      35.546 -17.059 -22.898  0.00  0.00    +0.019 C 
ATOM     13  C   UNL     1      35.331 -16.726 -20.553  0.00  0.00    +0.100 C 
ATOM     14  C   UNL     1      35.810 -17.492 -21.604  0.00  0.00    +0.022 C 
ENDROOT
BRANCH   8  16
ATOM     15  N   UNL     1      33.844  -8.758 -22.489  0.00  0.00    -0.309 N 
ATOM     16  C   UNL     1      32.562  -9.145 -22.764  0.00  0.00    +0.103 C 
ATOM     17  C   UNL     1      32.082  -8.354 -23.777  0.00  0.00    +0.021 C 
ATOM     18  C   UNL     1      33.113  -7.443 -24.138  0.00  0.00    +0.018 C 
ATOM     19  C   UNL     1      34.208  -7.718 -23.314  0.00  0.00    +0.049 C 
ATOM     20  C   UNL     1      33.223  -6.409 -25.088  0.00  0.00    +0.038 C 
ATOM     21  C   UNL     1      35.411  -7.007 -23.395  0.00  0.00    +0.018 C 
ATOM     22  C   UNL     1      34.420  -5.689 -25.179  0.00  0.00    +0.139 C 
ATOM     23  C   UNL     1      35.495  -5.985 -24.345  0.00  0.00    +0.038 C 
ATOM     24  H   UNL     1      34.421  -9.162 -21.802  0.00  0.00    +0.152 HD
BRANCH  22  25
ATOM     25  O   UNL     1      34.532  -4.687 -26.097  0.00  0.00    -0.471 OA
ATOM     26  C   UNL     1      35.822  -4.470 -26.664  0.00  0.00    +0.252 C 
ENDBRANCH  22  25
ENDBRANCH   8  16
BRANCH  11  27
ATOM     27  N   UNL     1      34.554 -15.447 -24.409  0.00  0.00    -0.330 N 
ATOM     28  H   UNL     1      35.230 -14.900 -24.869  0.00  0.00    +0.147 HD
BRANCH  27  29
ATOM     29  C   UNL     1      33.340 -15.759 -25.103  0.00  0.00    +0.087 C 
ATOM     30  C   UNL     1      32.829 -14.558 -25.881  0.00  0.00    +0.023 C 
ENDBRANCH  27  29
ENDBRANCH  11  27
TORSDOF 4
ENDMDL
MODEL 3
REMARK VINA RESULT:      -9.2      9.829     16.118
REMARK  Name = 60848
REMARK  4 active torsions:
REMARK  status: ('A' for Active; 'I' for Inactive)
REMARK    1  A    between atoms: C_8  and  C_10
REMARK    2  A    between atoms: C_16  and  O_19
REMARK    3  A    between atoms: C_23  and  N_27
REMARK    4  A    between atoms: N_27  and  C_29
REMARK                            x       y       z     vdW  Elec       q    Type
REMARK                         _______ _______ _______ _____ _____    ______ ____
ROOT
ATOM      1  O   UNL     1      31.165 -11.084 -20.275  0.00  0.00    -0.269 OA
ATOM      2  N   UNL     1      32.164  -7.207 -23.057  0.00  0.00    -0.289 N 
ATOM      3  N   UNL     1      32.357  -9.627 -21.620  0.00  0.00    -0.272 N 
ATOM      4  C   UNL     1      31.224  -7.473 -21.954  0.00  0.00    +0.114 C 
ATOM      5  C   UNL     1      32.748  -8.387 -23.708  0.00  0.00    +0.114 C 
ATOM      6  C   UNL     1      31.843  -8.439 -20.944  0.00  0.00    +0.115 C 
ATOM      7  C   UNL     1      33.343  -9.329 -22.663  0.00  0.00    +0.115 C 
ATOM      8  C   UNL     1      31.953 -10.908 -21.206  0.00  0.00    +0.263 C 
ATOM      9  N   UNL     1      30.717  -5.513 -23.936  0.00  0.00    -0.228 NA
ATOM     10  C   UNL     1      31.982  -6.031 -23.793  0.00  0.00    +0.145 C 
ATOM     11  C   UNL     1      33.090  -5.390 -24.381  0.00  0.00    +0.077 C 
ATOM     12  C   UNL     1      32.901  -4.222 -25.110  0.00  0.00    +0.019 C 
ATOM     13  C   UNL     1      30.572  -4.376 -24.653  0.00  0.00    +0.100 C 
ATOM     14  C   UNL     1      31.621  -3.699 -25.254  0.00  0.00    +0.022 C 
ENDROOT
BRANCH   8  16
ATOM     15  N   UNL     1      32.248 -12.302 -23.246  0.00  0.00    -0.309 N 
ATOM     16  C   UNL     1      32.504 -12.049 -21.928  0.00  0.00    +0.103 C 
ATOM     17  C   UNL     1      33.335 -13.032 -21.454  0.00  0.00    +0.021 C 
ATOM     18  C   UNL     1      33.600 -13.925 -22.529  0.00  0.00    +0.018 C 
ATOM     19  C   UNL     1      32.905 -13.445 -23.642  0.00  0.00    +0.049 C 
ATOM     20  C   UNL     1      34.365 -15.101 -22.665  0.00  0.00    +0.038 C 
ATOM     21  C   UNL     1      32.939 -14.083 -24.887  0.00  0.00    +0.018 C 
ATOM     22  C   UNL     1      34.408 -15.750 -23.904  0.00  0.00    +0.139 C 
ATOM     23  C   UNL     1      33.704 -15.247 -24.996  0.00  0.00    +0.038 C 
ATOM     24  H   UNL     1      31.676 -11.749 -23.827  0.00  0.00    +0.152 HD
BRANCH  22  25
ATOM     25  O   UNL     1      35.147 -16.887 -24.041  0.00  0.00    -0.471 OA
ATOM     26  C   UNL     1      35.226 -17.747 -22.906  0.00  0.00    +0.252 C 
ENDBRANCH  22  25
ENDBRANCH   8  16
BRANCH  11  27
ATOM     27  N   UNL     1      34.385  -5.922 -24.234  0.00  0.00    -0.330 N 
ATOM     28  H   UNL     1      34.754  -6.020 -23.327  0.00  0.00    +0.147 HD
BRANCH  27  29
ATOM     29  C   UNL     1      35.192  -6.328 -25.346  0.00  0.00    +0.087 C 
ATOM     30  C   UNL     1      35.901  -5.140 -25.972  0.00  0.00    +0.023 C 
ENDBRANCH  27  29
ENDBRANCH  11  27
TORSDOF 4
ENDMDL
MODEL 4
REMARK VINA RESULT:      -9.1      9.620     14.401
REMARK  Name = 60848
REMARK  4 active torsions:
REMARK  status: ('A' for Active; 'I' for Inactive)
REMARK    1  A    between atoms: C_8  and  C_10
REMARK    2  A    between atoms: C_16  and  O_19
REMARK    3  A    between atoms: C_23  and  N_27
REMARK    4  A    between atoms: N_27  and  C_29
REMARK                            x       y       z     vdW  Elec       q    Type
REMARK                         _______ _______ _______ _____ _____    ______ ____
ROOT
ATOM      1  O   UNL     1      30.980  -8.085 -22.240  0.00  0.00    -0.269 OA
ATOM      2  N   UNL     1      33.197 -12.425 -22.339  0.00  0.00    -0.289 N 
ATOM      3  N   UNL     1      32.066  -9.950 -23.076  0.00  0.00    -0.272 N 
ATOM      4  C   UNL     1      32.190 -11.800 -21.466  0.00  0.00    +0.114 C 
ATOM      5  C   UNL     1      33.958 -11.515 -23.205  0.00  0.00    +0.114 C 
ATOM      6  C   UNL     1      31.276 -10.881 -22.276  0.00  0.00    +0.115 C 
ATOM      7  C   UNL     1      33.008 -10.608 -23.985  0.00  0.00    +0.115 C 
ATOM      8  C   UNL     1      31.837  -8.566 -22.984  0.00  0.00    +0.263 C 
ATOM      9  N   UNL     1      33.936 -13.833 -20.548  0.00  0.00    -0.228 NA
ATOM     10  C   UNL     1      33.790 -13.614 -21.896  0.00  0.00    +0.145 C 
ATOM     11  C   UNL     1      34.232 -14.570 -22.831  0.00  0.00    +0.077 C 
ATOM     12  C   UNL     1      34.820 -15.748 -22.382  0.00  0.00    +0.019 C 
ATOM     13  C   UNL     1      34.513 -14.990 -20.150  0.00  0.00    +0.100 C 
ATOM     14  C   UNL     1      34.967 -15.969 -21.018  0.00  0.00    +0.022 C 
ENDROOT
BRANCH   8  16
ATOM     15  N   UNL     1      32.233  -7.128 -24.976  0.00  0.00    -0.309 N 
ATOM     16  C   UNL     1      32.664  -7.694 -23.809  0.00  0.00    +0.103 C 
ATOM     17  C   UNL     1      33.959  -7.297 -23.590  0.00  0.00    +0.021 C 
ATOM     18  C   UNL     1      34.337  -6.450 -24.670  0.00  0.00    +0.018 C 
ATOM     19  C   UNL     1      33.235  -6.361 -25.525  0.00  0.00    +0.049 C 
ATOM     20  C   UNL     1      35.512  -5.748 -25.004  0.00  0.00    +0.038 C 
ATOM     21  C   UNL     1      33.252  -5.603 -26.701  0.00  0.00    +0.018 C 
ATOM     22  C   UNL     1      35.543  -4.986 -26.177  0.00  0.00    +0.139 C 
ATOM     23  C   UNL     1      34.429  -4.916 -27.011  0.00  0.00    +0.038 C 
ATOM     24  H   UNL     1      31.338  -7.252 -25.366  0.00  0.00    +0.152 HD
BRANCH  22  25
ATOM     25  O   UNL     1      36.677  -4.305 -26.505  0.00  0.00    -0.471 OA
ATOM     26  C   UNL     1      37.186  -4.493 -27.824  0.00  0.00    +0.252 C 
ENDBRANCH  22  25
ENDBRANCH   8  16
BRANCH  11  27
ATOM     27  N   UNL     1      34.082 -14.344 -24.212  0.00  0.00    -0.330 N 
ATOM     28  H   UNL     1      34.609 -13.627 -24.631  0.00  0.00    +0.147 HD
BRANCH  27  29
ATOM     29  C   UNL     1      33.196 -15.111 -25.036  0.00  0.00    +0.087 C 
ATOM     30  C   UNL     1      33.602 -16.575 -25.062  0.00  0.00    +0.023 C 
ENDBRANCH  27  29
ENDBRANCH  11  27
TORSDOF 4
ENDMDL
MODEL 5
REMARK VINA RESULT:      -8.6     13.317     16.879
REMARK  Name = 60848
REMARK  4 active torsions:
REMARK  status: ('A' for Active; 'I' for Inactive)
REMARK    1  A    between atoms: C_8  and  C_10
REMARK    2  A    between atoms: C_16  and  O_19
REMARK    3  A    between atoms: C_23  and  N_27
REMARK    4  A    between atoms: N_27  and  C_29
REMARK                            x       y       z     vdW  Elec       q    Type
REMARK                         _______ _______ _______ _____ _____    ______ ____
ROOT
ATOM      1  O   UNL     1      31.729  -4.221 -24.861  0.00  0.00    -0.269 OA
ATOM      2  N   UNL     1      31.842  -8.263 -22.138  0.00  0.00    -0.289 N 
ATOM      3  N   UNL     1      31.917  -6.460 -24.305  0.00  0.00    -0.272 N 
ATOM      4  C   UNL     1      31.185  -6.951 -22.013  0.00  0.00    +0.114 C 
ATOM      5  C   UNL     1      32.944  -8.346 -23.106  0.00  0.00    +0.114 C 
ATOM      6  C   UNL     1      30.782  -6.421 -23.388  0.00  0.00    +0.115 C 
ATOM      7  C   UNL     1      32.501  -7.795 -24.460  0.00  0.00    +0.115 C 
ATOM      8  C   UNL     1      32.310  -5.300 -24.995  0.00  0.00    +0.263 C 
ATOM      9  N   UNL     1      31.851  -8.533 -19.758  0.00  0.00    -0.228 NA
ATOM     10  C   UNL     1      31.848  -9.095 -21.012  0.00  0.00    +0.145 C 
ATOM     11  C   UNL     1      31.853 -10.495 -21.171  0.00  0.00    +0.077 C 
ATOM     12  C   UNL     1      31.859 -11.313 -20.047  0.00  0.00    +0.019 C 
ATOM     13  C   UNL     1      31.858  -9.361 -18.690  0.00  0.00    +0.100 C 
ATOM     14  C   UNL     1      31.862 -10.744 -18.779  0.00  0.00    +0.022 C 
ENDROOT
BRANCH   8  16
ATOM     15  N   UNL     1      33.375  -5.924 -27.156  0.00  0.00    -0.309 N 
ATOM     16  C   UNL     1      33.454  -5.411 -25.892  0.00  0.00    +0.103 C 
ATOM     17  C   UNL     1      34.755  -5.045 -25.657  0.00  0.00    +0.021 C 
ATOM     18  C   UNL     1      35.505  -5.347 -26.828  0.00  0.00    +0.018 C 
ATOM     19  C   UNL     1      34.614  -5.897 -27.754  0.00  0.00    +0.049 C 
ATOM     20  C   UNL     1      36.859  -5.205 -27.193  0.00  0.00    +0.038 C 
ATOM     21  C   UNL     1      35.012  -6.314 -29.029  0.00  0.00    +0.018 C 
ATOM     22  C   UNL     1      37.271  -5.617 -28.465  0.00  0.00    +0.139 C 
ATOM     23  C   UNL     1      36.360  -6.163 -29.367  0.00  0.00    +0.038 C 
ATOM     24  H   UNL     1      32.552  -6.263 -27.577  0.00  0.00    +0.152 HD
BRANCH  22  25
ATOM     25  O   UNL     1      38.579  -5.482 -28.824  0.00  0.00    -0.471 OA
ATOM     26  C   UNL     1      39.261  -6.664 -29.239  0.00  0.00    +0.252 C 
ENDBRANCH  22  25
ENDBRANCH   8  16
BRANCH  11  27
ATOM     27  N   UNL     1      31.850 -11.069 -22.456  0.00  0.00    -0.330 N 
ATOM     28  H   UNL     1      31.286 -10.663 -23.152  0.00  0.00    +0.147 HD
BRANCH  27  29
ATOM     29  C   UNL     1      32.633 -12.220 -22.797  0.00  0.00    +0.087 C 
ATOM     30  C   UNL     1      33.774 -11.851 -23.729  0.00  0.00    +0.023 C 
ENDBRANCH  27  29
ENDBRANCH  11  27
TORSDOF 4
ENDMDL
MODEL 6
REMARK VINA RESULT:      -8.3     11.366     15.716
REMARK  Name = 60848
REMARK  4 active torsions:
REMARK  status: ('A' for Active; 'I' for Inactive)
REMARK    1  A    between atoms: C_8  and  C_10
REMARK    2  A    between atoms: C_16  and  O_19
REMARK    3  A    between atoms: C_23  and  N_27
REMARK    4  A    between atoms: N_27  and  C_29
REMARK                            x       y       z     vdW  Elec       q    Type
REMARK                         _______ _______ _______ _____ _____    ______ ____
ROOT
ATOM      1  O   UNL     1      30.888  -5.994 -23.705  0.00  0.00    -0.269 OA
ATOM      2  N   UNL     1      32.020 -10.551 -22.395  0.00  0.00    -0.289 N 
ATOM      3  N   UNL     1      31.634  -8.179 -23.870  0.00  0.00    -0.272 N 
ATOM      4  C   UNL     1      31.055  -9.548 -21.914  0.00  0.00    +0.114 C 
ATOM      5  C   UNL     1      33.104 -10.050 -23.250  0.00  0.00    +0.114 C 
ATOM      6  C   UNL     1      30.527  -8.711 -23.079  0.00  0.00    +0.115 C 
ATOM      7  C   UNL     1      32.533  -9.211 -24.392  0.00  0.00    +0.115 C 
ATOM      8  C   UNL     1      31.721  -6.799 -24.126  0.00  0.00    +0.263 C 
ATOM      9  N   UNL     1      32.104 -11.569 -20.228  0.00  0.00    -0.228 NA
ATOM     10  C   UNL     1      32.238 -11.676 -21.592  0.00  0.00    +0.145 C 
ATOM     11  C   UNL     1      32.594 -12.905 -22.183  0.00  0.00    +0.077 C 
ATOM     12  C   UNL     1      32.808 -14.018 -21.377  0.00  0.00    +0.019 C 
ATOM     13  C   UNL     1      32.322 -12.672 -19.478  0.00  0.00    +0.100 C 
ATOM     14  C   UNL     1      32.672 -13.908 -19.998  0.00  0.00    +0.022 C 
ENDROOT
BRANCH   8  16
ATOM     15  N   UNL     1      32.833  -6.249 -26.283  0.00  0.00    -0.309 N 
ATOM     16  C   UNL     1      32.853  -6.337 -24.920  0.00  0.00    +0.103 C 
ATOM     17  C   UNL     1      34.086  -5.925 -24.480  0.00  0.00    +0.021 C 
ATOM     18  C   UNL     1      34.853  -5.570 -25.624  0.00  0.00    +0.018 C 
ATOM     19  C   UNL     1      34.044  -5.783 -26.743  0.00  0.00    +0.049 C 
ATOM     20  C   UNL     1      36.163  -5.086 -25.818  0.00  0.00    +0.038 C 
ATOM     21  C   UNL     1      34.480  -5.534 -28.049  0.00  0.00    +0.018 C 
ATOM     22  C   UNL     1      36.612  -4.833 -27.119  0.00  0.00    +0.139 C 
ATOM     23  C   UNL     1      35.782  -5.055 -28.215  0.00  0.00    +0.038 C 
ATOM     24  H   UNL     1      32.066  -6.486 -26.853  0.00  0.00    +0.152 HD
BRANCH  22  25
ATOM     25  O   UNL     1      37.878  -4.365 -27.312  0.00  0.00    -0.471 OA
ATOM     26  C   UNL     1      38.550  -4.789 -28.496  0.00  0.00    +0.252 C 
ENDBRANCH  22  25
ENDBRANCH   8  16
BRANCH  11  27
ATOM     27  N   UNL     1      32.731 -13.014 -23.579  0.00  0.00    -0.330 N 
ATOM     28  H   UNL     1      32.123 -12.497 -24.154  0.00  0.00    +0.147 HD
BRANCH  27  29
ATOM     29  C   UNL     1      33.718 -13.845 -24.203  0.00  0.00    +0.087 C 
ATOM     30  C   UNL     1      33.131 -14.604 -25.381  0.00  0.00    +0.023 C 
ENDBRANCH  27  29
ENDBRANCH  11  27
TORSDOF 4
ENDMDL
MODEL 7
REMARK VINA RESULT:      -8.2      8.737     13.271
REMARK  Name = 60848
REMARK  4 active torsions:
REMARK  status: ('A' for Active; 'I' for Inactive)
REMARK    1  A    between atoms: C_8  and  C_10
REMARK    2  A    between atoms: C_16  and  O_19
REMARK    3  A    between atoms: C_23  and  N_27
REMARK    4  A    between atoms: N_27  and  C_29
REMARK                            x       y       z     vdW  Elec       q    Type
REMARK                         _______ _______ _______ _____ _____    ______ ____
ROOT
ATOM      1  O   UNL     1      31.297 -10.081 -19.750  0.00  0.00    -0.269 OA
ATOM      2  N   UNL     1      33.374 -14.006 -21.761  0.00  0.00    -0.289 N 
ATOM      3  N   UNL     1      31.937 -11.612 -21.362  0.00  0.00    -0.272 N 
ATOM      4  C   UNL     1      32.867 -13.680 -20.418  0.00  0.00    +0.114 C 
ATOM      5  C   UNL     1      33.609 -12.867 -22.659  0.00  0.00    +0.114 C 
ATOM      6  C   UNL     1      31.647 -12.765 -20.513  0.00  0.00    +0.115 C 
ATOM      7  C   UNL     1      32.372 -11.973 -22.715  0.00  0.00    +0.115 C 
ATOM      8  C   UNL     1      31.726 -10.308 -20.882  0.00  0.00    +0.263 C 
ATOM      9  N   UNL     1      34.915 -15.592 -20.840  0.00  0.00    -0.228 NA
ATOM     10  C   UNL     1      34.150 -15.164 -21.898  0.00  0.00    +0.145 C 
ATOM     11  C   UNL     1      34.141 -15.877 -23.112  0.00  0.00    +0.077 C 
ATOM     12  C   UNL     1      34.913 -17.027 -23.239  0.00  0.00    +0.019 C 
ATOM     13  C   UNL     1      35.654 -16.713 -21.001  0.00  0.00    +0.100 C 
ATOM     14  C   UNL     1      35.687 -17.459 -22.168  0.00  0.00    +0.022 C 
ENDROOT
BRANCH   8  16
ATOM     15  N   UNL     1      31.124  -8.628 -22.616  0.00  0.00    -0.309 N 
ATOM     16  C   UNL     1      32.040  -9.205 -21.783  0.00  0.00    +0.103 C 
ATOM     17  C   UNL     1      33.243  -8.570 -21.960  0.00  0.00    +0.021 C 
ATOM     18  C   UNL     1      33.056  -7.560 -22.944  0.00  0.00    +0.018 C 
ATOM     19  C   UNL     1      31.717  -7.618 -23.339  0.00  0.00    +0.049 C 
ATOM     20  C   UNL     1      33.897  -6.599 -23.539  0.00  0.00    +0.038 C 
ATOM     21  C   UNL     1      31.177  -6.759 -24.303  0.00  0.00    +0.018 C 
ATOM     22  C   UNL     1      33.370  -5.733 -24.504  0.00  0.00    +0.139 C 
ATOM     23  C   UNL     1      32.031  -5.814 -24.879  0.00  0.00    +0.038 C 
ATOM     24  H   UNL     1      30.179  -8.895 -22.689  0.00  0.00    +0.152 HD
BRANCH  22  25
ATOM     25  O   UNL     1      34.179  -4.801 -25.083  0.00  0.00    -0.471 OA
ATOM     26  C   UNL     1      35.319  -5.285 -25.790  0.00  0.00    +0.252 C 
ENDBRANCH  22  25
ENDBRANCH   8  16
BRANCH  11  27
ATOM     27  N   UNL     1      33.356 -15.438 -24.195  0.00  0.00    -0.330 N 
ATOM     28  H   UNL     1      32.379 -15.403 -24.084  0.00  0.00    +0.147 HD
BRANCH  27  29
ATOM     29  C   UNL     1      33.916 -15.039 -25.452  0.00  0.00    +0.087 C 
ATOM     30  C   UNL     1      33.028 -14.023 -26.150  0.00  0.00    +0.023 C 
ENDBRANCH  27  29
ENDBRANCH  11  27
TORSDOF 4
ENDMDL
MODEL 8
REMARK VINA RESULT:      -8.1     12.655     17.585
REMARK  Name = 60848
REMARK  4 active torsions:
REMARK  status: ('A' for Active; 'I' for Inactive)
REMARK    1  A    between atoms: C_8  and  C_10
REMARK    2  A    between atoms: C_16  and  O_19
REMARK    3  A    between atoms: C_23  and  N_27
REMARK    4  A    between atoms: N_27  and  C_29
REMARK                            x       y       z     vdW  Elec       q    Type
REMARK                         _______ _______ _______ _____ _____    ______ ____
ROOT
ATOM      1  O   UNL     1      35.915  -5.526 -25.079  0.00  0.00    -0.269 OA
ATOM      2  N   UNL     1      33.596  -9.442 -23.331  0.00  0.00    -0.289 N 
ATOM      3  N   UNL     1      34.309  -6.796 -24.002  0.00  0.00    -0.272 N 
ATOM      4  C   UNL     1      35.001  -9.125 -23.639  0.00  0.00    +0.114 C 
ATOM      5  C   UNL     1      32.587  -8.551 -23.921  0.00  0.00    +0.114 C 
ATOM      6  C   UNL     1      35.294  -7.654 -23.349  0.00  0.00    +0.115 C 
ATOM      7  C   UNL     1      32.926  -7.093 -23.617  0.00  0.00    +0.115 C 
ATOM      8  C   UNL     1      34.726  -5.757 -24.851  0.00  0.00    +0.263 C 
ATOM      9  N   UNL     1      33.999 -11.775 -23.691  0.00  0.00    -0.228 NA
ATOM     10  C   UNL     1      33.273 -10.780 -23.081  0.00  0.00    +0.145 C 
ATOM     11  C   UNL     1      32.212 -11.098 -22.211  0.00  0.00    +0.077 C 
ATOM     12  C   UNL     1      31.899 -12.431 -21.967  0.00  0.00    +0.019 C 
ATOM     13  C   UNL     1      33.664 -13.059 -23.431  0.00  0.00    +0.100 C 
ATOM     14  C   UNL     1      32.633 -13.436 -22.586  0.00  0.00    +0.022 C 
ENDROOT
BRANCH   8  16
ATOM     15  N   UNL     1      32.835  -4.141 -24.766  0.00  0.00    -0.309 N 
ATOM     16  C   UNL     1      33.688  -4.943 -25.471  0.00  0.00    +0.103 C 
ATOM     17  C   UNL     1      33.381  -4.829 -26.803  0.00  0.00    +0.021 C 
ATOM     18  C   UNL     1      32.294  -3.918 -26.918  0.00  0.00    +0.018 C 
ATOM     19  C   UNL     1      31.971  -3.501 -25.625  0.00  0.00    +0.049 C 
ATOM     20  C   UNL     1      31.551  -3.406 -28.001  0.00  0.00    +0.038 C 
ATOM     21  C   UNL     1      30.939  -2.595 -25.359  0.00  0.00    +0.018 C 
ATOM     22  C   UNL     1      30.516  -2.498 -27.750  0.00  0.00    +0.139 C 
ATOM     23  C   UNL     1      30.216  -2.101 -26.449  0.00  0.00    +0.038 C 
ATOM     24  H   UNL     1      32.838  -4.037 -23.786  0.00  0.00    +0.152 HD
BRANCH  22  25
ATOM     25  O   UNL     1      29.794  -1.999 -28.793  0.00  0.00    -0.471 OA
ATOM     26  C   UNL     1      29.792  -2.758 -30.000  0.00  0.00    +0.252 C 
ENDBRANCH  22  25
ENDBRANCH   8  16
BRANCH  11  27
ATOM     27  N   UNL     1      31.469 -10.078 -21.586  0.00  0.00    -0.330 N 
ATOM     28  H   UNL     1      30.637  -9.773 -22.013  0.00  0.00    +0.147 HD
BRANCH  27  29
ATOM     29  C   UNL     1      31.871  -9.464 -20.355  0.00  0.00    +0.087 C 
ATOM     30  C   UNL     1      31.187 -10.118 -19.167  0.00  0.00    +0.023 C 
ENDBRANCH  27  29
ENDBRANCH  11  27
TORSDOF 4
ENDMDL
MODEL 9
REMARK VINA RESULT:      -7.8     12.040     18.247
REMARK  Name = 60848
REMARK  4 active torsions:
REMARK  status: ('A' for Active; 'I' for Inactive)
REMARK    1  A    between atoms: C_8  and  C_10
REMARK    2  A    between atoms: C_16  and  O_19
REMARK    3  A    between atoms: C_23  and  N_27
REMARK    4  A    between atoms: N_27  and  C_29
REMARK                            x       y       z     vdW  Elec       q    Type
REMARK                         _______ _______ _______ _____ _____    ______ ____
ROOT
ATOM      1  O   UNL     1      31.503  -8.000 -20.027  0.00  0.00    -0.269 OA
ATOM      2  N   UNL     1      31.638  -4.816 -23.717  0.00  0.00    -0.289 N 
ATOM      3  N   UNL     1      32.247  -6.911 -21.929  0.00  0.00    -0.272 N 
ATOM      4  C   UNL     1      31.064  -4.802 -22.360  0.00  0.00    +0.114 C 
ATOM      5  C   UNL     1      32.006  -6.135 -24.250  0.00  0.00    +0.114 C 
ATOM      6  C   UNL     1      31.953  -5.584 -21.395  0.00  0.00    +0.115 C 
ATOM      7  C   UNL     1      32.882  -6.886 -23.249  0.00  0.00    +0.115 C 
ATOM      8  C   UNL     1      31.983  -8.058 -21.161  0.00  0.00    +0.263 C 
ATOM      9  N   UNL     1      29.996  -3.245 -24.473  0.00  0.00    -0.228 NA
ATOM     10  C   UNL     1      31.247  -3.800 -24.596  0.00  0.00    +0.145 C 
ATOM     11  C   UNL     1      32.133  -3.356 -25.597  0.00  0.00    +0.077 C 
ATOM     12  C   UNL     1      31.737  -2.346 -26.466  0.00  0.00    +0.019 C 
ATOM     13  C   UNL     1      29.646  -2.266 -25.337  0.00  0.00    +0.100 C 
ATOM     14  C   UNL     1      30.471  -1.786 -26.341  0.00  0.00    +0.022 C 
ENDROOT
BRANCH   8  16
ATOM     15  N   UNL     1      31.829 -10.539 -21.275  0.00  0.00    -0.309 N 
ATOM     16  C   UNL     1      32.298  -9.350 -21.758  0.00  0.00    +0.103 C 
ATOM     17  C   UNL     1      33.079  -9.610 -22.856  0.00  0.00    +0.021 C 
ATOM     18  C   UNL     1      33.089 -11.019 -23.053  0.00  0.00    +0.018 C 
ATOM     19  C   UNL     1      32.297 -11.579 -22.047  0.00  0.00    +0.049 C 
ATOM     20  C   UNL     1      33.696 -11.876 -23.992  0.00  0.00    +0.038 C 
ATOM     21  C   UNL     1      32.081 -12.956 -21.934  0.00  0.00    +0.018 C 
ATOM     22  C   UNL     1      33.490 -13.257 -23.891  0.00  0.00    +0.139 C 
ATOM     23  C   UNL     1      32.695 -13.786 -22.877  0.00  0.00    +0.038 C 
ATOM     24  H   UNL     1      31.244 -10.638 -20.489  0.00  0.00    +0.152 HD
BRANCH  22  25
ATOM     25  O   UNL     1      34.075 -14.091 -24.797  0.00  0.00    -0.471 OA
ATOM     26  C   UNL     1      33.378 -15.294 -25.113  0.00  0.00    +0.252 C 
ENDBRANCH  22  25
ENDBRANCH   8  16
BRANCH  11  27
ATOM     27  N   UNL     1      33.415  -3.925 -25.722  0.00  0.00    -0.330 N 
ATOM     28  H   UNL     1      33.952  -4.058 -24.909  0.00  0.00    +0.147 HD
BRANCH  27  29
ATOM     29  C   UNL     1      33.972  -4.321 -26.982  0.00  0.00    +0.087 C 
ATOM     30  C   UNL     1      33.148  -5.423 -27.624  0.00  0.00    +0.023 C 
ENDBRANCH  27  29
ENDBRANCH  11  27
TORSDOF 4
ENDMDL
