MODEL 1
REMARK VINA RESULT:     -12.2      0.000      0.000
REMARK  Name = 10407120
REMARK  4 active torsions:
REMARK  status: ('A' for Active; 'I' for Inactive)
REMARK    1  A    between atoms: N_2  and  C_19
REMARK    2  A    between atoms: C_3  and  C_6
REMARK    3  A    between atoms: C_5  and  C_16
REMARK    4  A    between atoms: C_19  and  C_21
REMARK                            x       y       z     vdW  Elec       q    Type
REMARK                         _______ _______ _______ _____ _____    ______ ____
ROOT
ATOM      1  O   UNL     1      33.485 -16.395 -25.468  0.00  0.00    -0.270 OA
ATOM      2  N   UNL     1      34.679 -17.230 -23.657  0.00  0.00    -0.267 N 
ATOM      3  C   UNL     1      34.024 -16.224 -24.374  0.00  0.00    +0.250 C 
ATOM      4  C   UNL     1      34.747 -18.575 -24.213  0.00  0.00    +0.116 C 
ENDROOT
BRANCH   3   6
ATOM      5  C   UNL     1      32.925 -14.080 -23.832  0.00  0.00    +0.006 C 
ATOM      6  C   UNL     1      34.024 -14.867 -23.751  0.00  0.00    +0.058 C 
BRANCH   5  16
ATOM      7  O   UNL     1      31.844  -7.303 -20.332  0.00  0.00    -0.275 OA
ATOM      8  N   UNL     1      32.568  -8.843 -21.875  0.00  0.00    -0.270 N 
ATOM      9  N   UNL     1      33.408 -10.398 -23.447  0.00  0.00    -0.229 NA
ATOM     10  C   UNL     1      31.045 -10.824 -20.537  0.00  0.00    +0.039 C 
ATOM     11  C   UNL     1      31.950 -11.169 -21.680  0.00  0.00    +0.010 C 
ATOM     12  C   UNL     1      31.573  -9.619 -19.774  0.00  0.00    +0.090 C 
ATOM     13  C   UNL     1      32.656 -10.168 -22.345  0.00  0.00    +0.130 C 
ATOM     14  C   UNL     1      32.033 -12.470 -22.178  0.00  0.00    +0.000 C 
ATOM     15  C   UNL     1      31.969  -8.475 -20.686  0.00  0.00    +0.227 C 
ATOM     16  C   UNL     1      32.815 -12.735 -23.296  0.00  0.00    +0.019 C 
ATOM     17  C   UNL     1      33.474 -11.674 -23.889  0.00  0.00    +0.100 C 
ATOM     18  H   UNL     1      32.958  -8.132 -22.431  0.00  0.00    +0.156 HD
ENDBRANCH   5  16
ENDBRANCH   3   6
BRANCH   2  19
ATOM     19  C   UNL     1      35.354 -17.044 -22.374  0.00  0.00    +0.158 C 
BRANCH  19  21
ATOM     20  O   UNL     1      34.067 -18.693 -21.197  0.00  0.00    -0.456 OA
ATOM     21  C   UNL     1      35.305 -18.284 -21.529  0.00  0.00    +0.139 A 
ATOM     22  C   UNL     1      36.275 -19.086 -21.028  0.00  0.00    +0.013 A 
ATOM     23  C   UNL     1      35.593 -20.101 -20.308  0.00  0.00    +0.033 A 
ATOM     24  C   UNL     1      34.238 -19.814 -20.443  0.00  0.00    +0.145 A 
ATOM     25  C   UNL     1      37.736 -18.942 -21.190  0.00  0.00    +0.034 C 
ATOM     26  C   UNL     1      35.969 -21.229 -19.559  0.00  0.00    +0.003 C 
ATOM     27  C   UNL     1      33.218 -20.578 -19.880  0.00  0.00    +0.037 C 
ATOM     28  C   UNL     1      34.965 -22.017 -18.980  0.00  0.00    +0.000 C 
ATOM     29  C   UNL     1      33.615 -21.695 -19.138  0.00  0.00    +0.003 C 
ENDBRANCH  19  21
ENDBRANCH   2  19
TORSDOF 4
ENDMDL
MODEL 2
REMARK VINA RESULT:     -12.1      2.548      9.605
REMARK  Name = 10407120
REMARK  4 active torsions:
REMARK  status: ('A' for Active; 'I' for Inactive)
REMARK    1  A    between atoms: N_2  and  C_19
REMARK    2  A    between atoms: C_3  and  C_6
REMARK    3  A    between atoms: C_5  and  C_16
REMARK    4  A    between atoms: C_19  and  C_21
REMARK                            x       y       z     vdW  Elec       q    Type
REMARK                         _______ _______ _______ _____ _____    ______ ____
ROOT
ATOM      1  O   UNL     1      34.364 -17.260 -25.099  0.00  0.00    -0.270 OA
ATOM      2  N   UNL     1      34.372 -15.277 -23.886  0.00  0.00    -0.267 N 
ATOM      3  C   UNL     1      34.586 -16.648 -24.053  0.00  0.00    +0.250 C 
ATOM      4  C   UNL     1      33.853 -14.494 -24.999  0.00  0.00    +0.116 C 
ENDROOT
BRANCH   3   6
ATOM      5  C   UNL     1      34.560 -18.586 -22.522  0.00  0.00    +0.006 C 
ATOM      6  C   UNL     1      35.090 -17.386 -22.857  0.00  0.00    +0.058 C 
BRANCH   5  16
ATOM      7  O   UNL     1      35.754 -23.119 -16.409  0.00  0.00    -0.275 OA
ATOM      8  N   UNL     1      36.163 -21.590 -18.074  0.00  0.00    -0.270 N 
ATOM      9  N   UNL     1      36.662 -20.074 -19.819  0.00  0.00    -0.229 NA
ATOM     10  C   UNL     1      33.426 -21.720 -18.796  0.00  0.00    +0.039 C 
ATOM     11  C   UNL     1      34.412 -20.930 -19.600  0.00  0.00    +0.010 C 
ATOM     12  C   UNL     1      34.099 -22.910 -18.131  0.00  0.00    +0.090 C 
ATOM     13  C   UNL     1      35.745 -20.852 -19.198  0.00  0.00    +0.130 C 
ATOM     14  C   UNL     1      34.015 -20.171 -20.702  0.00  0.00    +0.000 C 
ATOM     15  C   UNL     1      35.390 -22.537 -17.431  0.00  0.00    +0.227 C 
ATOM     16  C   UNL     1      34.944 -19.381 -21.369  0.00  0.00    +0.019 C 
ATOM     17  C   UNL     1      36.241 -19.365 -20.890  0.00  0.00    +0.100 C 
ATOM     18  H   UNL     1      37.066 -21.419 -17.722  0.00  0.00    +0.156 HD
ENDBRANCH   5  16
ENDBRANCH   3   6
BRANCH   2  19
ATOM     19  C   UNL     1      34.597 -14.537 -22.645  0.00  0.00    +0.158 C 
BRANCH  19  21
ATOM     20  O   UNL     1      33.995 -12.359 -23.453  0.00  0.00    -0.456 OA
ATOM     21  C   UNL     1      33.723 -13.321 -22.551  0.00  0.00    +0.139 A 
ATOM     22  C   UNL     1      32.698 -12.994 -21.727  0.00  0.00    +0.013 A 
ATOM     23  C   UNL     1      32.276 -11.703 -22.141  0.00  0.00    +0.033 A 
ATOM     24  C   UNL     1      33.105 -11.357 -23.204  0.00  0.00    +0.145 A 
ATOM     25  C   UNL     1      32.133 -13.802 -20.629  0.00  0.00    +0.034 C 
ATOM     26  C   UNL     1      31.288 -10.790 -21.735  0.00  0.00    +0.003 C 
ATOM     27  C   UNL     1      33.020 -10.154 -23.902  0.00  0.00    +0.037 C 
ATOM     28  C   UNL     1      31.178  -9.571 -22.418  0.00  0.00    +0.000 C 
ATOM     29  C   UNL     1      32.030  -9.261 -23.481  0.00  0.00    +0.003 C 
ENDBRANCH  19  21
ENDBRANCH   2  19
TORSDOF 4
ENDMDL
MODEL 3
REMARK VINA RESULT:     -11.7      3.054      9.792
REMARK  Name = 10407120
REMARK  4 active torsions:
REMARK  status: ('A' for Active; 'I' for Inactive)
REMARK    1  A    between atoms: N_2  and  C_19
REMARK    2  A    between atoms: C_3  and  C_6
REMARK    3  A    between atoms: C_5  and  C_16
REMARK    4  A    between atoms: C_19  and  C_21
REMARK                            x       y       z     vdW  Elec       q    Type
REMARK                         _______ _______ _______ _____ _____    ______ ____
ROOT
ATOM      1  O   UNL     1      34.503 -18.626 -24.145  0.00  0.00    -0.270 OA
ATOM      2  N   UNL     1      34.755 -16.522 -23.188  0.00  0.00    -0.267 N 
ATOM      3  C   UNL     1      34.764 -17.920 -23.169  0.00  0.00    +0.250 C 
ATOM      4  C   UNL     1      34.420 -15.827 -24.424  0.00  0.00    +0.116 C 
ENDROOT
BRANCH   3   6
ATOM      5  C   UNL     1      34.644 -19.807 -21.580  0.00  0.00    +0.006 C 
ATOM      6  C   UNL     1      35.087 -18.558 -21.859  0.00  0.00    +0.058 C 
BRANCH   5  16
ATOM      7  O   UNL     1      34.955 -23.806 -15.004  0.00  0.00    -0.275 OA
ATOM      8  N   UNL     1      35.630 -22.500 -16.768  0.00  0.00    -0.270 N 
ATOM      9  N   UNL     1      36.399 -21.224 -18.605  0.00  0.00    -0.229 NA
ATOM     10  C   UNL     1      32.946 -22.423 -17.673  0.00  0.00    +0.039 C 
ATOM     11  C   UNL     1      34.061 -21.821 -18.473  0.00  0.00    +0.010 C 
ATOM     12  C   UNL     1      33.444 -23.603 -16.854  0.00  0.00    +0.090 C 
ATOM     13  C   UNL     1      35.366 -21.839 -17.983  0.00  0.00    +0.130 C 
ATOM     14  C   UNL     1      33.818 -21.140 -19.666  0.00  0.00    +0.000 C 
ATOM     15  C   UNL     1      34.721 -23.295 -16.099  0.00  0.00    +0.227 C 
ATOM     16  C   UNL     1      34.866 -20.517 -20.334  0.00  0.00    +0.019 C 
ATOM     17  C   UNL     1      36.125 -20.586 -19.765  0.00  0.00    +0.100 C 
ATOM     18  H   UNL     1      36.523 -22.388 -16.369  0.00  0.00    +0.156 HD
ENDBRANCH   5  16
ENDBRANCH   3   6
BRANCH   2  19
ATOM     19  C   UNL     1      35.028 -15.665 -22.036  0.00  0.00    +0.158 C 
BRANCH  19  21
ATOM     20  O   UNL     1      34.521 -13.569 -23.091  0.00  0.00    -0.456 OA
ATOM     21  C   UNL     1      34.221 -14.400 -22.075  0.00  0.00    +0.139 A 
ATOM     22  C   UNL     1      33.235 -13.921 -21.278  0.00  0.00    +0.013 A 
ATOM     23  C   UNL     1      32.871 -12.668 -21.837  0.00  0.00    +0.033 A 
ATOM     24  C   UNL     1      33.691 -12.498 -22.949  0.00  0.00    +0.145 A 
ATOM     25  C   UNL     1      32.655 -14.560 -20.080  0.00  0.00    +0.034 C 
ATOM     26  C   UNL     1      31.942 -11.660 -21.528  0.00  0.00    +0.003 C 
ATOM     27  C   UNL     1      33.652 -11.384 -23.786  0.00  0.00    +0.037 C 
ATOM     28  C   UNL     1      31.880 -10.527 -22.351  0.00  0.00    +0.000 C 
ATOM     29  C   UNL     1      32.721 -10.394 -23.458  0.00  0.00    +0.003 C 
ENDBRANCH  19  21
ENDBRANCH   2  19
TORSDOF 4
ENDMDL
MODEL 4
REMARK VINA RESULT:     -11.3      6.524     10.864
REMARK  Name = 10407120
REMARK  4 active torsions:
REMARK  status: ('A' for Active; 'I' for Inactive)
REMARK    1  A    between atoms: N_2  and  C_19
REMARK    2  A    between atoms: C_3  and  C_6
REMARK    3  A    between atoms: C_5  and  C_16
REMARK    4  A    between atoms: C_19  and  C_21
REMARK                            x       y       z     vdW  Elec       q    Type
REMARK                         _______ _______ _______ _____ _____    ______ ____
ROOT
ATOM      1  O   UNL     1      30.685 -24.602 -15.781  0.00  0.00    -0.270 OA
ATOM      2  N   UNL     1      31.959 -24.102 -13.902  0.00  0.00    -0.267 N 
ATOM      3  C   UNL     1      31.582 -23.954 -15.240  0.00  0.00    +0.250 C 
ATOM      4  C   UNL     1      31.268 -25.078 -13.069  0.00  0.00    +0.116 C 
ENDROOT
BRANCH   3   6
ATOM      5  C   UNL     1      33.289 -23.369 -16.926  0.00  0.00    +0.006 C 
ATOM      6  C   UNL     1      32.357 -22.956 -16.034  0.00  0.00    +0.058 C 
BRANCH   5  16
ATOM      7  O   UNL     1      36.975 -18.511 -21.633  0.00  0.00    -0.275 OA
ATOM      8  N   UNL     1      36.627 -20.056 -19.969  0.00  0.00    -0.270 N 
ATOM      9  N   UNL     1      36.313 -21.584 -18.191  0.00  0.00    -0.229 NA
ATOM     10  C   UNL     1      33.909 -20.216 -20.756  0.00  0.00    +0.039 C 
ATOM     11  C   UNL     1      34.419 -20.939 -19.547  0.00  0.00    +0.010 C 
ATOM     12  C   UNL     1      34.703 -18.943 -21.000  0.00  0.00    +0.090 C 
ATOM     13  C   UNL     1      35.770 -20.873 -19.207  0.00  0.00    +0.130 C 
ATOM     14  C   UNL     1      33.594 -21.774 -18.793  0.00  0.00    +0.000 C 
ATOM     15  C   UNL     1      36.200 -19.163 -20.933  0.00  0.00    +0.227 C 
ATOM     16  C   UNL     1      34.125 -22.497 -17.731  0.00  0.00    +0.019 C 
ATOM     17  C   UNL     1      35.478 -22.370 -17.476  0.00  0.00    +0.100 C 
ATOM     18  H   UNL     1      37.594 -20.126 -19.805  0.00  0.00    +0.156 HD
ENDBRANCH   5  16
ENDBRANCH   3   6
BRANCH   2  19
ATOM     19  C   UNL     1      33.041 -23.369 -13.247  0.00  0.00    +0.158 C 
BRANCH  19  21
ATOM     20  O   UNL     1      34.565 -24.871 -14.333  0.00  0.00    -0.456 OA
ATOM     21  C   UNL     1      34.317 -24.157 -13.219  0.00  0.00    +0.139 A 
ATOM     22  C   UNL     1      35.285 -24.295 -12.281  0.00  0.00    +0.013 A 
ATOM     23  C   UNL     1      36.240 -25.180 -12.849  0.00  0.00    +0.033 A 
ATOM     24  C   UNL     1      35.750 -25.504 -14.110  0.00  0.00    +0.145 A 
ATOM     25  C   UNL     1      35.343 -23.665 -10.947  0.00  0.00    +0.034 C 
ATOM     26  C   UNL     1      37.460 -25.740 -12.437  0.00  0.00    +0.003 C 
ATOM     27  C   UNL     1      36.396 -26.356 -15.003  0.00  0.00    +0.037 C 
ATOM     28  C   UNL     1      38.134 -26.602 -13.313  0.00  0.00    +0.000 C 
ATOM     29  C   UNL     1      37.609 -26.904 -14.573  0.00  0.00    +0.003 C 
ENDBRANCH  19  21
ENDBRANCH   2  19
TORSDOF 4
ENDMDL
MODEL 5
REMARK VINA RESULT:     -11.2      2.514      9.324
REMARK  Name = 10407120
REMARK  4 active torsions:
REMARK  status: ('A' for Active; 'I' for Inactive)
REMARK    1  A    between atoms: N_2  and  C_19
REMARK    2  A    between atoms: C_3  and  C_6
REMARK    3  A    between atoms: C_5  and  C_16
REMARK    4  A    between atoms: C_19  and  C_21
REMARK                            x       y       z     vdW  Elec       q    Type
REMARK                         _______ _______ _______ _____ _____    ______ ____
ROOT
ATOM      1  O   UNL     1      33.856 -17.540 -25.108  0.00  0.00    -0.270 OA
ATOM      2  N   UNL     1      34.289 -15.471 -24.142  0.00  0.00    -0.267 N 
ATOM      3  C   UNL     1      34.324 -16.867 -24.189  0.00  0.00    +0.250 C 
ATOM      4  C   UNL     1      33.666 -14.735 -25.233  0.00  0.00    +0.116 C 
ENDROOT
BRANCH   3   6
ATOM      5  C   UNL     1      34.396 -18.670 -22.502  0.00  0.00    +0.006 C 
ATOM      6  C   UNL     1      34.952 -17.549 -23.018  0.00  0.00    +0.058 C 
BRANCH   5  16
ATOM      7  O   UNL     1      36.228 -22.931 -16.352  0.00  0.00    -0.275 OA
ATOM      8  N   UNL     1      36.438 -21.422 -18.070  0.00  0.00    -0.270 N 
ATOM      9  N   UNL     1      36.734 -19.920 -19.874  0.00  0.00    -0.229 NA
ATOM     10  C   UNL     1      33.687 -21.779 -18.651  0.00  0.00    +0.039 C 
ATOM     11  C   UNL     1      34.570 -20.938 -19.522  0.00  0.00    +0.010 C 
ATOM     12  C   UNL     1      34.481 -22.896 -17.993  0.00  0.00    +0.090 C 
ATOM     13  C   UNL     1      35.910 -20.749 -19.190  0.00  0.00    +0.130 C 
ATOM     14  C   UNL     1      34.062 -20.242 -20.620  0.00  0.00    +0.000 C 
ATOM     15  C   UNL     1      35.772 -22.407 -17.368  0.00  0.00    +0.227 C 
ATOM     16  C   UNL     1      34.894 -19.402 -21.352  0.00  0.00    +0.019 C 
ATOM     17  C   UNL     1      36.208 -19.275 -20.939  0.00  0.00    +0.100 C 
ATOM     18  H   UNL     1      37.341 -21.174 -17.769  0.00  0.00    +0.156 HD
ENDBRANCH   5  16
ENDBRANCH   3   6
BRANCH   2  19
ATOM     19  C   UNL     1      34.808 -14.653 -23.046  0.00  0.00    +0.158 C 
BRANCH  19  21
ATOM     20  O   UNL     1      33.033 -13.759 -21.701  0.00  0.00    -0.456 OA
ATOM     21  C   UNL     1      33.889 -13.515 -22.711  0.00  0.00    +0.139 A 
ATOM     22  C   UNL     1      33.748 -12.272 -23.230  0.00  0.00    +0.013 A 
ATOM     23  C   UNL     1      32.705 -11.665 -22.483  0.00  0.00    +0.033 A 
ATOM     24  C   UNL     1      32.299 -12.620 -21.556  0.00  0.00    +0.145 A 
ATOM     25  C   UNL     1      34.512 -11.667 -24.339  0.00  0.00    +0.034 C 
ATOM     26  C   UNL     1      32.060 -10.417 -22.487  0.00  0.00    +0.003 C 
ATOM     27  C   UNL     1      31.286 -12.420 -20.620  0.00  0.00    +0.037 C 
ATOM     28  C   UNL     1      31.036 -10.186 -21.558  0.00  0.00    +0.000 C 
ATOM     29  C   UNL     1      30.657 -11.172 -20.643  0.00  0.00    +0.003 C 
ENDBRANCH  19  21
ENDBRANCH   2  19
TORSDOF 4
ENDMDL
MODEL 6
REMARK VINA RESULT:     -10.5      6.199     10.102
REMARK  Name = 10407120
REMARK  4 active torsions:
REMARK  status: ('A' for Active; 'I' for Inactive)
REMARK    1  A    between atoms: N_2  and  C_19
REMARK    2  A    between atoms: C_3  and  C_6
REMARK    3  A    between atoms: C_5  and  C_16
REMARK    4  A    between atoms: C_19  and  C_21
REMARK                            x       y       z     vdW  Elec       q    Type
REMARK                         _______ _______ _______ _____ _____    ______ ____
ROOT
ATOM      1  O   UNL     1      37.962 -22.173 -14.456  0.00  0.00    -0.270 OA
ATOM      2  N   UNL     1      36.747 -24.154 -14.478  0.00  0.00    -0.267 N 
ATOM      3  C   UNL     1      37.089 -22.886 -14.954  0.00  0.00    +0.250 C 
ATOM      4  C   UNL     1      37.447 -24.695 -13.320  0.00  0.00    +0.116 C 
ENDROOT
BRANCH   3   6
ATOM      5  C   UNL     1      36.940 -21.845 -17.189  0.00  0.00    +0.006 C 
ATOM      6  C   UNL     1      36.306 -22.390 -16.124  0.00  0.00    +0.058 C 
BRANCH   5  16
ATOM      7  O   UNL     1      34.230 -18.478 -23.565  0.00  0.00    -0.275 OA
ATOM      8  N   UNL     1      34.311 -19.817 -21.701  0.00  0.00    -0.270 N 
ATOM      9  N   UNL     1      34.374 -21.276 -19.840  0.00  0.00    -0.229 NA
ATOM     10  C   UNL     1      36.822 -18.674 -21.052  0.00  0.00    +0.039 C 
ATOM     11  C   UNL     1      36.249 -19.808 -20.260  0.00  0.00    +0.010 C 
ATOM     12  C   UNL     1      36.362 -18.738 -22.500  0.00  0.00    +0.090 C 
ATOM     13  C   UNL     1      34.993 -20.324 -20.578  0.00  0.00    +0.130 C 
ATOM     14  C   UNL     1      36.895 -20.308 -19.128  0.00  0.00    +0.000 C 
ATOM     15  C   UNL     1      34.868 -18.961 -22.630  0.00  0.00    +0.227 C 
ATOM     16  C   UNL     1      36.289 -21.301 -18.367  0.00  0.00    +0.019 C 
ATOM     17  C   UNL     1      35.039 -21.744 -18.760  0.00  0.00    +0.100 C 
ATOM     18  H   UNL     1      33.375 -20.091 -21.832  0.00  0.00    +0.156 HD
ENDBRANCH   5  16
ENDBRANCH   3   6
BRANCH   2  19
ATOM     19  C   UNL     1      35.693 -25.004 -15.031  0.00  0.00    +0.158 C 
BRANCH  19  21
ATOM     20  O   UNL     1      33.649 -24.092 -15.897  0.00  0.00    -0.456 OA
ATOM     21  C   UNL     1      34.327 -24.434 -14.785  0.00  0.00    +0.139 A 
ATOM     22  C   UNL     1      33.628 -24.193 -13.650  0.00  0.00    +0.013 A 
ATOM     23  C   UNL     1      32.389 -23.646 -14.076  0.00  0.00    +0.033 A 
ATOM     24  C   UNL     1      32.453 -23.604 -15.465  0.00  0.00    +0.145 A 
ATOM     25  C   UNL     1      34.056 -24.443 -12.259  0.00  0.00    +0.034 C 
ATOM     26  C   UNL     1      31.224 -23.182 -13.442  0.00  0.00    +0.003 C 
ATOM     27  C   UNL     1      31.427 -23.129 -16.280  0.00  0.00    +0.037 C 
ATOM     28  C   UNL     1      30.175 -22.697 -14.235  0.00  0.00    +0.000 C 
ATOM     29  C   UNL     1      30.278 -22.672 -15.629  0.00  0.00    +0.003 C 
ENDBRANCH  19  21
ENDBRANCH   2  19
TORSDOF 4
ENDMDL
MODEL 7
REMARK VINA RESULT:     -10.4      5.288     11.825
REMARK  Name = 10407120
REMARK  4 active torsions:
REMARK  status: ('A' for Active; 'I' for Inactive)
REMARK    1  A    between atoms: N_2  and  C_19
REMARK    2  A    between atoms: C_3  and  C_6
REMARK    3  A    between atoms: C_5  and  C_16
REMARK    4  A    between atoms: C_19  and  C_21
REMARK                            x       y       z     vdW  Elec       q    Type
REMARK                         _______ _______ _______ _____ _____    ______ ____
ROOT
ATOM      1  O   UNL     1      32.309 -21.907 -18.372  0.00  0.00    -0.270 OA
ATOM      2  N   UNL     1      33.685 -20.761 -19.855  0.00  0.00    -0.267 N 
ATOM      3  C   UNL     1      33.433 -21.648 -18.803  0.00  0.00    +0.250 C 
ATOM      4  C   UNL     1      32.568 -20.086 -20.502  0.00  0.00    +0.116 C 
ENDROOT
BRANCH   3   6
ATOM      5  C   UNL     1      34.647 -22.532 -16.842  0.00  0.00    +0.006 C 
ATOM      6  C   UNL     1      34.631 -22.276 -18.172  0.00  0.00    +0.058 C 
BRANCH   5  16
ATOM      7  O   UNL     1      40.025 -26.302 -12.818  0.00  0.00    -0.275 OA
ATOM      8  N   UNL     1      39.014 -24.639 -14.038  0.00  0.00    -0.270 N 
ATOM      9  N   UNL     1      38.050 -22.932 -15.362  0.00  0.00    -0.229 NA
ATOM     10  C   UNL     1      36.603 -26.126 -13.970  0.00  0.00    +0.039 C 
ATOM     11  C   UNL     1      36.723 -24.863 -14.766  0.00  0.00    +0.010 C 
ATOM     12  C   UNL     1      37.943 -26.838 -13.878  0.00  0.00    +0.090 C 
ATOM     13  C   UNL     1      37.910 -24.132 -14.749  0.00  0.00    +0.130 C 
ATOM     14  C   UNL     1      35.634 -24.329 -15.457  0.00  0.00    +0.000 C 
ATOM     15  C   UNL     1      39.075 -25.907 -13.493  0.00  0.00    +0.227 C 
ATOM     16  C   UNL     1      35.760 -23.109 -16.111  0.00  0.00    +0.019 C 
ATOM     17  C   UNL     1      36.977 -22.456 -16.031  0.00  0.00    +0.100 C 
ATOM     18  H   UNL     1      39.795 -24.051 -13.921  0.00  0.00    +0.156 HD
ENDBRANCH   5  16
ENDBRANCH   3   6
BRANCH   2  19
ATOM     19  C   UNL     1      35.011 -20.412 -20.360  0.00  0.00    +0.158 C 
BRANCH  19  21
ATOM     20  O   UNL     1      34.956 -18.016 -20.477  0.00  0.00    -0.456 OA
ATOM     21  C   UNL     1      34.985 -19.159 -21.186  0.00  0.00    +0.139 A 
ATOM     22  C   UNL     1      34.987 -18.948 -22.524  0.00  0.00    +0.013 A 
ATOM     23  C   UNL     1      34.955 -17.537 -22.685  0.00  0.00    +0.033 A 
ATOM     24  C   UNL     1      34.936 -17.011 -21.396  0.00  0.00    +0.145 A 
ATOM     25  C   UNL     1      35.015 -19.962 -23.596  0.00  0.00    +0.034 C 
ATOM     26  C   UNL     1      34.939 -16.649 -23.773  0.00  0.00    +0.003 C 
ATOM     27  C   UNL     1      34.904 -15.648 -21.110  0.00  0.00    +0.037 C 
ATOM     28  C   UNL     1      34.906 -15.272 -23.517  0.00  0.00    +0.000 C 
ATOM     29  C   UNL     1      34.888 -14.782 -22.208  0.00  0.00    +0.003 C 
ENDBRANCH  19  21
ENDBRANCH   2  19
TORSDOF 4
ENDMDL
MODEL 8
REMARK VINA RESULT:     -10.4      4.116      7.648
REMARK  Name = 10407120
REMARK  4 active torsions:
REMARK  status: ('A' for Active; 'I' for Inactive)
REMARK    1  A    between atoms: N_2  and  C_19
REMARK    2  A    between atoms: C_3  and  C_6
REMARK    3  A    between atoms: C_5  and  C_16
REMARK    4  A    between atoms: C_19  and  C_21
REMARK                            x       y       z     vdW  Elec       q    Type
REMARK                         _______ _______ _______ _____ _____    ______ ____
ROOT
ATOM      1  O   UNL     1      32.690  -7.893 -18.919  0.00  0.00    -0.270 OA
ATOM      2  N   UNL     1      31.672  -9.894 -19.523  0.00  0.00    -0.267 N 
ATOM      3  C   UNL     1      32.208  -8.629 -19.782  0.00  0.00    +0.250 C 
ATOM      4  C   UNL     1      31.669 -10.403 -18.158  0.00  0.00    +0.116 C 
ENDROOT
BRANCH   3   6
ATOM      5  C   UNL     1      33.240  -7.631 -21.791  0.00  0.00    +0.006 C 
ATOM      6  C   UNL     1      32.146  -8.166 -21.200  0.00  0.00    +0.058 C 
BRANCH   5  16
ATOM      7  O   UNL     1      34.403  -4.762 -28.845  0.00  0.00    -0.275 OA
ATOM      8  N   UNL     1      33.314  -5.672 -27.038  0.00  0.00    -0.270 N 
ATOM      9  N   UNL     1      32.163  -6.685 -25.238  0.00  0.00    -0.229 NA
ATOM     10  C   UNL     1      35.698  -5.401 -25.529  0.00  0.00    +0.039 C 
ATOM     11  C   UNL     1      34.490  -6.088 -24.971  0.00  0.00    +0.010 C 
ATOM     12  C   UNL     1      35.763  -5.563 -27.040  0.00  0.00    +0.090 C 
ATOM     13  C   UNL     1      33.318  -6.171 -25.722  0.00  0.00    +0.130 C 
ATOM     14  C   UNL     1      34.464  -6.567 -23.660  0.00  0.00    +0.000 C 
ATOM     15  C   UNL     1      34.443  -5.258 -27.719  0.00  0.00    +0.227 C 
ATOM     16  C   UNL     1      33.295  -7.119 -23.148  0.00  0.00    +0.019 C 
ATOM     17  C   UNL     1      32.182  -7.152 -23.969  0.00  0.00    +0.100 C 
ATOM     18  H   UNL     1      32.450  -5.613 -27.505  0.00  0.00    +0.156 HD
ENDBRANCH   5  16
ENDBRANCH   3   6
BRANCH   2  19
ATOM     19  C   UNL     1      31.064 -10.769 -20.523  0.00  0.00    +0.158 C 
BRANCH  19  21
ATOM     20  O   UNL     1      32.303 -12.784 -20.113  0.00  0.00    -0.456 OA
ATOM     21  C   UNL     1      32.022 -11.818 -21.008  0.00  0.00    +0.139 A 
ATOM     22  C   UNL     1      32.669 -11.989 -22.185  0.00  0.00    +0.013 A 
ATOM     23  C   UNL     1      33.435 -13.174 -22.028  0.00  0.00    +0.033 A 
ATOM     24  C   UNL     1      33.175 -13.623 -20.737  0.00  0.00    +0.145 A 
ATOM     25  C   UNL     1      32.600 -11.131 -23.384  0.00  0.00    +0.034 C 
ATOM     26  C   UNL     1      34.318 -13.915 -22.832  0.00  0.00    +0.003 C 
ATOM     27  C   UNL     1      33.736 -14.771 -20.181  0.00  0.00    +0.037 C 
ATOM     28  C   UNL     1      34.899 -15.075 -22.300  0.00  0.00    +0.000 C 
ATOM     29  C   UNL     1      34.612 -15.493 -20.998  0.00  0.00    +0.003 C 
ENDBRANCH  19  21
ENDBRANCH   2  19
TORSDOF 4
ENDMDL
MODEL 9
REMARK VINA RESULT:     -10.2      3.462      5.539
REMARK  Name = 10407120
REMARK  4 active torsions:
REMARK  status: ('A' for Active; 'I' for Inactive)
REMARK    1  A    between atoms: N_2  and  C_19
REMARK    2  A    between atoms: C_3  and  C_6
REMARK    3  A    between atoms: C_5  and  C_16
REMARK    4  A    between atoms: C_19  and  C_21
REMARK                            x       y       z     vdW  Elec       q    Type
REMARK                         _______ _______ _______ _____ _____    ______ ____
ROOT
ATOM      1  O   UNL     1      30.901 -11.669 -20.876  0.00  0.00    -0.270 OA
ATOM      2  N   UNL     1      32.813 -12.871 -21.425  0.00  0.00    -0.267 N 
ATOM      3  C   UNL     1      31.958 -11.768 -21.500  0.00  0.00    +0.250 C 
ATOM      4  C   UNL     1      32.459 -13.992 -20.563  0.00  0.00    +0.116 C 
ENDROOT
BRANCH   3   6
ATOM      5  C   UNL     1      31.922  -9.413 -22.242  0.00  0.00    +0.006 C 
ATOM      6  C   UNL     1      32.376 -10.675 -22.427  0.00  0.00    +0.058 C 
BRANCH   5  16
ATOM      7  O   UNL     1      34.424  -3.550 -26.567  0.00  0.00    -0.275 OA
ATOM      8  N   UNL     1      32.978  -5.003 -25.532  0.00  0.00    -0.270 N 
ATOM      9  N   UNL     1      31.449  -6.522 -24.557  0.00  0.00    -0.229 NA
ATOM     10  C   UNL     1      35.189  -6.174 -24.201  0.00  0.00    +0.039 C 
ATOM     11  C   UNL     1      33.808  -6.742 -24.077  0.00  0.00    +0.010 C 
ATOM     12  C   UNL     1      35.378  -5.500 -25.550  0.00  0.00    +0.090 C 
ATOM     13  C   UNL     1      32.733  -6.122 -24.712  0.00  0.00    +0.130 C 
ATOM     14  C   UNL     1      33.539  -7.834 -23.250  0.00  0.00    +0.000 C 
ATOM     15  C   UNL     1      34.235  -4.571 -25.906  0.00  0.00    +0.227 C 
ATOM     16  C   UNL     1      32.231  -8.277 -23.092  0.00  0.00    +0.019 C 
ATOM     17  C   UNL     1      31.232  -7.591 -23.758  0.00  0.00    +0.100 C 
ATOM     18  H   UNL     1      32.201  -4.496 -25.860  0.00  0.00    +0.156 HD
ENDBRANCH   5  16
ENDBRANCH   3   6
BRANCH   2  19
ATOM     19  C   UNL     1      34.055 -13.025 -22.181  0.00  0.00    +0.158 C 
BRANCH  19  21
ATOM     20  O   UNL     1      34.924 -15.188 -21.610  0.00  0.00    -0.456 OA
ATOM     21  C   UNL     1      34.309 -14.456 -22.557  0.00  0.00    +0.139 A 
ATOM     22  C   UNL     1      34.038 -15.167 -23.677  0.00  0.00    +0.013 A 
ATOM     23  C   UNL     1      34.525 -16.476 -23.422  0.00  0.00    +0.033 A 
ATOM     24  C   UNL     1      35.061 -16.436 -22.139  0.00  0.00    +0.145 A 
ATOM     25  C   UNL     1      33.376 -14.692 -24.908  0.00  0.00    +0.034 C 
ATOM     26  C   UNL     1      34.573 -17.688 -24.133  0.00  0.00    +0.003 C 
ATOM     27  C   UNL     1      35.647 -17.529 -21.502  0.00  0.00    +0.037 C 
ATOM     28  C   UNL     1      35.157 -18.804 -23.519  0.00  0.00    +0.000 C 
ATOM     29  C   UNL     1      35.684 -18.723 -22.228  0.00  0.00    +0.003 C 
ENDBRANCH  19  21
ENDBRANCH   2  19
TORSDOF 4
ENDMDL
