MODEL 1
REMARK VINA RESULT:     -11.9      0.000      0.000
REMARK  Name = 6918388
REMARK  5 active torsions:
REMARK  status: ('A' for Active; 'I' for Inactive)
REMARK    1  A    between atoms: N_1  and  C_4
REMARK    2  A    between atoms: N_1  and  C_15
REMARK    3  A    between atoms: C_4  and  C_6
REMARK    4  A    between atoms: C_15  and  C_17
REMARK    5  A    between atoms: C_19  and  C_23
REMARK                            x       y       z     vdW  Elec       q    Type
REMARK                         _______ _______ _______ _____ _____    ______ ____
ROOT
ATOM      1  N   UNL     1      36.080 -17.653 -22.623  0.00  0.00    +0.389 N 
ATOM      2  H   UNL     1      35.402 -18.207 -23.146  0.00  0.00    -0.084 HD
ATOM      3  H   UNL     1      36.801 -17.291 -23.247  0.00  0.00    -0.084 HD
ENDROOT
BRANCH   1   4
ATOM      4  C   UNL     1      36.715 -18.498 -21.622  0.00  0.00    -0.037 C 
BRANCH   4   6
ATOM      5  O   UNL     1      36.354 -20.102 -19.896  0.00  0.00    -0.482 OA
ATOM      6  C   UNL     1      35.677 -19.121 -20.696  0.00  0.00    +0.145 C 
ATOM      7  C   UNL     1      34.539 -19.748 -21.499  0.00  0.00    +0.046 C 
ATOM      8  C   UNL     1      33.500 -20.311 -20.537  0.00  0.00    +0.033 C 
ATOM      9  C   UNL     1      34.167 -21.085 -19.437  0.00  0.00    +0.012 C 
ATOM     10  C   UNL     1      35.534 -20.931 -19.175  0.00  0.00    +0.134 C 
ATOM     11  C   UNL     1      33.413 -21.956 -18.639  0.00  0.00    -0.001 C 
ATOM     12  C   UNL     1      36.144 -21.668 -18.157  0.00  0.00    +0.037 C 
ATOM     13  C   UNL     1      34.021 -22.682 -17.614  0.00  0.00    -0.000 C 
ATOM     14  C   UNL     1      35.387 -22.540 -17.377  0.00  0.00    +0.003 C 
ENDBRANCH   4   6
ENDBRANCH   1   4
BRANCH   1  15
ATOM     15  C   UNL     1      35.398 -16.527 -22.000  0.00  0.00    -0.053 C 
BRANCH  15  17
ATOM     16  N   UNL     1      33.842 -15.438 -25.253  0.00  0.00    -0.243 NA
ATOM     17  C   UNL     1      34.656 -15.692 -23.008  0.00  0.00    -0.025 C 
ATOM     18  C   UNL     1      34.129 -14.467 -22.648  0.00  0.00    -0.003 C 
ATOM     19  C   UNL     1      33.449 -13.718 -23.601  0.00  0.00    +0.019 C 
ATOM     20  C   UNL     1      34.496 -16.138 -24.300  0.00  0.00    +0.092 C 
ATOM     21  C   UNL     1      33.333 -14.243 -24.878  0.00  0.00    +0.099 C 
BRANCH  19  23
ATOM     22  F   UNL     1      31.257  -8.751 -22.327  0.00  0.00    -0.204 F 
ATOM     23  C   UNL     1      32.879 -12.432 -23.271  0.00  0.00    +0.002 C 
ATOM     24  C   UNL     1      33.271 -11.292 -23.976  0.00  0.00    +0.002 C 
ATOM     25  C   UNL     1      31.939 -12.324 -22.246  0.00  0.00    +0.002 C 
ATOM     26  C   UNL     1      32.723 -10.049 -23.657  0.00  0.00    +0.030 C 
ATOM     27  C   UNL     1      31.391 -11.081 -21.927  0.00  0.00    +0.030 C 
ATOM     28  C   UNL     1      31.783  -9.944 -22.633  0.00  0.00    +0.140 C 
ENDBRANCH  19  23
ENDBRANCH  15  17
ENDBRANCH   1  15
TORSDOF 5
ENDMDL
MODEL 2
REMARK VINA RESULT:     -11.7      3.603      9.158
REMARK  Name = 6918388
REMARK  5 active torsions:
REMARK  status: ('A' for Active; 'I' for Inactive)
REMARK    1  A    between atoms: N_1  and  C_4
REMARK    2  A    between atoms: N_1  and  C_15
REMARK    3  A    between atoms: C_4  and  C_6
REMARK    4  A    between atoms: C_15  and  C_17
REMARK    5  A    between atoms: C_19  and  C_23
REMARK                            x       y       z     vdW  Elec       q    Type
REMARK                         _______ _______ _______ _____ _____    ______ ____
ROOT
ATOM      1  N   UNL     1      35.332 -16.518 -23.468  0.00  0.00    +0.389 N 
ATOM      2  H   UNL     1      35.440 -16.129 -22.532  0.00  0.00    -0.084 HD
ATOM      3  H   UNL     1      36.208 -16.450 -23.986  0.00  0.00    -0.084 HD
ENDROOT
BRANCH   1   4
ATOM      4  C   UNL     1      34.310 -15.766 -24.182  0.00  0.00    -0.037 C 
BRANCH   4   6
ATOM      5  O   UNL     1      33.383 -14.589 -22.329  0.00  0.00    -0.482 OA
ATOM      6  C   UNL     1      34.104 -14.393 -23.555  0.00  0.00    +0.145 C 
ATOM      7  C   UNL     1      33.344 -13.469 -24.505  0.00  0.00    +0.046 C 
ATOM      8  C   UNL     1      33.207 -12.095 -23.862  0.00  0.00    +0.033 C 
ATOM      9  C   UNL     1      32.778 -12.226 -22.428  0.00  0.00    +0.012 C 
ATOM     10  C   UNL     1      32.899 -13.445 -21.750  0.00  0.00    +0.134 C 
ATOM     11  C   UNL     1      32.273 -11.111 -21.746  0.00  0.00    -0.001 C 
ATOM     12  C   UNL     1      32.483 -13.555 -20.420  0.00  0.00    +0.037 C 
ATOM     13  C   UNL     1      31.871 -11.220 -20.414  0.00  0.00    -0.000 C 
ATOM     14  C   UNL     1      31.972 -12.442 -19.754  0.00  0.00    +0.003 C 
ENDBRANCH   4   6
ENDBRANCH   1   4
BRANCH   1  15
ATOM     15  C   UNL     1      34.966 -17.924 -23.360  0.00  0.00    -0.053 C 
BRANCH  15  17
ATOM     16  N   UNL     1      37.590 -18.900 -20.839  0.00  0.00    -0.243 NA
ATOM     17  C   UNL     1      35.621 -18.586 -22.178  0.00  0.00    -0.025 C 
ATOM     18  C   UNL     1      34.903 -19.451 -21.376  0.00  0.00    -0.003 C 
ATOM     19  C   UNL     1      35.534 -20.048 -20.291  0.00  0.00    +0.019 C 
ATOM     20  C   UNL     1      36.942 -18.338 -21.884  0.00  0.00    +0.092 C 
ATOM     21  C   UNL     1      36.867 -19.742 -20.067  0.00  0.00    +0.099 C 
BRANCH  19  23
ATOM     22  F   UNL     1      32.791 -23.558 -16.938  0.00  0.00    -0.204 F 
ATOM     23  C   UNL     1      34.824 -20.958 -19.423  0.00  0.00    +0.002 C 
ATOM     24  C   UNL     1      33.429 -21.011 -19.455  0.00  0.00    +0.002 C 
ATOM     25  C   UNL     1      35.529 -21.786 -18.548  0.00  0.00    +0.002 C 
ATOM     26  C   UNL     1      32.743 -21.889 -18.616  0.00  0.00    +0.030 C 
ATOM     27  C   UNL     1      34.843 -22.664 -17.709  0.00  0.00    +0.030 C 
ATOM     28  C   UNL     1      33.450 -22.715 -17.743  0.00  0.00    +0.140 C 
ENDBRANCH  19  23
ENDBRANCH  15  17
ENDBRANCH   1  15
TORSDOF 5
ENDMDL
MODEL 3
REMARK VINA RESULT:     -11.6      3.954      9.616
REMARK  Name = 6918388
REMARK  5 active torsions:
REMARK  status: ('A' for Active; 'I' for Inactive)
REMARK    1  A    between atoms: N_1  and  C_4
REMARK    2  A    between atoms: N_1  and  C_15
REMARK    3  A    between atoms: C_4  and  C_6
REMARK    4  A    between atoms: C_15  and  C_17
REMARK    5  A    between atoms: C_19  and  C_23
REMARK                            x       y       z     vdW  Elec       q    Type
REMARK                         _______ _______ _______ _____ _____    ______ ____
ROOT
ATOM      1  N   UNL     1      33.572 -13.696 -21.249  0.00  0.00    +0.389 N 
ATOM      2  H   UNL     1      33.627 -14.583 -20.750  0.00  0.00    -0.084 HD
ATOM      3  H   UNL     1      33.933 -12.938 -20.669  0.00  0.00    -0.084 HD
ENDROOT
BRANCH   1   4
ATOM      4  C   UNL     1      32.180 -13.413 -21.567  0.00  0.00    -0.037 C 
BRANCH   4   6
ATOM      5  O   UNL     1      32.203 -11.038 -21.767  0.00  0.00    -0.482 OA
ATOM      6  C   UNL     1      31.729 -12.104 -20.931  0.00  0.00    +0.145 C 
ATOM      7  C   UNL     1      32.272 -11.976 -19.508  0.00  0.00    +0.046 C 
ATOM      8  C   UNL     1      31.755 -10.683 -18.890  0.00  0.00    +0.033 C 
ATOM      9  C   UNL     1      31.897  -9.545 -19.860  0.00  0.00    +0.012 C 
ATOM     10  C   UNL     1      32.098  -9.783 -21.225  0.00  0.00    +0.134 C 
ATOM     11  C   UNL     1      31.801  -8.223 -19.405  0.00  0.00    -0.001 C 
ATOM     12  C   UNL     1      32.242  -8.714 -22.114  0.00  0.00    +0.037 C 
ATOM     13  C   UNL     1      31.931  -7.157 -20.295  0.00  0.00    -0.000 C 
ATOM     14  C   UNL     1      32.156  -7.403 -21.648  0.00  0.00    +0.003 C 
ENDBRANCH   4   6
ENDBRANCH   1   4
BRANCH   1  15
ATOM     15  C   UNL     1      34.378 -13.778 -22.459  0.00  0.00    -0.053 C 
BRANCH  15  17
ATOM     16  N   UNL     1      34.565 -16.806 -24.693  0.00  0.00    -0.243 NA
ATOM     17  C   UNL     1      34.577 -15.201 -22.906  0.00  0.00    -0.025 C 
ATOM     18  C   UNL     1      34.938 -16.175 -21.996  0.00  0.00    -0.003 C 
ATOM     19  C   UNL     1      35.116 -17.481 -22.437  0.00  0.00    +0.019 C 
ATOM     20  C   UNL     1      34.402 -15.548 -24.226  0.00  0.00    +0.092 C 
ATOM     21  C   UNL     1      34.919 -17.743 -23.784  0.00  0.00    +0.099 C 
BRANCH  19  23
ATOM     22  F   UNL     1      36.569 -21.541 -18.902  0.00  0.00    -0.204 F 
ATOM     23  C   UNL     1      35.493 -18.533 -21.523  0.00  0.00    +0.002 C 
ATOM     24  C   UNL     1      34.537 -19.447 -21.075  0.00  0.00    +0.002 C 
ATOM     25  C   UNL     1      36.813 -18.638 -21.081  0.00  0.00    +0.002 C 
ATOM     26  C   UNL     1      34.901 -20.463 -20.190  0.00  0.00    +0.030 C 
ATOM     27  C   UNL     1      37.176 -19.654 -20.196  0.00  0.00    +0.030 C 
ATOM     28  C   UNL     1      36.220 -20.565 -19.751  0.00  0.00    +0.140 C 
ENDBRANCH  19  23
ENDBRANCH  15  17
ENDBRANCH   1  15
TORSDOF 5
ENDMDL
MODEL 4
REMARK VINA RESULT:     -11.4      4.695     10.564
REMARK  Name = 6918388
REMARK  5 active torsions:
REMARK  status: ('A' for Active; 'I' for Inactive)
REMARK    1  A    between atoms: N_1  and  C_4
REMARK    2  A    between atoms: N_1  and  C_15
REMARK    3  A    between atoms: C_4  and  C_6
REMARK    4  A    between atoms: C_15  and  C_17
REMARK    5  A    between atoms: C_19  and  C_23
REMARK                            x       y       z     vdW  Elec       q    Type
REMARK                         _______ _______ _______ _____ _____    ______ ____
ROOT
ATOM      1  N   UNL     1      36.024 -19.838 -19.873  0.00  0.00    +0.389 N 
ATOM      2  H   UNL     1      35.239 -19.483 -19.329  0.00  0.00    -0.084 HD
ATOM      3  H   UNL     1      36.846 -19.250 -19.740  0.00  0.00    -0.084 HD
ENDROOT
BRANCH   1   4
ATOM      4  C   UNL     1      35.670 -19.828 -21.285  0.00  0.00    -0.037 C 
BRANCH   4   6
ATOM      5  O   UNL     1      35.176 -17.538 -20.845  0.00  0.00    -0.482 OA
ATOM      6  C   UNL     1      35.714 -18.413 -21.848  0.00  0.00    +0.145 C 
ATOM      7  C   UNL     1      34.919 -18.320 -23.150  0.00  0.00    +0.046 C 
ATOM      8  C   UNL     1      35.033 -16.906 -23.705  0.00  0.00    +0.033 C 
ATOM      9  C   UNL     1      34.822 -15.894 -22.615  0.00  0.00    +0.012 C 
ATOM     10  C   UNL     1      34.915 -16.260 -21.266  0.00  0.00    +0.134 C 
ATOM     11  C   UNL     1      34.554 -14.559 -22.944  0.00  0.00    -0.001 C 
ATOM     12  C   UNL     1      34.703 -15.311 -20.263  0.00  0.00    +0.037 C 
ATOM     13  C   UNL     1      34.356 -13.610 -21.941  0.00  0.00    -0.000 C 
ATOM     14  C   UNL     1      34.426 -13.987 -20.601  0.00  0.00    +0.003 C 
ENDBRANCH   4   6
ENDBRANCH   1   4
BRANCH   1  15
ATOM     15  C   UNL     1      36.343 -21.188 -19.426  0.00  0.00    -0.053 C 
BRANCH  15  17
ATOM     16  N   UNL     1      32.900 -22.431 -18.533  0.00  0.00    -0.243 NA
ATOM     17  C   UNL     1      35.215 -21.799 -18.639  0.00  0.00    -0.025 C 
ATOM     18  C   UNL     1      35.432 -22.273 -17.360  0.00  0.00    -0.003 C 
ATOM     19  C   UNL     1      34.372 -22.833 -16.657  0.00  0.00    +0.019 C 
ATOM     20  C   UNL     1      33.955 -21.893 -19.185  0.00  0.00    +0.092 C 
ATOM     21  C   UNL     1      33.136 -22.888 -17.283  0.00  0.00    +0.099 C 
BRANCH  19  23
ATOM     22  F   UNL     1      35.066 -24.803 -11.487  0.00  0.00    -0.204 F 
ATOM     23  C   UNL     1      34.550 -23.342 -15.318  0.00  0.00    +0.002 C 
ATOM     24  C   UNL     1      35.826 -23.386 -14.750  0.00  0.00    +0.002 C 
ATOM     25  C   UNL     1      33.451 -23.795 -14.587  0.00  0.00    +0.002 C 
ATOM     26  C   UNL     1      35.999 -23.879 -13.457  0.00  0.00    +0.030 C 
ATOM     27  C   UNL     1      33.624 -24.288 -13.294  0.00  0.00    +0.030 C 
ATOM     28  C   UNL     1      34.899 -24.330 -12.729  0.00  0.00    +0.140 C 
ENDBRANCH  19  23
ENDBRANCH  15  17
ENDBRANCH   1  15
TORSDOF 5
ENDMDL
MODEL 5
REMARK VINA RESULT:     -11.4      0.833      1.749
REMARK  Name = 6918388
REMARK  5 active torsions:
REMARK  status: ('A' for Active; 'I' for Inactive)
REMARK    1  A    between atoms: N_1  and  C_4
REMARK    2  A    between atoms: N_1  and  C_15
REMARK    3  A    between atoms: C_4  and  C_6
REMARK    4  A    between atoms: C_15  and  C_17
REMARK    5  A    between atoms: C_19  and  C_23
REMARK                            x       y       z     vdW  Elec       q    Type
REMARK                         _______ _______ _______ _____ _____    ______ ____
ROOT
ATOM      1  N   UNL     1      35.766 -18.223 -22.639  0.00  0.00    +0.389 N 
ATOM      2  H   UNL     1      35.823 -18.239 -23.657  0.00  0.00    -0.084 HD
ATOM      3  H   UNL     1      36.603 -18.637 -22.229  0.00  0.00    -0.084 HD
ENDROOT
BRANCH   1   4
ATOM      4  C   UNL     1      34.609 -18.998 -22.214  0.00  0.00    -0.037 C 
BRANCH   4   6
ATOM      5  O   UNL     1      33.859 -20.412 -20.449  0.00  0.00    -0.482 OA
ATOM      6  C   UNL     1      35.016 -20.093 -21.236  0.00  0.00    +0.145 C 
ATOM      7  C   UNL     1      36.176 -19.633 -20.355  0.00  0.00    +0.046 C 
ATOM      8  C   UNL     1      36.586 -20.773 -19.432  0.00  0.00    +0.033 C 
ATOM      9  C   UNL     1      35.373 -21.410 -18.814  0.00  0.00    +0.012 C 
ATOM     10  C   UNL     1      34.098 -21.205 -19.357  0.00  0.00    +0.134 C 
ATOM     11  C   UNL     1      35.514 -22.243 -17.697  0.00  0.00    -0.001 C 
ATOM     12  C   UNL     1      32.978 -21.793 -18.764  0.00  0.00    +0.037 C 
ATOM     13  C   UNL     1      34.396 -22.840 -17.114  0.00  0.00    -0.000 C 
ATOM     14  C   UNL     1      33.129 -22.611 -17.645  0.00  0.00    +0.003 C 
ENDBRANCH   4   6
ENDBRANCH   1   4
BRANCH   1  15
ATOM     15  C   UNL     1      35.664 -16.842 -22.188  0.00  0.00    -0.053 C 
BRANCH  15  17
ATOM     16  N   UNL     1      33.937 -15.710 -25.340  0.00  0.00    -0.243 NA
ATOM     17  C   UNL     1      34.861 -15.998 -23.142  0.00  0.00    -0.025 C 
ATOM     18  C   UNL     1      34.332 -14.791 -22.731  0.00  0.00    -0.003 C 
ATOM     19  C   UNL     1      33.595 -14.033 -23.633  0.00  0.00    +0.019 C 
ATOM     20  C   UNL     1      34.648 -16.419 -24.435  0.00  0.00    +0.092 C 
ATOM     21  C   UNL     1      33.428 -14.533 -24.915  0.00  0.00    +0.099 C 
BRANCH  19  23
ATOM     22  F   UNL     1      31.373  -9.138 -22.150  0.00  0.00    -0.204 F 
ATOM     23  C   UNL     1      33.021 -12.765 -23.249  0.00  0.00    +0.002 C 
ATOM     24  C   UNL     1      32.068 -12.708 -22.229  0.00  0.00    +0.002 C 
ATOM     25  C   UNL     1      33.414 -11.592 -23.896  0.00  0.00    +0.002 C 
ATOM     26  C   UNL     1      31.512 -11.484 -21.858  0.00  0.00    +0.030 C 
ATOM     27  C   UNL     1      32.857 -10.368 -23.525  0.00  0.00    +0.030 C 
ATOM     28  C   UNL     1      31.907 -10.314 -22.506  0.00  0.00    +0.140 C 
ENDBRANCH  19  23
ENDBRANCH  15  17
ENDBRANCH   1  15
TORSDOF 5
ENDMDL
MODEL 6
REMARK VINA RESULT:     -11.3      4.550     10.476
REMARK  Name = 6918388
REMARK  5 active torsions:
REMARK  status: ('A' for Active; 'I' for Inactive)
REMARK    1  A    between atoms: N_1  and  C_4
REMARK    2  A    between atoms: N_1  and  C_15
REMARK    3  A    between atoms: C_4  and  C_6
REMARK    4  A    between atoms: C_15  and  C_17
REMARK    5  A    between atoms: C_19  and  C_23
REMARK                            x       y       z     vdW  Elec       q    Type
REMARK                         _______ _______ _______ _____ _____    ______ ____
ROOT
ATOM      1  N   UNL     1      35.042 -19.905 -20.052  0.00  0.00    +0.389 N 
ATOM      2  H   UNL     1      34.213 -19.507 -20.489  0.00  0.00    -0.084 HD
ATOM      3  H   UNL     1      35.185 -19.504 -19.125  0.00  0.00    -0.084 HD
ENDROOT
BRANCH   1   4
ATOM      4  C   UNL     1      36.206 -19.602 -20.872  0.00  0.00    -0.037 C 
BRANCH   4   6
ATOM      5  O   UNL     1      35.419 -17.367 -20.621  0.00  0.00    -0.482 OA
ATOM      6  C   UNL     1      36.054 -18.250 -21.558  0.00  0.00    +0.145 C 
ATOM      7  C   UNL     1      35.235 -18.380 -22.841  0.00  0.00    +0.046 C 
ATOM      8  C   UNL     1      35.152 -17.019 -23.521  0.00  0.00    +0.033 C 
ATOM      9  C   UNL     1      34.823 -15.950 -22.518  0.00  0.00    +0.012 C 
ATOM     10  C   UNL     1      34.984 -16.177 -21.146  0.00  0.00    +0.134 C 
ATOM     11  C   UNL     1      34.375 -14.697 -22.955  0.00  0.00    -0.001 C 
ATOM     12  C   UNL     1      34.662 -15.178 -20.224  0.00  0.00    +0.037 C 
ATOM     13  C   UNL     1      34.067 -13.695 -22.034  0.00  0.00    -0.000 C 
ATOM     14  C   UNL     1      34.206 -13.938 -20.669  0.00  0.00    +0.003 C 
ENDBRANCH   4   6
ENDBRANCH   1   4
BRANCH   1  15
ATOM     15  C   UNL     1      34.864 -21.344 -19.911  0.00  0.00    -0.053 C 
BRANCH  15  17
ATOM     16  N   UNL     1      36.796 -22.080 -16.762  0.00  0.00    -0.243 NA
ATOM     17  C   UNL     1      35.178 -21.816 -18.517  0.00  0.00    -0.025 C 
ATOM     18  C   UNL     1      34.195 -22.393 -17.737  0.00  0.00    -0.003 C 
ATOM     19  C   UNL     1      34.515 -22.819 -16.453  0.00  0.00    +0.019 C 
ATOM     20  C   UNL     1      36.448 -21.678 -18.005  0.00  0.00    +0.092 C 
ATOM     21  C   UNL     1      35.818 -22.641 -16.016  0.00  0.00    +0.099 C 
BRANCH  19  23
ATOM     22  F   UNL     1      30.681 -25.175 -13.160  0.00  0.00    -0.204 F 
ATOM     23  C   UNL     1      33.521 -23.428 -15.600  0.00  0.00    +0.002 C 
ATOM     24  C   UNL     1      33.907 -24.048 -14.410  0.00  0.00    +0.002 C 
ATOM     25  C   UNL     1      32.174 -23.401 -15.963  0.00  0.00    +0.002 C 
ATOM     26  C   UNL     1      32.947 -24.638 -13.586  0.00  0.00    +0.030 C 
ATOM     27  C   UNL     1      31.215 -23.991 -15.140  0.00  0.00    +0.030 C 
ATOM     28  C   UNL     1      31.602 -24.609 -13.951  0.00  0.00    +0.140 C 
ENDBRANCH  19  23
ENDBRANCH  15  17
ENDBRANCH   1  15
TORSDOF 5
ENDMDL
MODEL 7
REMARK VINA RESULT:     -11.3      3.950     10.239
REMARK  Name = 6918388
REMARK  5 active torsions:
REMARK  status: ('A' for Active; 'I' for Inactive)
REMARK    1  A    between atoms: N_1  and  C_4
REMARK    2  A    between atoms: N_1  and  C_15
REMARK    3  A    between atoms: C_4  and  C_6
REMARK    4  A    between atoms: C_15  and  C_17
REMARK    5  A    between atoms: C_19  and  C_23
REMARK                            x       y       z     vdW  Elec       q    Type
REMARK                         _______ _______ _______ _____ _____    ______ ____
ROOT
ATOM      1  N   UNL     1      34.134 -12.950 -23.242  0.00  0.00    +0.389 N 
ATOM      2  H   UNL     1      34.753 -12.140 -23.262  0.00  0.00    -0.084 HD
ATOM      3  H   UNL     1      34.180 -13.456 -24.126  0.00  0.00    -0.084 HD
ENDROOT
BRANCH   1   4
ATOM      4  C   UNL     1      32.765 -12.499 -23.037  0.00  0.00    -0.037 C 
BRANCH   4   6
ATOM      5  O   UNL     1      33.930 -10.432 -23.259  0.00  0.00    -0.482 OA
ATOM      6  C   UNL     1      32.624 -11.017 -23.363  0.00  0.00    +0.145 C 
ATOM      7  C   UNL     1      31.636 -10.343 -22.413  0.00  0.00    +0.046 C 
ATOM      8  C   UNL     1      31.483  -8.879 -22.807  0.00  0.00    +0.033 C 
ATOM      9  C   UNL     1      32.828  -8.262 -23.064  0.00  0.00    +0.012 C 
ATOM     10  C   UNL     1      33.957  -9.061 -23.283  0.00  0.00    +0.134 C 
ATOM     11  C   UNL     1      32.959  -6.867 -23.112  0.00  0.00    -0.001 C 
ATOM     12  C   UNL     1      35.205  -8.473 -23.507  0.00  0.00    +0.037 C 
ATOM     13  C   UNL     1      34.203  -6.282 -23.350  0.00  0.00    -0.000 C 
ATOM     14  C   UNL     1      35.325  -7.085 -23.543  0.00  0.00    +0.003 C 
ENDBRANCH   4   6
ENDBRANCH   1   4
BRANCH   1  15
ATOM     15  C   UNL     1      34.554 -13.845 -22.172  0.00  0.00    -0.053 C 
BRANCH  15  17
ATOM     16  N   UNL     1      34.611 -16.828 -24.472  0.00  0.00    -0.243 NA
ATOM     17  C   UNL     1      34.696 -15.265 -22.651  0.00  0.00    -0.025 C 
ATOM     18  C   UNL     1      35.023 -16.272 -21.765  0.00  0.00    -0.003 C 
ATOM     19  C   UNL     1      35.148 -17.573 -22.236  0.00  0.00    +0.019 C 
ATOM     20  C   UNL     1      34.499 -15.576 -23.978  0.00  0.00    +0.092 C 
ATOM     21  C   UNL     1      34.933 -17.797 -23.587  0.00  0.00    +0.099 C 
BRANCH  19  23
ATOM     22  F   UNL     1      36.463 -21.763 -18.800  0.00  0.00    -0.204 F 
ATOM     23  C   UNL     1      35.490 -18.659 -21.347  0.00  0.00    +0.002 C 
ATOM     24  C   UNL     1      34.507 -19.562 -20.936  0.00  0.00    +0.002 C 
ATOM     25  C   UNL     1      36.801 -18.807 -20.893  0.00  0.00    +0.002 C 
ATOM     26  C   UNL     1      34.836 -20.610 -20.076  0.00  0.00    +0.030 C 
ATOM     27  C   UNL     1      37.130 -19.855 -20.033  0.00  0.00    +0.030 C 
ATOM     28  C   UNL     1      36.147 -20.756 -19.625  0.00  0.00    +0.140 C 
ENDBRANCH  19  23
ENDBRANCH  15  17
ENDBRANCH   1  15
TORSDOF 5
ENDMDL
MODEL 8
REMARK VINA RESULT:     -11.3      1.447      2.231
REMARK  Name = 6918388
REMARK  5 active torsions:
REMARK  status: ('A' for Active; 'I' for Inactive)
REMARK    1  A    between atoms: N_1  and  C_4
REMARK    2  A    between atoms: N_1  and  C_15
REMARK    3  A    between atoms: C_4  and  C_6
REMARK    4  A    between atoms: C_15  and  C_17
REMARK    5  A    between atoms: C_19  and  C_23
REMARK                            x       y       z     vdW  Elec       q    Type
REMARK                         _______ _______ _______ _____ _____    ______ ____
ROOT
ATOM      1  N   UNL     1      35.638 -17.135 -23.163  0.00  0.00    +0.389 N 
ATOM      2  H   UNL     1      36.449 -17.331 -23.748  0.00  0.00    -0.084 HD
ATOM      3  H   UNL     1      35.928 -16.923 -22.209  0.00  0.00    -0.084 HD
ENDROOT
BRANCH   1   4
ATOM      4  C   UNL     1      34.774 -18.307 -23.136  0.00  0.00    -0.037 C 
BRANCH   4   6
ATOM      5  O   UNL     1      34.168 -19.806 -21.386  0.00  0.00    -0.482 OA
ATOM      6  C   UNL     1      35.293 -19.343 -22.147  0.00  0.00    +0.145 C 
ATOM      7  C   UNL     1      36.366 -18.742 -21.241  0.00  0.00    +0.046 C 
ATOM      8  C   UNL     1      36.894 -19.822 -20.306  0.00  0.00    +0.033 C 
ATOM      9  C   UNL     1      35.758 -20.607 -19.715  0.00  0.00    +0.012 C 
ATOM     10  C   UNL     1      34.480 -20.564 -20.287  0.00  0.00    +0.134 C 
ATOM     11  C   UNL     1      35.977 -21.417 -18.593  0.00  0.00    -0.001 C 
ATOM     12  C   UNL     1      33.429 -21.289 -19.719  0.00  0.00    +0.037 C 
ATOM     13  C   UNL     1      34.930 -22.151 -18.035  0.00  0.00    -0.000 C 
ATOM     14  C   UNL     1      33.656 -22.083 -18.596  0.00  0.00    +0.003 C 
ENDBRANCH   4   6
ENDBRANCH   1   4
BRANCH   1  15
ATOM     15  C   UNL     1      34.932 -15.979 -23.701  0.00  0.00    -0.053 C 
BRANCH  15  17
ATOM     16  N   UNL     1      34.194 -14.630 -20.261  0.00  0.00    -0.243 NA
ATOM     17  C   UNL     1      34.424 -15.075 -22.610  0.00  0.00    -0.025 C 
ATOM     18  C   UNL     1      33.750 -13.911 -22.926  0.00  0.00    -0.003 C 
ATOM     19  C   UNL     1      33.293 -13.095 -21.898  0.00  0.00    +0.019 C 
ATOM     20  C   UNL     1      34.624 -15.397 -21.288  0.00  0.00    +0.092 C 
ATOM     21  C   UNL     1      33.538 -13.495 -20.594  0.00  0.00    +0.099 C 
BRANCH  19  23
ATOM     22  F   UNL     1      30.564  -8.354 -22.980  0.00  0.00    -0.204 F 
ATOM     23  C   UNL     1      32.585 -11.868 -22.178  0.00  0.00    +0.002 C 
ATOM     24  C   UNL     1      33.006 -11.040 -23.222  0.00  0.00    +0.002 C 
ATOM     25  C   UNL     1      31.481 -11.504 -21.407  0.00  0.00    +0.002 C 
ATOM     26  C   UNL     1      32.323  -9.854 -23.492  0.00  0.00    +0.030 C 
ATOM     27  C   UNL     1      30.798 -10.317 -21.677  0.00  0.00    +0.030 C 
ATOM     28  C   UNL     1      31.219  -9.493 -22.720  0.00  0.00    +0.140 C 
ENDBRANCH  19  23
ENDBRANCH  15  17
ENDBRANCH   1  15
TORSDOF 5
ENDMDL
MODEL 9
REMARK VINA RESULT:     -11.3      3.934      6.833
REMARK  Name = 6918388
REMARK  5 active torsions:
REMARK  status: ('A' for Active; 'I' for Inactive)
REMARK    1  A    between atoms: N_1  and  C_4
REMARK    2  A    between atoms: N_1  and  C_15
REMARK    3  A    between atoms: C_4  and  C_6
REMARK    4  A    between atoms: C_15  and  C_17
REMARK    5  A    between atoms: C_19  and  C_23
REMARK                            x       y       z     vdW  Elec       q    Type
REMARK                         _______ _______ _______ _____ _____    ______ ____
ROOT
ATOM      1  N   UNL     1      34.218 -22.811 -18.134  0.00  0.00    +0.389 N 
ATOM      2  H   UNL     1      34.545 -23.644 -18.620  0.00  0.00    -0.084 HD
ATOM      3  H   UNL     1      34.990 -22.354 -17.649  0.00  0.00    -0.084 HD
ENDROOT
BRANCH   1   4
ATOM      4  C   UNL     1      33.215 -23.195 -17.150  0.00  0.00    -0.037 C 
BRANCH   4   6
ATOM      5  O   UNL     1      34.914 -24.159 -15.785  0.00  0.00    -0.482 OA
ATOM      6  C   UNL     1      33.813 -23.239 -15.750  0.00  0.00    +0.145 C 
ATOM      7  C   UNL     1      32.765 -23.666 -14.724  0.00  0.00    +0.046 C 
ATOM      8  C   UNL     1      33.388 -23.644 -13.334  0.00  0.00    +0.033 C 
ATOM      9  C   UNL     1      34.739 -24.301 -13.354  0.00  0.00    +0.012 C 
ATOM     10  C   UNL     1      35.421 -24.508 -14.560  0.00  0.00    +0.134 C 
ATOM     11  C   UNL     1      35.344 -24.689 -12.151  0.00  0.00    -0.001 C 
ATOM     12  C   UNL     1      36.671 -25.132 -14.564  0.00  0.00    +0.037 C 
ATOM     13  C   UNL     1      36.599 -25.300 -12.156  0.00  0.00    -0.000 C 
ATOM     14  C   UNL     1      37.259 -25.525 -13.362  0.00  0.00    +0.003 C 
ENDBRANCH   4   6
ENDBRANCH   1   4
BRANCH   1  15
ATOM     15  C   UNL     1      33.664 -21.878 -19.106  0.00  0.00    -0.053 C 
BRANCH  15  17
ATOM     16  N   UNL     1      36.966 -20.118 -19.544  0.00  0.00    -0.243 NA
ATOM     17  C   UNL     1      34.708 -20.930 -19.633  0.00  0.00    -0.025 C 
ATOM     18  C   UNL     1      34.397 -20.040 -20.642  0.00  0.00    -0.003 C 
ATOM     19  C   UNL     1      35.381 -19.177 -21.109  0.00  0.00    +0.019 C 
ATOM     20  C   UNL     1      35.983 -20.941 -19.116  0.00  0.00    +0.092 C 
ATOM     21  C   UNL     1      36.639 -19.255 -20.532  0.00  0.00    +0.099 C 
BRANCH  19  23
ATOM     22  F   UNL     1      34.313 -15.518 -25.179  0.00  0.00    -0.204 F 
ATOM     23  C   UNL     1      35.104 -18.229 -22.162  0.00  0.00    +0.002 C 
ATOM     24  C   UNL     1      34.613 -18.673 -23.392  0.00  0.00    +0.002 C 
ATOM     25  C   UNL     1      35.327 -16.867 -21.956  0.00  0.00    +0.002 C 
ATOM     26  C   UNL     1      34.346 -17.757 -24.410  0.00  0.00    +0.030 C 
ATOM     27  C   UNL     1      35.060 -15.951 -22.975  0.00  0.00    +0.030 C 
ATOM     28  C   UNL     1      34.570 -16.397 -24.201  0.00  0.00    +0.140 C 
ENDBRANCH  19  23
ENDBRANCH  15  17
ENDBRANCH   1  15
TORSDOF 5
ENDMDL
