MODEL 1
REMARK VINA RESULT:     -10.8      0.000      0.000
REMARK  Name = 17753851
REMARK  6 active torsions:
REMARK  status: ('A' for Active; 'I' for Inactive)
REMARK    1  A    between atoms: C_2  and  C_9
REMARK    2  A    between atoms: C_3  and  C_22
REMARK    3  A    between atoms: C_9  and  C_10
REMARK    4  A    between atoms: C_15  and  C_18
REMARK    5  A    between atoms: C_22  and  C_23
REMARK    6  A    between atoms: C_28  and  C_31
REMARK                            x       y       z     vdW  Elec       q    Type
REMARK                         _______ _______ _______ _____ _____    ______ ____
ROOT
ATOM      1  O   UNL     1      31.398  -9.117 -23.247  0.00  0.00    -0.296 OA
ATOM      2  C   UNL     1      32.629 -10.909 -22.205  0.00  0.00    +0.062 C 
ATOM      3  C   UNL     1      32.061  -8.650 -21.001  0.00  0.00    +0.062 C 
ATOM      4  C   UNL     1      31.664 -11.913 -21.570  0.00  0.00    +0.008 C 
ATOM      5  C   UNL     1      32.224  -9.398 -19.675  0.00  0.00    +0.008 C 
ATOM      6  C   UNL     1      31.616 -11.852 -20.044  0.00  0.00    +0.000 C 
ATOM      7  C   UNL     1      31.192 -10.506 -19.458  0.00  0.00    +0.000 C 
ATOM      8  C   UNL     1      31.974  -9.534 -22.238  0.00  0.00    +0.150 C 
ENDROOT
BRANCH   2   9
ATOM      9  C   UNL     1      32.996 -11.346 -23.626  0.00  0.00    +0.034 C 
BRANCH   9  10
ATOM     10  C   UNL     1      33.454 -12.776 -23.661  0.00  0.00    -0.022 C 
ATOM     11  C   UNL     1      33.068 -13.606 -24.713  0.00  0.00    -0.004 C 
ATOM     12  C   UNL     1      34.266 -13.274 -22.642  0.00  0.00    -0.004 C 
ATOM     13  C   UNL     1      33.492 -14.934 -24.746  0.00  0.00    +0.002 C 
ATOM     14  C   UNL     1      34.691 -14.602 -22.674  0.00  0.00    +0.002 C 
ATOM     15  C   UNL     1      34.304 -15.432 -23.727  0.00  0.00    +0.031 C 
BRANCH  15  18
ATOM     16  N   UNL     1      35.699 -17.297 -22.863  0.00  0.00    -0.343 N 
ATOM     17  N   UNL     1      34.248 -17.646 -24.662  0.00  0.00    -0.285 NA
ATOM     18  C   UNL     1      34.747 -16.817 -23.761  0.00  0.00    +0.117 C 
ATOM     19  H   UNL     1      35.984 -18.238 -22.903  0.00  0.00    +0.144 HD
ATOM     20  H   UNL     1      36.085 -16.694 -22.187  0.00  0.00    +0.144 HD
ATOM     21  H   UNL     1      34.546 -18.584 -24.686  0.00  0.00    +0.188 HD
ENDBRANCH  15  18
ENDBRANCH   9  10
ENDBRANCH   2   9
BRANCH   3  22
ATOM     22  C   UNL     1      33.197  -7.649 -21.197  0.00  0.00    +0.034 C 
BRANCH  22  23
ATOM     23  C   UNL     1      32.706  -6.368 -21.815  0.00  0.00    -0.022 C 
ATOM     24  C   UNL     1      31.843  -5.537 -21.100  0.00  0.00    -0.004 C 
ATOM     25  C   UNL     1      33.111  -6.013 -23.101  0.00  0.00    -0.004 C 
ATOM     26  C   UNL     1      31.386  -4.349 -21.673  0.00  0.00    +0.002 C 
ATOM     27  C   UNL     1      32.655  -4.826 -23.673  0.00  0.00    +0.002 C 
ATOM     28  C   UNL     1      31.793  -3.993 -22.959  0.00  0.00    +0.031 C 
BRANCH  28  31
ATOM     29  N   UNL     1      32.199  -1.837 -24.121  0.00  0.00    -0.343 N 
ATOM     30  N   UNL     1      30.024  -2.484 -23.564  0.00  0.00    -0.285 NA
ATOM     31  C   UNL     1      31.317  -2.755 -23.555  0.00  0.00    +0.117 C 
ATOM     32  H   UNL     1      31.855  -1.005 -24.519  0.00  0.00    +0.144 HD
ATOM     33  H   UNL     1      33.166  -2.019 -24.122  0.00  0.00    +0.144 HD
ATOM     34  H   UNL     1      29.699  -1.646 -23.967  0.00  0.00    +0.188 HD
ENDBRANCH  28  31
ENDBRANCH  22  23
ENDBRANCH   3  22
TORSDOF 6
ENDMDL
MODEL 2
REMARK VINA RESULT:     -10.6      5.589      9.068
REMARK  Name = 17753851
REMARK  6 active torsions:
REMARK  status: ('A' for Active; 'I' for Inactive)
REMARK    1  A    between atoms: C_2  and  C_9
REMARK    2  A    between atoms: C_3  and  C_22
REMARK    3  A    between atoms: C_9  and  C_10
REMARK    4  A    between atoms: C_15  and  C_18
REMARK    5  A    between atoms: C_22  and  C_23
REMARK    6  A    between atoms: C_28  and  C_31
REMARK                            x       y       z     vdW  Elec       q    Type
REMARK                         _______ _______ _______ _____ _____    ______ ____
ROOT
ATOM      1  O   UNL     1      37.364 -17.950 -21.404  0.00  0.00    -0.296 OA
ATOM      2  C   UNL     1      35.379 -19.291 -21.673  0.00  0.00    +0.062 C 
ATOM      3  C   UNL     1      35.431 -16.693 -22.025  0.00  0.00    +0.062 C 
ATOM      4  C   UNL     1      35.309 -19.850 -23.097  0.00  0.00    +0.008 C 
ATOM      5  C   UNL     1      34.191 -16.859 -22.907  0.00  0.00    +0.008 C 
ATOM      6  C   UNL     1      34.258 -19.177 -23.979  0.00  0.00    +0.000 C 
ATOM      7  C   UNL     1      34.439 -17.673 -24.178  0.00  0.00    +0.000 C 
ATOM      8  C   UNL     1      36.163 -17.985 -21.685  0.00  0.00    +0.150 C 
ENDROOT
BRANCH   2   9
ATOM      9  C   UNL     1      36.056 -20.296 -20.738  0.00  0.00    +0.034 C 
BRANCH   9  10
ATOM     10  C   UNL     1      35.070 -20.909 -19.783  0.00  0.00    -0.022 C 
ATOM     11  C   UNL     1      35.509 -21.802 -18.806  0.00  0.00    -0.004 C 
ATOM     12  C   UNL     1      33.717 -20.585 -19.874  0.00  0.00    -0.004 C 
ATOM     13  C   UNL     1      34.595 -22.372 -17.920  0.00  0.00    +0.002 C 
ATOM     14  C   UNL     1      32.802 -21.154 -18.988  0.00  0.00    +0.002 C 
ATOM     15  C   UNL     1      33.241 -22.047 -18.011  0.00  0.00    +0.031 C 
BRANCH  15  18
ATOM     16  N   UNL     1      32.676 -23.618 -16.172  0.00  0.00    -0.343 N 
ATOM     17  N   UNL     1      31.023 -22.258 -17.110  0.00  0.00    -0.285 NA
ATOM     18  C   UNL     1      32.288 -22.641 -17.087  0.00  0.00    +0.117 C 
ATOM     19  H   UNL     1      32.015 -24.006 -15.555  0.00  0.00    +0.144 HD
ATOM     20  H   UNL     1      33.614 -23.919 -16.142  0.00  0.00    +0.144 HD
ATOM     21  H   UNL     1      30.376 -22.659 -16.485  0.00  0.00    +0.188 HD
ENDBRANCH  15  18
ENDBRANCH   9  10
ENDBRANCH   2   9
BRANCH   3  22
ATOM     22  C   UNL     1      35.074 -15.979 -20.724  0.00  0.00    +0.034 C 
BRANCH  22  23
ATOM     23  C   UNL     1      34.160 -14.809 -20.966  0.00  0.00    -0.022 C 
ATOM     24  C   UNL     1      33.083 -14.578 -20.111  0.00  0.00    -0.004 C 
ATOM     25  C   UNL     1      34.389 -13.957 -22.047  0.00  0.00    -0.004 C 
ATOM     26  C   UNL     1      32.234 -13.493 -20.337  0.00  0.00    +0.002 C 
ATOM     27  C   UNL     1      33.541 -12.873 -22.272  0.00  0.00    +0.002 C 
ATOM     28  C   UNL     1      32.464 -12.641 -21.417  0.00  0.00    +0.031 C 
BRANCH  28  31
ATOM     29  N   UNL     1      31.929 -10.486 -22.529  0.00  0.00    -0.343 N 
ATOM     30  N   UNL     1      30.419 -11.441 -21.023  0.00  0.00    -0.285 NA
ATOM     31  C   UNL     1      31.579 -11.511 -21.652  0.00  0.00    +0.117 C 
ATOM     32  H   UNL     1      31.315  -9.730 -22.673  0.00  0.00    +0.144 HD
ATOM     33  H   UNL     1      32.790 -10.517 -23.005  0.00  0.00    +0.144 HD
ATOM     34  H   UNL     1      29.818 -10.677 -21.181  0.00  0.00    +0.188 HD
ENDBRANCH  28  31
ENDBRANCH  22  23
ENDBRANCH   3  22
TORSDOF 6
ENDMDL
MODEL 3
REMARK VINA RESULT:     -10.6      8.125     12.415
REMARK  Name = 17753851
REMARK  6 active torsions:
REMARK  status: ('A' for Active; 'I' for Inactive)
REMARK    1  A    between atoms: C_2  and  C_9
REMARK    2  A    between atoms: C_3  and  C_22
REMARK    3  A    between atoms: C_9  and  C_10
REMARK    4  A    between atoms: C_15  and  C_18
REMARK    5  A    between atoms: C_22  and  C_23
REMARK    6  A    between atoms: C_28  and  C_31
REMARK                            x       y       z     vdW  Elec       q    Type
REMARK                         _______ _______ _______ _____ _____    ______ ____
ROOT
ATOM      1  O   UNL     1      37.119 -21.670 -20.261  0.00  0.00    -0.296 OA
ATOM      2  C   UNL     1      35.747 -21.336 -18.307  0.00  0.00    +0.062 C 
ATOM      3  C   UNL     1      35.332 -20.121 -20.594  0.00  0.00    +0.062 C 
ATOM      4  C   UNL     1      34.642 -22.394 -18.252  0.00  0.00    +0.008 C 
ATOM      5  C   UNL     1      33.878 -19.937 -20.151  0.00  0.00    +0.008 C 
ATOM      6  C   UNL     1      33.251 -21.861 -18.592  0.00  0.00    +0.000 C 
ATOM      7  C   UNL     1      33.110 -21.248 -19.985  0.00  0.00    +0.000 C 
ATOM      8  C   UNL     1      36.145 -21.102 -19.759  0.00  0.00    +0.150 C 
ENDROOT
BRANCH   2   9
ATOM      9  C   UNL     1      36.965 -21.792 -17.500  0.00  0.00    +0.034 C 
BRANCH   9  10
ATOM     10  C   UNL     1      36.559 -22.411 -16.192  0.00  0.00    -0.022 C 
ATOM     11  C   UNL     1      35.216 -22.431 -15.818  0.00  0.00    -0.004 C 
ATOM     12  C   UNL     1      37.525 -22.963 -15.352  0.00  0.00    -0.004 C 
ATOM     13  C   UNL     1      34.838 -23.004 -14.604  0.00  0.00    +0.002 C 
ATOM     14  C   UNL     1      37.148 -23.537 -14.137  0.00  0.00    +0.002 C 
ATOM     15  C   UNL     1      35.805 -23.557 -13.764  0.00  0.00    +0.031 C 
BRANCH  15  18
ATOM     16  N   UNL     1      35.985 -25.342 -12.046  0.00  0.00    -0.343 N 
ATOM     17  N   UNL     1      34.487 -23.573 -11.753  0.00  0.00    -0.285 NA
ATOM     18  C   UNL     1      35.411 -24.155 -12.497  0.00  0.00    +0.117 C 
ATOM     19  H   UNL     1      35.705 -25.729 -11.186  0.00  0.00    +0.144 HD
ATOM     20  H   UNL     1      36.674 -25.792 -12.588  0.00  0.00    +0.144 HD
ATOM     21  H   UNL     1      34.219 -23.975 -10.896  0.00  0.00    +0.188 HD
ENDBRANCH  15  18
ENDBRANCH   9  10
ENDBRANCH   2   9
BRANCH   3  22
ATOM     22  C   UNL     1      36.062 -18.780 -20.617  0.00  0.00    +0.034 C 
BRANCH  22  23
ATOM     23  C   UNL     1      35.474 -17.847 -21.640  0.00  0.00    -0.022 C 
ATOM     24  C   UNL     1      35.216 -16.518 -21.303  0.00  0.00    -0.004 C 
ATOM     25  C   UNL     1      35.185 -18.311 -22.924  0.00  0.00    -0.004 C 
ATOM     26  C   UNL     1      34.670 -15.653 -22.252  0.00  0.00    +0.002 C 
ATOM     27  C   UNL     1      34.640 -17.446 -23.871  0.00  0.00    +0.002 C 
ATOM     28  C   UNL     1      34.382 -16.117 -23.536  0.00  0.00    +0.031 C 
BRANCH  28  31
ATOM     29  N   UNL     1      33.813 -13.834 -24.330  0.00  0.00    -0.343 N 
ATOM     30  N   UNL     1      33.277 -15.701 -25.629  0.00  0.00    -0.285 NA
ATOM     31  C   UNL     1      33.812 -15.214 -24.524  0.00  0.00    +0.117 C 
ATOM     32  H   UNL     1      33.423 -13.241 -25.012  0.00  0.00    +0.144 HD
ATOM     33  H   UNL     1      34.204 -13.451 -23.512  0.00  0.00    +0.144 HD
ATOM     34  H   UNL     1      32.892 -15.091 -26.300  0.00  0.00    +0.188 HD
ENDBRANCH  28  31
ENDBRANCH  22  23
ENDBRANCH   3  22
TORSDOF 6
ENDMDL
MODEL 4
REMARK VINA RESULT:     -10.4      1.833      2.540
REMARK  Name = 17753851
REMARK  6 active torsions:
REMARK  status: ('A' for Active; 'I' for Inactive)
REMARK    1  A    between atoms: C_2  and  C_9
REMARK    2  A    between atoms: C_3  and  C_22
REMARK    3  A    between atoms: C_9  and  C_10
REMARK    4  A    between atoms: C_15  and  C_18
REMARK    5  A    between atoms: C_22  and  C_23
REMARK    6  A    between atoms: C_28  and  C_31
REMARK                            x       y       z     vdW  Elec       q    Type
REMARK                         _______ _______ _______ _____ _____    ______ ____
ROOT
ATOM      1  O   UNL     1      31.019  -8.889 -22.946  0.00  0.00    -0.296 OA
ATOM      2  C   UNL     1      31.795 -10.332 -21.177  0.00  0.00    +0.062 C 
ATOM      3  C   UNL     1      32.687  -7.895 -21.556  0.00  0.00    +0.062 C 
ATOM      4  C   UNL     1      30.885 -10.200 -19.953  0.00  0.00    +0.008 C 
ATOM      5  C   UNL     1      33.094  -7.891 -20.080  0.00  0.00    +0.008 C 
ATOM      6  C   UNL     1      31.510  -9.426 -18.792  0.00  0.00    +0.000 C 
ATOM      7  C   UNL     1      31.916  -7.988 -19.110  0.00  0.00    +0.000 C 
ATOM      8  C   UNL     1      31.760  -9.031 -21.970  0.00  0.00    +0.150 C 
ENDROOT
BRANCH   2   9
ATOM      9  C   UNL     1      31.335 -11.493 -22.061  0.00  0.00    +0.034 C 
BRANCH   9  10
ATOM     10  C   UNL     1      32.299 -12.645 -22.003  0.00  0.00    -0.022 C 
ATOM     11  C   UNL     1      32.862 -13.143 -23.177  0.00  0.00    -0.004 C 
ATOM     12  C   UNL     1      32.630 -13.216 -20.773  0.00  0.00    -0.004 C 
ATOM     13  C   UNL     1      33.756 -14.212 -23.123  0.00  0.00    +0.002 C 
ATOM     14  C   UNL     1      33.524 -14.285 -20.719  0.00  0.00    +0.002 C 
ATOM     15  C   UNL     1      34.087 -14.783 -21.894  0.00  0.00    +0.031 C 
BRANCH  15  18
ATOM     16  N   UNL     1      35.158 -16.670 -20.685  0.00  0.00    -0.343 N 
ATOM     17  N   UNL     1      35.760 -16.191 -22.892  0.00  0.00    -0.285 NA
ATOM     18  C   UNL     1      35.019 -15.898 -21.837  0.00  0.00    +0.117 C 
ATOM     19  H   UNL     1      35.794 -17.420 -20.669  0.00  0.00    +0.144 HD
ATOM     20  H   UNL     1      34.617 -16.466 -19.888  0.00  0.00    +0.144 HD
ATOM     21  H   UNL     1      36.391 -16.945 -22.856  0.00  0.00    +0.188 HD
ENDBRANCH  15  18
ENDBRANCH   9  10
ENDBRANCH   2   9
BRANCH   3  22
ATOM     22  C   UNL     1      33.920  -7.920 -22.455  0.00  0.00    +0.034 C 
BRANCH  22  23
ATOM     23  C   UNL     1      33.902  -6.793 -23.451  0.00  0.00    -0.022 C 
ATOM     24  C   UNL     1      32.834  -5.895 -23.467  0.00  0.00    -0.004 C 
ATOM     25  C   UNL     1      34.952  -6.646 -24.358  0.00  0.00    -0.004 C 
ATOM     26  C   UNL     1      32.817  -4.850 -24.392  0.00  0.00    +0.002 C 
ATOM     27  C   UNL     1      34.934  -5.601 -25.281  0.00  0.00    +0.002 C 
ATOM     28  C   UNL     1      33.867  -4.703 -25.299  0.00  0.00    +0.031 C 
BRANCH  28  31
ATOM     29  N   UNL     1      32.660  -3.189 -26.853  0.00  0.00    -0.343 N 
ATOM     30  N   UNL     1      34.975  -3.009 -26.593  0.00  0.00    -0.285 NA
ATOM     31  C   UNL     1      33.849  -3.614 -26.262  0.00  0.00    +0.117 C 
ATOM     32  H   UNL     1      32.670  -2.449 -27.502  0.00  0.00    +0.144 HD
ATOM     33  H   UNL     1      31.810  -3.628 -26.622  0.00  0.00    +0.144 HD
ATOM     34  H   UNL     1      34.965  -2.270 -27.245  0.00  0.00    +0.188 HD
ENDBRANCH  28  31
ENDBRANCH  22  23
ENDBRANCH   3  22
TORSDOF 6
ENDMDL
MODEL 5
REMARK VINA RESULT:     -10.4      1.517      2.258
REMARK  Name = 17753851
REMARK  6 active torsions:
REMARK  status: ('A' for Active; 'I' for Inactive)
REMARK    1  A    between atoms: C_2  and  C_9
REMARK    2  A    between atoms: C_3  and  C_22
REMARK    3  A    between atoms: C_9  and  C_10
REMARK    4  A    between atoms: C_15  and  C_18
REMARK    5  A    between atoms: C_22  and  C_23
REMARK    6  A    between atoms: C_28  and  C_31
REMARK                            x       y       z     vdW  Elec       q    Type
REMARK                         _______ _______ _______ _____ _____    ______ ____
ROOT
ATOM      1  O   UNL     1      32.534 -10.918 -24.361  0.00  0.00    -0.296 OA
ATOM      2  C   UNL     1      33.265 -12.148 -22.420  0.00  0.00    +0.062 C 
ATOM      3  C   UNL     1      32.202  -9.754 -22.303  0.00  0.00    +0.062 C 
ATOM      4  C   UNL     1      32.146 -13.068 -21.927  0.00  0.00    +0.008 C 
ATOM      5  C   UNL     1      31.819 -10.072 -20.855  0.00  0.00    +0.008 C 
ATOM      6  C   UNL     1      31.471 -12.594 -20.640  0.00  0.00    +0.000 C 
ATOM      7  C   UNL     1      30.815 -11.217 -20.716  0.00  0.00    +0.000 C 
ATOM      8  C   UNL     1      32.652 -10.949 -23.133  0.00  0.00    +0.150 C 
ENDROOT
BRANCH   2   9
ATOM      9  C   UNL     1      34.194 -12.902 -23.375  0.00  0.00    +0.034 C 
BRANCH   9  10
ATOM     10  C   UNL     1      34.521 -14.274 -22.857  0.00  0.00    -0.022 C 
ATOM     11  C   UNL     1      34.682 -15.336 -23.746  0.00  0.00    -0.004 C 
ATOM     12  C   UNL     1      34.663 -14.485 -21.485  0.00  0.00    -0.004 C 
ATOM     13  C   UNL     1      34.984 -16.609 -23.265  0.00  0.00    +0.002 C 
ATOM     14  C   UNL     1      34.966 -15.759 -21.003  0.00  0.00    +0.002 C 
ATOM     15  C   UNL     1      35.126 -16.821 -21.894  0.00  0.00    +0.031 C 
BRANCH  15  18
ATOM     16  N   UNL     1      34.786 -19.281 -21.872  0.00  0.00    -0.343 N 
ATOM     17  N   UNL     1      36.365 -18.298 -20.458  0.00  0.00    -0.285 NA
ATOM     18  C   UNL     1      35.442 -18.149 -21.392  0.00  0.00    +0.117 C 
ATOM     19  H   UNL     1      35.015 -20.170 -21.519  0.00  0.00    +0.144 HD
ATOM     20  H   UNL     1      34.092 -19.190 -22.566  0.00  0.00    +0.144 HD
ATOM     21  H   UNL     1      36.581 -19.196 -20.118  0.00  0.00    +0.188 HD
ENDBRANCH  15  18
ENDBRANCH   9  10
ENDBRANCH   2   9
BRANCH   3  22
ATOM     22  C   UNL     1      33.295  -8.690 -22.350  0.00  0.00    +0.034 C 
BRANCH  22  23
ATOM     23  C   UNL     1      32.725  -7.304 -22.222  0.00  0.00    -0.022 C 
ATOM     24  C   UNL     1      32.070  -6.717 -23.305  0.00  0.00    -0.004 C 
ATOM     25  C   UNL     1      32.853  -6.604 -21.021  0.00  0.00    -0.004 C 
ATOM     26  C   UNL     1      31.542  -5.431 -23.186  0.00  0.00    +0.002 C 
ATOM     27  C   UNL     1      32.325  -5.319 -20.903  0.00  0.00    +0.002 C 
ATOM     28  C   UNL     1      31.669  -4.732 -21.986  0.00  0.00    +0.031 C 
BRANCH  28  31
ATOM     29  N   UNL     1      29.766  -3.185 -21.599  0.00  0.00    -0.343 N 
ATOM     30  N   UNL     1      31.907  -2.341 -22.007  0.00  0.00    -0.285 NA
ATOM     31  C   UNL     1      31.119  -3.392 -21.863  0.00  0.00    +0.117 C 
ATOM     32  H   UNL     1      29.415  -2.269 -21.520  0.00  0.00    +0.144 HD
ATOM     33  H   UNL     1      29.162  -3.954 -21.492  0.00  0.00    +0.144 HD
ATOM     34  H   UNL     1      31.537  -1.432 -21.924  0.00  0.00    +0.188 HD
ENDBRANCH  28  31
ENDBRANCH  22  23
ENDBRANCH   3  22
TORSDOF 6
ENDMDL
MODEL 6
REMARK VINA RESULT:     -10.3      1.586     10.032
REMARK  Name = 17753851
REMARK  6 active torsions:
REMARK  status: ('A' for Active; 'I' for Inactive)
REMARK    1  A    between atoms: C_2  and  C_9
REMARK    2  A    between atoms: C_3  and  C_22
REMARK    3  A    between atoms: C_9  and  C_10
REMARK    4  A    between atoms: C_15  and  C_18
REMARK    5  A    between atoms: C_22  and  C_23
REMARK    6  A    between atoms: C_28  and  C_31
REMARK                            x       y       z     vdW  Elec       q    Type
REMARK                         _______ _______ _______ _____ _____    ______ ____
ROOT
ATOM      1  O   UNL     1      34.484 -10.312 -23.352  0.00  0.00    -0.296 OA
ATOM      2  C   UNL     1      32.095  -9.989 -23.421  0.00  0.00    +0.062 C 
ATOM      3  C   UNL     1      33.232 -12.272 -22.812  0.00  0.00    +0.062 C 
ATOM      4  C   UNL     1      31.596  -9.460 -22.074  0.00  0.00    +0.008 C 
ATOM      5  C   UNL     1      31.938 -12.640 -22.081  0.00  0.00    +0.008 C 
ATOM      6  C   UNL     1      30.837 -10.493 -21.242  0.00  0.00    +0.000 C 
ATOM      7  C   UNL     1      31.630 -11.747 -20.878  0.00  0.00    +0.000 C 
ATOM      8  C   UNL     1      33.363 -10.806 -23.201  0.00  0.00    +0.150 C 
ENDROOT
BRANCH   2   9
ATOM      9  C   UNL     1      32.383  -8.829 -24.378  0.00  0.00    +0.034 C 
BRANCH   9  10
ATOM     10  C   UNL     1      32.048  -7.504 -23.753  0.00  0.00    -0.022 C 
ATOM     11  C   UNL     1      32.912  -6.935 -22.818  0.00  0.00    -0.004 C 
ATOM     12  C   UNL     1      30.872  -6.843 -24.107  0.00  0.00    -0.004 C 
ATOM     13  C   UNL     1      32.602  -5.706 -22.237  0.00  0.00    +0.002 C 
ATOM     14  C   UNL     1      30.560  -5.614 -23.526  0.00  0.00    +0.002 C 
ATOM     15  C   UNL     1      31.425  -5.046 -22.592  0.00  0.00    +0.031 C 
BRANCH  15  18
ATOM     16  N   UNL     1      29.830  -3.502 -21.478  0.00  0.00    -0.343 N 
ATOM     17  N   UNL     1      32.021  -2.817 -21.916  0.00  0.00    -0.285 NA
ATOM     18  C   UNL     1      31.101  -3.763 -21.986  0.00  0.00    +0.117 C 
ATOM     19  H   UNL     1      29.632  -2.628 -21.071  0.00  0.00    +0.144 HD
ATOM     20  H   UNL     1      29.130  -4.194 -21.524  0.00  0.00    +0.144 HD
ATOM     21  H   UNL     1      31.803  -1.949 -21.506  0.00  0.00    +0.188 HD
ENDBRANCH  15  18
ENDBRANCH   9  10
ENDBRANCH   2   9
BRANCH   3  22
ATOM     22  C   UNL     1      33.404 -13.126 -24.065  0.00  0.00    +0.034 C 
BRANCH  22  23
ATOM     23  C   UNL     1      33.970 -14.481 -23.739  0.00  0.00    -0.022 C 
ATOM     24  C   UNL     1      33.886 -15.513 -24.674  0.00  0.00    -0.004 C 
ATOM     25  C   UNL     1      34.577 -14.705 -22.504  0.00  0.00    -0.004 C 
ATOM     26  C   UNL     1      34.410 -16.771 -24.371  0.00  0.00    +0.002 C 
ATOM     27  C   UNL     1      35.101 -15.962 -22.202  0.00  0.00    +0.002 C 
ATOM     28  C   UNL     1      35.017 -16.995 -23.136  0.00  0.00    +0.031 C 
BRANCH  28  31
ATOM     29  N   UNL     1      36.755 -18.444 -22.113  0.00  0.00    -0.343 N 
ATOM     30  N   UNL     1      34.927 -19.395 -23.214  0.00  0.00    -0.285 NA
ATOM     31  C   UNL     1      35.563 -18.306 -22.822  0.00  0.00    +0.117 C 
ATOM     32  H   UNL     1      37.106 -19.341 -21.911  0.00  0.00    +0.144 HD
ATOM     33  H   UNL     1      37.247 -17.645 -21.814  0.00  0.00    +0.144 HD
ATOM     34  H   UNL     1      35.294 -20.284 -23.002  0.00  0.00    +0.188 HD
ENDBRANCH  28  31
ENDBRANCH  22  23
ENDBRANCH   3  22
TORSDOF 6
ENDMDL
MODEL 7
REMARK VINA RESULT:     -10.3      1.210      2.098
REMARK  Name = 17753851
REMARK  6 active torsions:
REMARK  status: ('A' for Active; 'I' for Inactive)
REMARK    1  A    between atoms: C_2  and  C_9
REMARK    2  A    between atoms: C_3  and  C_22
REMARK    3  A    between atoms: C_9  and  C_10
REMARK    4  A    between atoms: C_15  and  C_18
REMARK    5  A    between atoms: C_22  and  C_23
REMARK    6  A    between atoms: C_28  and  C_31
REMARK                            x       y       z     vdW  Elec       q    Type
REMARK                         _______ _______ _______ _____ _____    ______ ____
ROOT
ATOM      1  O   UNL     1      32.006  -9.351 -23.960  0.00  0.00    -0.296 OA
ATOM      2  C   UNL     1      32.834 -11.194 -22.645  0.00  0.00    +0.062 C 
ATOM      3  C   UNL     1      32.225  -8.852 -21.636  0.00  0.00    +0.062 C 
ATOM      4  C   UNL     1      31.674 -12.092 -22.206  0.00  0.00    +0.008 C 
ATOM      5  C   UNL     1      32.043  -9.558 -20.290  0.00  0.00    +0.008 C 
ATOM      6  C   UNL     1      31.316 -11.968 -20.726  0.00  0.00    +0.000 C 
ATOM      7  C   UNL     1      30.897 -10.571 -20.271  0.00  0.00    +0.000 C 
ATOM      8  C   UNL     1      32.321  -9.773 -22.844  0.00  0.00    +0.150 C 
ENDROOT
BRANCH   2   9
ATOM      9  C   UNL     1      33.449 -11.714 -23.947  0.00  0.00    +0.034 C 
BRANCH   9  10
ATOM     10  C   UNL     1      33.803 -13.171 -23.846  0.00  0.00    -0.022 C 
ATOM     11  C   UNL     1      34.498 -13.644 -22.734  0.00  0.00    -0.004 C 
ATOM     12  C   UNL     1      33.436 -14.050 -24.866  0.00  0.00    -0.004 C 
ATOM     13  C   UNL     1      34.827 -14.995 -22.640  0.00  0.00    +0.002 C 
ATOM     14  C   UNL     1      33.765 -15.402 -24.772  0.00  0.00    +0.002 C 
ATOM     15  C   UNL     1      34.461 -15.874 -23.659  0.00  0.00    +0.031 C 
BRANCH  15  18
ATOM     16  N   UNL     1      34.145 -18.246 -24.326  0.00  0.00    -0.343 N 
ATOM     17  N   UNL     1      35.755 -17.675 -22.731  0.00  0.00    -0.285 NA
ATOM     18  C   UNL     1      34.804 -17.285 -23.562  0.00  0.00    +0.117 C 
ATOM     19  H   UNL     1      34.394 -19.195 -24.244  0.00  0.00    +0.144 HD
ATOM     20  H   UNL     1      33.431 -17.976 -24.948  0.00  0.00    +0.144 HD
ATOM     21  H   UNL     1      35.989 -18.629 -22.663  0.00  0.00    +0.188 HD
ENDBRANCH  15  18
ENDBRANCH   9  10
ENDBRANCH   2   9
BRANCH   3  22
ATOM     22  C   UNL     1      33.459  -7.953 -21.610  0.00  0.00    +0.034 C 
BRANCH  22  23
ATOM     23  C   UNL     1      33.398  -6.897 -22.679  0.00  0.00    -0.022 C 
ATOM     24  C   UNL     1      34.451  -6.760 -23.584  0.00  0.00    -0.004 C 
ATOM     25  C   UNL     1      32.290  -6.054 -22.765  0.00  0.00    -0.004 C 
ATOM     26  C   UNL     1      34.395  -5.779 -24.575  0.00  0.00    +0.002 C 
ATOM     27  C   UNL     1      32.234  -5.075 -23.756  0.00  0.00    +0.002 C 
ATOM     28  C   UNL     1      33.287  -4.937 -24.661  0.00  0.00    +0.031 C 
BRANCH  28  31
ATOM     29  N   UNL     1      32.875  -2.601 -25.396  0.00  0.00    -0.343 N 
ATOM     30  N   UNL     1      33.512  -4.229 -26.946  0.00  0.00    -0.285 NA
ATOM     31  C   UNL     1      33.229  -3.915 -25.695  0.00  0.00    +0.117 C 
ATOM     32  H   UNL     1      32.843  -1.925 -26.111  0.00  0.00    +0.144 HD
ATOM     33  H   UNL     1      32.658  -2.347 -24.470  0.00  0.00    +0.144 HD
ATOM     34  H   UNL     1      33.475  -3.539 -27.648  0.00  0.00    +0.188 HD
ENDBRANCH  28  31
ENDBRANCH  22  23
ENDBRANCH   3  22
TORSDOF 6
ENDMDL
MODEL 8
REMARK VINA RESULT:     -10.1     11.222     15.397
REMARK  Name = 17753851
REMARK  6 active torsions:
REMARK  status: ('A' for Active; 'I' for Inactive)
REMARK    1  A    between atoms: C_2  and  C_9
REMARK    2  A    between atoms: C_3  and  C_22
REMARK    3  A    between atoms: C_9  and  C_10
REMARK    4  A    between atoms: C_15  and  C_18
REMARK    5  A    between atoms: C_22  and  C_23
REMARK    6  A    between atoms: C_28  and  C_31
REMARK                            x       y       z     vdW  Elec       q    Type
REMARK                         _______ _______ _______ _____ _____    ______ ____
ROOT
ATOM      1  O   UNL     1      32.837 -22.130 -14.236  0.00  0.00    -0.296 OA
ATOM      2  C   UNL     1      33.355 -24.456 -13.867  0.00  0.00    +0.062 C 
ATOM      3  C   UNL     1      34.332 -23.051 -15.854  0.00  0.00    +0.062 C 
ATOM      4  C   UNL     1      34.534 -24.586 -12.899  0.00  0.00    +0.008 C 
ATOM      5  C   UNL     1      35.483 -24.059 -15.908  0.00  0.00    +0.008 C 
ATOM      6  C   UNL     1      35.843 -25.011 -13.564  0.00  0.00    +0.000 C 
ATOM      7  C   UNL     1      36.357 -24.070 -14.653  0.00  0.00    +0.000 C 
ATOM      8  C   UNL     1      33.459 -23.129 -14.609  0.00  0.00    +0.150 C 
ENDROOT
BRANCH   2   9
ATOM      9  C   UNL     1      32.029 -24.525 -13.105  0.00  0.00    +0.034 C 
BRANCH   9  10
ATOM     10  C   UNL     1      30.875 -24.105 -13.972  0.00  0.00    -0.022 C 
ATOM     11  C   UNL     1      30.272 -22.863 -13.777  0.00  0.00    -0.004 C 
ATOM     12  C   UNL     1      30.406 -24.959 -14.970  0.00  0.00    -0.004 C 
ATOM     13  C   UNL     1      29.201 -22.474 -14.580  0.00  0.00    +0.002 C 
ATOM     14  C   UNL     1      29.335 -24.570 -15.774  0.00  0.00    +0.002 C 
ATOM     15  C   UNL     1      28.732 -23.328 -15.579  0.00  0.00    +0.031 C 
BRANCH  15  18
ATOM     16  N   UNL     1      26.659 -22.014 -15.962  0.00  0.00    -0.343 N 
ATOM     17  N   UNL     1      27.489 -23.421 -17.634  0.00  0.00    -0.285 NA
ATOM     18  C   UNL     1      27.615 -22.922 -16.417  0.00  0.00    +0.117 C 
ATOM     19  H   UNL     1      25.912 -21.752 -16.546  0.00  0.00    +0.144 HD
ATOM     20  H   UNL     1      26.734 -21.633 -15.057  0.00  0.00    +0.144 HD
ATOM     21  H   UNL     1      26.733 -23.147 -18.202  0.00  0.00    +0.188 HD
ENDBRANCH  15  18
ENDBRANCH   9  10
ENDBRANCH   2   9
BRANCH   3  22
ATOM     22  C   UNL     1      33.438 -23.188 -17.084  0.00  0.00    +0.034 C 
BRANCH  22  23
ATOM     23  C   UNL     1      33.816 -22.202 -18.156  0.00  0.00    -0.022 C 
ATOM     24  C   UNL     1      35.159 -21.999 -18.472  0.00  0.00    -0.004 C 
ATOM     25  C   UNL     1      32.824 -21.491 -18.831  0.00  0.00    -0.004 C 
ATOM     26  C   UNL     1      35.510 -21.083 -19.466  0.00  0.00    +0.002 C 
ATOM     27  C   UNL     1      33.175 -20.577 -19.824  0.00  0.00    +0.002 C 
ATOM     28  C   UNL     1      34.518 -20.373 -20.142  0.00  0.00    +0.031 C 
BRANCH  28  31
ATOM     29  N   UNL     1      35.591 -18.257 -20.874  0.00  0.00    -0.343 N 
ATOM     30  N   UNL     1      34.543 -19.647 -22.432  0.00  0.00    -0.285 NA
ATOM     31  C   UNL     1      34.884 -19.419 -21.177  0.00  0.00    +0.117 C 
ATOM     32  H   UNL     1      35.829 -17.625 -21.590  0.00  0.00    +0.144 HD
ATOM     33  H   UNL     1      35.852 -18.066 -19.944  0.00  0.00    +0.144 HD
ATOM     34  H   UNL     1      34.790 -19.003 -23.135  0.00  0.00    +0.188 HD
ENDBRANCH  28  31
ENDBRANCH  22  23
ENDBRANCH   3  22
TORSDOF 6
ENDMDL
MODEL 9
REMARK VINA RESULT:      -9.9      7.997     12.468
REMARK  Name = 17753851
REMARK  6 active torsions:
REMARK  status: ('A' for Active; 'I' for Inactive)
REMARK    1  A    between atoms: C_2  and  C_9
REMARK    2  A    between atoms: C_3  and  C_22
REMARK    3  A    between atoms: C_9  and  C_10
REMARK    4  A    between atoms: C_15  and  C_18
REMARK    5  A    between atoms: C_22  and  C_23
REMARK    6  A    between atoms: C_28  and  C_31
REMARK                            x       y       z     vdW  Elec       q    Type
REMARK                         _______ _______ _______ _____ _____    ______ ____
ROOT
ATOM      1  O   UNL     1      33.315 -20.475 -19.424  0.00  0.00    -0.296 OA
ATOM      2  C   UNL     1      34.949 -22.174 -18.915  0.00  0.00    +0.062 C 
ATOM      3  C   UNL     1      35.493 -20.005 -20.284  0.00  0.00    +0.062 C 
ATOM      4  C   UNL     1      35.577 -21.907 -17.545  0.00  0.00    +0.008 C 
ATOM      5  C   UNL     1      36.954 -20.195 -19.870  0.00  0.00    +0.008 C 
ATOM      6  C   UNL     1      37.012 -21.384 -17.609  0.00  0.00    +0.000 C 
ATOM      7  C   UNL     1      37.194 -20.068 -18.364  0.00  0.00    +0.000 C 
ATOM      8  C   UNL     1      34.486 -20.854 -19.520  0.00  0.00    +0.150 C 
ENDROOT
BRANCH   2   9
ATOM      9  C   UNL     1      33.761 -23.130 -18.780  0.00  0.00    +0.034 C 
BRANCH   9  10
ATOM     10  C   UNL     1      33.289 -23.225 -17.357  0.00  0.00    -0.022 C 
ATOM     11  C   UNL     1      32.028 -22.745 -17.007  0.00  0.00    -0.004 C 
ATOM     12  C   UNL     1      34.113 -23.794 -16.385  0.00  0.00    -0.004 C 
ATOM     13  C   UNL     1      31.590 -22.832 -15.686  0.00  0.00    +0.002 C 
ATOM     14  C   UNL     1      33.675 -23.882 -15.064  0.00  0.00    +0.002 C 
ATOM     15  C   UNL     1      32.414 -23.401 -14.714  0.00  0.00    +0.031 C 
BRANCH  15  18
ATOM     16  N   UNL     1      30.675 -23.941 -13.026  0.00  0.00    -0.343 N 
ATOM     17  N   UNL     1      32.763 -23.139 -12.350  0.00  0.00    -0.285 NA
ATOM     18  C   UNL     1      31.957 -23.492 -13.336  0.00  0.00    +0.117 C 
ATOM     19  H   UNL     1      30.386 -23.996 -12.087  0.00  0.00    +0.144 HD
ATOM     20  H   UNL     1      30.058 -24.206 -13.747  0.00  0.00    +0.144 HD
ATOM     21  H   UNL     1      32.456 -23.201 -11.417  0.00  0.00    +0.188 HD
ENDBRANCH  15  18
ENDBRANCH   9  10
ENDBRANCH   2   9
BRANCH   3  22
ATOM     22  C   UNL     1      35.318 -20.267 -21.777  0.00  0.00    +0.034 C 
BRANCH  22  23
ATOM     23  C   UNL     1      34.974 -19.008 -22.525  0.00  0.00    -0.022 C 
ATOM     24  C   UNL     1      34.289 -19.084 -23.738  0.00  0.00    -0.004 C 
ATOM     25  C   UNL     1      35.341 -17.766 -22.007  0.00  0.00    -0.004 C 
ATOM     26  C   UNL     1      33.971 -17.916 -24.433  0.00  0.00    +0.002 C 
ATOM     27  C   UNL     1      35.022 -16.600 -22.701  0.00  0.00    +0.002 C 
ATOM     28  C   UNL     1      34.337 -16.674 -23.914  0.00  0.00    +0.031 C 
BRANCH  28  31
ATOM     29  N   UNL     1      34.216 -14.199 -24.077  0.00  0.00    -0.343 N 
ATOM     30  N   UNL     1      33.488 -15.534 -25.851  0.00  0.00    -0.285 NA
ATOM     31  C   UNL     1      34.005 -15.457 -24.638  0.00  0.00    +0.117 C 
ATOM     32  H   UNL     1      33.985 -13.389 -24.585  0.00  0.00    +0.144 HD
ATOM     33  H   UNL     1      34.598 -14.120 -23.173  0.00  0.00    +0.144 HD
ATOM     34  H   UNL     1      33.263 -14.712 -26.344  0.00  0.00    +0.188 HD
ENDBRANCH  28  31
ENDBRANCH  22  23
ENDBRANCH   3  22
TORSDOF 6
ENDMDL
