MODEL 1
REMARK VINA RESULT:     -10.6      0.000      0.000
REMARK  Name = 5330608
REMARK  5 active torsions:
REMARK  status: ('A' for Active; 'I' for Inactive)
REMARK    1  A    between atoms: C_6  and  C_11
REMARK    2  A    between atoms: C_11  and  C_14
REMARK    3  A    between atoms: N_20  and  C_22
REMARK    4  A    between atoms: C_23  and  S_28
REMARK    5  A    between atoms: S_28  and  N_31
REMARK                            x       y       z     vdW  Elec       q    Type
REMARK                         _______ _______ _______ _____ _____    ______ ____
ROOT
ATOM      1  N   UNL     1      34.297 -15.254 -23.092  0.00  0.00    -0.253 N 
ATOM      2  N   UNL     1      34.042 -13.301 -22.031  0.00  0.00    -0.374 NA
ATOM      3  C   UNL     1      34.347 -14.573 -21.877  0.00  0.00    +0.189 C 
ATOM      4  C   UNL     1      33.789 -13.149 -23.370  0.00  0.00    +0.183 C 
ATOM      5  C   UNL     1      33.939 -14.337 -24.047  0.00  0.00    +0.173 C 
ATOM      6  C   UNL     1      34.907 -17.315 -22.133  0.00  0.00    +0.054 C 
ATOM      7  C   UNL     1      34.573 -16.612 -23.228  0.00  0.00    +0.071 C 
ATOM      8  C   UNL     1      34.702 -15.332 -20.723  0.00  0.00    +0.048 C 
ATOM      9  C   UNL     1      34.971 -16.645 -20.843  0.00  0.00    +0.008 C 
ATOM     10  N   UNL     1      33.439 -11.967 -23.923  0.00  0.00    -0.290 N 
ATOM     11  H   UNL     1      33.293 -12.030 -24.894  0.00  0.00    +0.154 HD
ENDROOT
BRANCH  10  12
ATOM     12  C   UNL     1      33.231 -10.629 -23.407  0.00  0.00    +0.050 C 
ATOM     13  C   UNL     1      32.836  -8.089 -22.427  0.00  0.00    +0.122 C 
ATOM     14  C   UNL     1      34.243  -9.707 -23.541  0.00  0.00    +0.016 C 
ATOM     15  C   UNL     1      32.030 -10.336 -22.803  0.00  0.00    +0.016 C 
ATOM     16  C   UNL     1      34.042  -8.419 -23.044  0.00  0.00    +0.021 C 
ATOM     17  C   UNL     1      31.830  -9.048 -22.306  0.00  0.00    +0.021 C 
BRANCH  13  18
ATOM     18  S   UNL     1      32.585  -6.478 -21.806  0.00  0.00    +0.057 S 
ATOM     19  O   UNL     1      32.896  -6.480 -20.382  0.00  0.00    -0.153 OA
ATOM     20  O   UNL     1      33.252  -5.531 -22.689  0.00  0.00    -0.153 OA
BRANCH  18  21
ATOM     21  N   UNL     1      30.895  -6.313 -22.001  0.00  0.00    -0.203 NA
ATOM     22  H   UNL     1      30.620  -6.685 -22.909  0.00  0.00    +0.144 HD
ATOM     23  H   UNL     1      30.643  -5.326 -21.948  0.00  0.00    +0.144 HD
ENDBRANCH  18  21
ENDBRANCH  13  18
ENDBRANCH  10  12
BRANCH   6  25
ATOM     24  O   UNL     1      35.154 -19.289 -23.372  0.00  0.00    -0.286 OA
ATOM     25  C   UNL     1      35.197 -18.742 -22.270  0.00  0.00    +0.198 C 
BRANCH  25  28
ATOM     26 CL   UNL     1      38.140 -18.689 -21.497  0.00  0.00    -0.082 Cl
ATOM     27 CL   UNL     1      32.933 -20.210 -20.867  0.00  0.00    -0.082 Cl
ATOM     28  C   UNL     1      35.573 -19.528 -21.063  0.00  0.00    +0.060 C 
ATOM     29  C   UNL     1      36.895 -19.548 -20.660  0.00  0.00    +0.062 C 
ATOM     30  C   UNL     1      34.591 -20.220 -20.381  0.00  0.00    +0.062 C 
ATOM     31  C   UNL     1      37.247 -20.287 -19.530  0.00  0.00    +0.012 C 
ATOM     32  C   UNL     1      34.943 -20.959 -19.251  0.00  0.00    +0.012 C 
ATOM     33  C   UNL     1      36.271 -20.992 -18.826  0.00  0.00    +0.002 C 
ENDBRANCH  25  28
ENDBRANCH   6  25
TORSDOF 5
ENDMDL
MODEL 2
REMARK VINA RESULT:     -10.5      0.676      2.055
REMARK  Name = 5330608
REMARK  5 active torsions:
REMARK  status: ('A' for Active; 'I' for Inactive)
REMARK    1  A    between atoms: C_6  and  C_11
REMARK    2  A    between atoms: C_11  and  C_14
REMARK    3  A    between atoms: N_20  and  C_22
REMARK    4  A    between atoms: C_23  and  S_28
REMARK    5  A    between atoms: S_28  and  N_31
REMARK                            x       y       z     vdW  Elec       q    Type
REMARK                         _______ _______ _______ _____ _____    ______ ____
ROOT
ATOM      1  N   UNL     1      34.283 -15.257 -23.084  0.00  0.00    -0.253 N 
ATOM      2  N   UNL     1      33.984 -13.319 -22.009  0.00  0.00    -0.374 NA
ATOM      3  C   UNL     1      34.310 -14.587 -21.863  0.00  0.00    +0.189 C 
ATOM      4  C   UNL     1      33.738 -13.160 -23.349  0.00  0.00    +0.183 C 
ATOM      5  C   UNL     1      33.916 -14.339 -24.034  0.00  0.00    +0.173 C 
ATOM      6  C   UNL     1      34.923 -17.316 -22.137  0.00  0.00    +0.054 C 
ATOM      7  C   UNL     1      34.585 -16.609 -23.229  0.00  0.00    +0.071 C 
ATOM      8  C   UNL     1      34.670 -15.348 -20.713  0.00  0.00    +0.048 C 
ATOM      9  C   UNL     1      34.965 -16.656 -20.841  0.00  0.00    +0.008 C 
ATOM     10  N   UNL     1      33.372 -11.980 -23.895  0.00  0.00    -0.290 N 
ATOM     11  H   UNL     1      33.235 -12.037 -24.867  0.00  0.00    +0.154 HD
ENDROOT
BRANCH  10  12
ATOM     12  C   UNL     1      33.135 -10.650 -23.369  0.00  0.00    +0.050 C 
ATOM     13  C   UNL     1      32.683  -8.128 -22.370  0.00  0.00    +0.122 C 
ATOM     14  C   UNL     1      31.924 -10.386 -22.772  0.00  0.00    +0.016 C 
ATOM     15  C   UNL     1      34.129  -9.708 -23.488  0.00  0.00    +0.016 C 
ATOM     16  C   UNL     1      31.695  -9.106 -22.266  0.00  0.00    +0.021 C 
ATOM     17  C   UNL     1      33.901  -8.429 -22.982  0.00  0.00    +0.021 C 
BRANCH  13  18
ATOM     18  S   UNL     1      32.397  -6.527 -21.736  0.00  0.00    +0.057 S 
ATOM     19  O   UNL     1      33.235  -5.586 -22.469  0.00  0.00    -0.153 OA
ATOM     20  O   UNL     1      30.959  -6.307 -21.661  0.00  0.00    -0.153 OA
BRANCH  18  21
ATOM     21  N   UNL     1      33.010  -6.690 -20.150  0.00  0.00    -0.203 NA
ATOM     22  H   UNL     1      34.024  -6.584 -20.164  0.00  0.00    +0.144 HD
ATOM     23  H   UNL     1      32.770  -7.613 -19.787  0.00  0.00    +0.144 HD
ENDBRANCH  18  21
ENDBRANCH  13  18
ENDBRANCH  10  12
BRANCH   6  25
ATOM     24  O   UNL     1      35.231 -19.271 -23.392  0.00  0.00    -0.286 OA
ATOM     25  C   UNL     1      35.241 -18.735 -22.284  0.00  0.00    +0.198 C 
BRANCH  25  28
ATOM     26 CL   UNL     1      32.960 -20.206 -20.909  0.00  0.00    -0.082 Cl
ATOM     27 CL   UNL     1      38.176 -18.697 -21.486  0.00  0.00    -0.082 Cl
ATOM     28  C   UNL     1      35.604 -19.529 -21.078  0.00  0.00    +0.060 C 
ATOM     29  C   UNL     1      34.613 -20.219 -20.406  0.00  0.00    +0.062 C 
ATOM     30  C   UNL     1      36.921 -19.552 -20.662  0.00  0.00    +0.062 C 
ATOM     31  C   UNL     1      34.954 -20.962 -19.275  0.00  0.00    +0.012 C 
ATOM     32  C   UNL     1      37.261 -20.295 -19.531  0.00  0.00    +0.012 C 
ATOM     33  C   UNL     1      36.278 -20.999 -18.837  0.00  0.00    +0.002 C 
ENDBRANCH  25  28
ENDBRANCH   6  25
TORSDOF 5
ENDMDL
MODEL 3
REMARK VINA RESULT:      -9.6      4.713     10.544
REMARK  Name = 5330608
REMARK  5 active torsions:
REMARK  status: ('A' for Active; 'I' for Inactive)
REMARK    1  A    between atoms: C_6  and  C_11
REMARK    2  A    between atoms: C_11  and  C_14
REMARK    3  A    between atoms: N_20  and  C_22
REMARK    4  A    between atoms: C_23  and  S_28
REMARK    5  A    between atoms: S_28  and  N_31
REMARK                            x       y       z     vdW  Elec       q    Type
REMARK                         _______ _______ _______ _____ _____    ______ ____
ROOT
ATOM      1  N   UNL     1      34.191 -13.733 -23.226  0.00  0.00    -0.253 N 
ATOM      2  N   UNL     1      34.080 -15.345 -21.679  0.00  0.00    -0.374 NA
ATOM      3  C   UNL     1      33.682 -14.128 -21.991  0.00  0.00    +0.189 C 
ATOM      4  C   UNL     1      34.862 -15.750 -22.730  0.00  0.00    +0.183 C 
ATOM      5  C   UNL     1      34.947 -14.776 -23.697  0.00  0.00    +0.173 C 
ATOM      6  C   UNL     1      33.152 -11.622 -23.147  0.00  0.00    +0.054 C 
ATOM      7  C   UNL     1      33.933 -12.494 -23.807  0.00  0.00    +0.071 C 
ATOM      8  C   UNL     1      32.855 -13.194 -21.301  0.00  0.00    +0.048 C 
ATOM      9  C   UNL     1      32.599 -11.992 -21.853  0.00  0.00    +0.008 C 
ATOM     10  N   UNL     1      35.459 -16.961 -22.779  0.00  0.00    -0.290 N 
ATOM     11  H   UNL     1      35.984 -17.094 -23.599  0.00  0.00    +0.154 HD
ENDROOT
BRANCH  10  12
ATOM     12  C   UNL     1      35.499 -18.107 -21.892  0.00  0.00    +0.050 C 
ATOM     13  C   UNL     1      35.578 -20.282 -20.209  0.00  0.00    +0.122 C 
ATOM     14  C   UNL     1      36.659 -18.360 -21.197  0.00  0.00    +0.016 C 
ATOM     15  C   UNL     1      34.377 -18.895 -21.782  0.00  0.00    +0.016 C 
ATOM     16  C   UNL     1      36.698 -19.463 -20.343  0.00  0.00    +0.021 C 
ATOM     17  C   UNL     1      34.416 -19.997 -20.929  0.00  0.00    +0.021 C 
BRANCH  13  18
ATOM     18  S   UNL     1      35.626 -21.661 -19.141  0.00  0.00    +0.057 S 
ATOM     19  O   UNL     1      35.822 -22.859 -19.946  0.00  0.00    -0.153 OA
ATOM     20  O   UNL     1      36.541 -21.367 -18.046  0.00  0.00    -0.153 OA
BRANCH  18  21
ATOM     21  N   UNL     1      34.028 -21.660 -18.534  0.00  0.00    -0.203 NA
ATOM     22  H   UNL     1      33.484 -20.942 -19.011  0.00  0.00    +0.144 HD
ATOM     23  H   UNL     1      34.046 -21.464 -17.533  0.00  0.00    +0.144 HD
ENDBRANCH  18  21
ENDBRANCH  13  18
ENDBRANCH  10  12
BRANCH   6  25
ATOM     24  O   UNL     1      32.557 -10.231 -24.936  0.00  0.00    -0.286 OA
ATOM     25  C   UNL     1      32.878 -10.319 -23.751  0.00  0.00    +0.198 C 
BRANCH  25  28
ATOM     26 CL   UNL     1      30.325  -9.481 -22.324  0.00  0.00    -0.082 Cl
ATOM     27 CL   UNL     1      35.592  -8.948 -23.664  0.00  0.00    -0.082 Cl
ATOM     28  C   UNL     1      32.968  -9.093 -22.912  0.00  0.00    +0.060 C 
ATOM     29  C   UNL     1      31.843  -8.657 -22.238  0.00  0.00    +0.062 C 
ATOM     30  C   UNL     1      34.173  -8.422 -22.831  0.00  0.00    +0.062 C 
ATOM     31  C   UNL     1      31.926  -7.507 -21.453  0.00  0.00    +0.012 C 
ATOM     32  C   UNL     1      34.256  -7.272 -22.046  0.00  0.00    +0.012 C 
ATOM     33  C   UNL     1      33.133  -6.815 -21.357  0.00  0.00    +0.002 C 
ENDBRANCH  25  28
ENDBRANCH   6  25
TORSDOF 5
ENDMDL
MODEL 4
REMARK VINA RESULT:      -9.6      4.717     10.409
REMARK  Name = 5330608
REMARK  5 active torsions:
REMARK  status: ('A' for Active; 'I' for Inactive)
REMARK    1  A    between atoms: C_6  and  C_11
REMARK    2  A    between atoms: C_11  and  C_14
REMARK    3  A    between atoms: N_20  and  C_22
REMARK    4  A    between atoms: C_23  and  S_28
REMARK    5  A    between atoms: S_28  and  N_31
REMARK                            x       y       z     vdW  Elec       q    Type
REMARK                         _______ _______ _______ _____ _____    ______ ____
ROOT
ATOM      1  N   UNL     1      34.183 -13.702 -23.327  0.00  0.00    -0.253 N 
ATOM      2  N   UNL     1      34.109 -15.286 -21.749  0.00  0.00    -0.374 NA
ATOM      3  C   UNL     1      33.716 -14.069 -22.068  0.00  0.00    +0.189 C 
ATOM      4  C   UNL     1      34.846 -15.720 -22.821  0.00  0.00    +0.183 C 
ATOM      5  C   UNL     1      34.908 -14.764 -23.807  0.00  0.00    +0.173 C 
ATOM      6  C   UNL     1      33.176 -11.576 -23.247  0.00  0.00    +0.054 C 
ATOM      7  C   UNL     1      33.921 -12.470 -23.919  0.00  0.00    +0.071 C 
ATOM      8  C   UNL     1      32.927 -13.112 -21.364  0.00  0.00    +0.048 C 
ATOM      9  C   UNL     1      32.666 -11.917 -21.927  0.00  0.00    +0.008 C 
ATOM     10  N   UNL     1      35.425 -16.939 -22.870  0.00  0.00    -0.290 N 
ATOM     11  H   UNL     1      35.917 -17.093 -23.707  0.00  0.00    +0.154 HD
ENDROOT
BRANCH  10  12
ATOM     12  C   UNL     1      35.483 -18.071 -21.965  0.00  0.00    +0.050 C 
ATOM     13  C   UNL     1      35.594 -20.217 -20.249  0.00  0.00    +0.122 C 
ATOM     14  C   UNL     1      36.649 -18.300 -21.274  0.00  0.00    +0.016 C 
ATOM     15  C   UNL     1      34.370 -18.868 -21.836  0.00  0.00    +0.016 C 
ATOM     16  C   UNL     1      36.705 -19.389 -20.403  0.00  0.00    +0.021 C 
ATOM     17  C   UNL     1      34.426 -19.956 -20.965  0.00  0.00    +0.021 C 
BRANCH  13  18
ATOM     18  S   UNL     1      35.664 -21.578 -19.159  0.00  0.00    +0.057 S 
ATOM     19  O   UNL     1      35.943 -22.777 -19.938  0.00  0.00    -0.153 OA
ATOM     20  O   UNL     1      36.525 -21.230 -18.036  0.00  0.00    -0.153 OA
BRANCH  18  21
ATOM     21  N   UNL     1      34.047 -21.641 -18.610  0.00  0.00    -0.203 NA
ATOM     22  H   UNL     1      33.926 -22.446 -17.997  0.00  0.00    +0.144 HD
ATOM     23  H   UNL     1      33.421 -21.727 -19.411  0.00  0.00    +0.144 HD
ENDBRANCH  18  21
ENDBRANCH  13  18
ENDBRANCH  10  12
BRANCH   6  25
ATOM     24  O   UNL     1      32.476 -10.211 -25.019  0.00  0.00    -0.286 OA
ATOM     25  C   UNL     1      32.897 -10.280 -23.864  0.00  0.00    +0.198 C 
BRANCH  25  28
ATOM     26 CL   UNL     1      35.707  -9.113 -23.906  0.00  0.00    -0.082 Cl
ATOM     27 CL   UNL     1      30.460  -9.205 -22.395  0.00  0.00    -0.082 Cl
ATOM     28  C   UNL     1      33.104  -9.037 -23.072  0.00  0.00    +0.060 C 
ATOM     29  C   UNL     1      34.358  -8.457 -23.047  0.00  0.00    +0.062 C 
ATOM     30  C   UNL     1      32.036  -8.498 -22.380  0.00  0.00    +0.062 C 
ATOM     31  C   UNL     1      34.551  -7.293 -22.303  0.00  0.00    +0.012 C 
ATOM     32  C   UNL     1      32.230  -7.333 -21.636  0.00  0.00    +0.012 C 
ATOM     33  C   UNL     1      33.488  -6.731 -21.598  0.00  0.00    +0.002 C 
ENDBRANCH  25  28
ENDBRANCH   6  25
TORSDOF 5
ENDMDL
MODEL 5
REMARK VINA RESULT:      -9.2      6.356      9.637
REMARK  Name = 5330608
REMARK  5 active torsions:
REMARK  status: ('A' for Active; 'I' for Inactive)
REMARK    1  A    between atoms: C_6  and  C_11
REMARK    2  A    between atoms: C_11  and  C_14
REMARK    3  A    between atoms: N_20  and  C_22
REMARK    4  A    between atoms: C_23  and  S_28
REMARK    5  A    between atoms: S_28  and  N_31
REMARK                            x       y       z     vdW  Elec       q    Type
REMARK                         _______ _______ _______ _____ _____    ______ ____
ROOT
ATOM      1  N   UNL     1      35.814 -22.307 -17.151  0.00  0.00    -0.253 N 
ATOM      2  N   UNL     1      34.713 -21.327 -18.834  0.00  0.00    -0.374 NA
ATOM      3  C   UNL     1      34.601 -22.161 -17.820  0.00  0.00    +0.189 C 
ATOM      4  C   UNL     1      36.024 -20.922 -18.825  0.00  0.00    +0.183 C 
ATOM      5  C   UNL     1      36.724 -21.511 -17.799  0.00  0.00    +0.173 C 
ATOM      6  C   UNL     1      34.935 -23.823 -15.579  0.00  0.00    +0.054 C 
ATOM      7  C   UNL     1      35.988 -23.128 -16.040  0.00  0.00    +0.071 C 
ATOM      8  C   UNL     1      33.491 -22.904 -17.321  0.00  0.00    +0.048 C 
ATOM      9  C   UNL     1      33.648 -23.701 -16.247  0.00  0.00    +0.008 C 
ATOM     10  N   UNL     1      36.530 -20.052 -19.725  0.00  0.00    -0.290 N 
ATOM     11  H   UNL     1      37.486 -19.867 -19.580  0.00  0.00    +0.154 HD
ENDROOT
BRANCH  10  12
ATOM     12  C   UNL     1      35.982 -19.330 -20.857  0.00  0.00    +0.050 C 
ATOM     13  C   UNL     1      34.943 -17.961 -23.004  0.00  0.00    +0.122 C 
ATOM     14  C   UNL     1      36.156 -17.967 -20.915  0.00  0.00    +0.016 C 
ATOM     15  C   UNL     1      35.311 -20.038 -21.826  0.00  0.00    +0.016 C 
ATOM     16  C   UNL     1      35.630 -17.273 -22.005  0.00  0.00    +0.021 C 
ATOM     17  C   UNL     1      34.784 -19.344 -22.915  0.00  0.00    +0.021 C 
BRANCH  13  18
ATOM     18  S   UNL     1      34.284 -17.093 -24.368  0.00  0.00    +0.057 S 
ATOM     19  O   UNL     1      35.379 -16.746 -25.264  0.00  0.00    -0.153 OA
ATOM     20  O   UNL     1      33.139 -17.834 -24.879  0.00  0.00    -0.153 OA
BRANCH  18  21
ATOM     21  N   UNL     1      33.721 -15.670 -23.608  0.00  0.00    -0.203 NA
ATOM     22  H   UNL     1      34.517 -15.097 -23.326  0.00  0.00    +0.144 HD
ATOM     23  H   UNL     1      33.174 -15.919 -22.784  0.00  0.00    +0.144 HD
ENDBRANCH  18  21
ENDBRANCH  13  18
ENDBRANCH  10  12
BRANCH   6  25
ATOM     24  O   UNL     1      34.138 -25.134 -13.807  0.00  0.00    -0.286 OA
ATOM     25  C   UNL     1      35.113 -24.687 -14.413  0.00  0.00    +0.198 C 
BRANCH  25  28
ATOM     26 CL   UNL     1      36.386 -27.072 -15.808  0.00  0.00    -0.082 Cl
ATOM     27 CL   UNL     1      36.321 -22.948 -12.230  0.00  0.00    -0.082 Cl
ATOM     28  C   UNL     1      36.489 -25.046 -13.975  0.00  0.00    +0.060 C 
ATOM     29  C   UNL     1      37.124 -26.121 -14.568  0.00  0.00    +0.062 C 
ATOM     30  C   UNL     1      37.095 -24.296 -12.985  0.00  0.00    +0.062 C 
ATOM     31  C   UNL     1      38.413 -26.458 -14.156  0.00  0.00    +0.012 C 
ATOM     32  C   UNL     1      38.384 -24.633 -12.573  0.00  0.00    +0.012 C 
ATOM     33  C   UNL     1      39.043 -25.714 -13.159  0.00  0.00    +0.002 C 
ENDBRANCH  25  28
ENDBRANCH   6  25
TORSDOF 5
ENDMDL
MODEL 6
REMARK VINA RESULT:      -9.2      6.363      9.620
REMARK  Name = 5330608
REMARK  5 active torsions:
REMARK  status: ('A' for Active; 'I' for Inactive)
REMARK    1  A    between atoms: C_6  and  C_11
REMARK    2  A    between atoms: C_11  and  C_14
REMARK    3  A    between atoms: N_20  and  C_22
REMARK    4  A    between atoms: C_23  and  S_28
REMARK    5  A    between atoms: S_28  and  N_31
REMARK                            x       y       z     vdW  Elec       q    Type
REMARK                         _______ _______ _______ _____ _____    ______ ____
ROOT
ATOM      1  N   UNL     1      35.851 -22.310 -17.156  0.00  0.00    -0.253 N 
ATOM      2  N   UNL     1      34.740 -21.322 -18.827  0.00  0.00    -0.374 NA
ATOM      3  C   UNL     1      34.632 -22.154 -17.812  0.00  0.00    +0.189 C 
ATOM      4  C   UNL     1      36.054 -20.929 -18.834  0.00  0.00    +0.183 C 
ATOM      5  C   UNL     1      36.761 -21.523 -17.815  0.00  0.00    +0.173 C 
ATOM      6  C   UNL     1      34.976 -23.816 -15.572  0.00  0.00    +0.054 C 
ATOM      7  C   UNL     1      36.031 -23.131 -16.046  0.00  0.00    +0.071 C 
ATOM      8  C   UNL     1      33.521 -22.886 -17.299  0.00  0.00    +0.048 C 
ATOM      9  C   UNL     1      33.683 -23.683 -16.225  0.00  0.00    +0.008 C 
ATOM     10  N   UNL     1      36.558 -20.064 -19.741  0.00  0.00    -0.290 N 
ATOM     11  H   UNL     1      37.517 -19.888 -19.608  0.00  0.00    +0.154 HD
ENDROOT
BRANCH  10  12
ATOM     12  C   UNL     1      36.004 -19.340 -20.868  0.00  0.00    +0.050 C 
ATOM     13  C   UNL     1      34.952 -17.964 -23.005  0.00  0.00    +0.122 C 
ATOM     14  C   UNL     1      36.207 -17.981 -20.941  0.00  0.00    +0.016 C 
ATOM     15  C   UNL     1      35.297 -20.040 -21.818  0.00  0.00    +0.016 C 
ATOM     16  C   UNL     1      35.674 -17.284 -22.025  0.00  0.00    +0.021 C 
ATOM     17  C   UNL     1      34.764 -19.343 -22.902  0.00  0.00    +0.021 C 
BRANCH  13  18
ATOM     18  S   UNL     1      34.286 -17.092 -24.362  0.00  0.00    +0.057 S 
ATOM     19  O   UNL     1      35.379 -16.719 -25.250  0.00  0.00    -0.153 OA
ATOM     20  O   UNL     1      33.154 -17.845 -24.886  0.00  0.00    -0.153 OA
BRANCH  18  21
ATOM     21  N   UNL     1      33.698 -15.686 -23.590  0.00  0.00    -0.203 NA
ATOM     22  H   UNL     1      33.109 -15.163 -24.237  0.00  0.00    +0.144 HD
ATOM     23  H   UNL     1      34.485 -15.104 -23.301  0.00  0.00    +0.144 HD
ENDBRANCH  18  21
ENDBRANCH  13  18
ENDBRANCH  10  12
BRANCH   6  25
ATOM     24  O   UNL     1      34.188 -25.122 -13.792  0.00  0.00    -0.286 OA
ATOM     25  C   UNL     1      35.159 -24.680 -14.407  0.00  0.00    +0.198 C 
BRANCH  25  28
ATOM     26 CL   UNL     1      36.406 -22.928 -12.254  0.00  0.00    -0.082 Cl
ATOM     27 CL   UNL     1      36.397 -27.090 -15.789  0.00  0.00    -0.082 Cl
ATOM     28  C   UNL     1      36.538 -25.045 -13.980  0.00  0.00    +0.060 C 
ATOM     29  C   UNL     1      37.162 -24.288 -13.007  0.00  0.00    +0.062 C 
ATOM     30  C   UNL     1      37.157 -26.129 -14.570  0.00  0.00    +0.062 C 
ATOM     31  C   UNL     1      38.455 -24.629 -12.609  0.00  0.00    +0.012 C 
ATOM     32  C   UNL     1      38.450 -26.471 -14.172  0.00  0.00    +0.012 C 
ATOM     33  C   UNL     1      39.099 -25.720 -13.191  0.00  0.00    +0.002 C 
ENDBRANCH  25  28
ENDBRANCH   6  25
TORSDOF 5
ENDMDL
MODEL 7
REMARK VINA RESULT:      -9.0      4.864     10.549
REMARK  Name = 5330608
REMARK  5 active torsions:
REMARK  status: ('A' for Active; 'I' for Inactive)
REMARK    1  A    between atoms: C_6  and  C_11
REMARK    2  A    between atoms: C_11  and  C_14
REMARK    3  A    between atoms: N_20  and  C_22
REMARK    4  A    between atoms: C_23  and  S_28
REMARK    5  A    between atoms: S_28  and  N_31
REMARK                            x       y       z     vdW  Elec       q    Type
REMARK                         _______ _______ _______ _____ _____    ______ ____
ROOT
ATOM      1  N   UNL     1      33.398 -13.509 -22.003  0.00  0.00    -0.253 N 
ATOM      2  N   UNL     1      33.694 -15.302 -20.699  0.00  0.00    -0.374 NA
ATOM      3  C   UNL     1      33.110 -14.124 -20.787  0.00  0.00    +0.189 C 
ATOM      4  C   UNL     1      34.375 -15.457 -21.879  0.00  0.00    +0.183 C 
ATOM      5  C   UNL     1      34.209 -14.367 -22.701  0.00  0.00    +0.173 C 
ATOM      6  C   UNL     1      32.123 -11.592 -21.506  0.00  0.00    +0.054 C 
ATOM      7  C   UNL     1      32.913 -12.255 -22.368  0.00  0.00    +0.071 C 
ATOM      8  C   UNL     1      32.271 -13.410 -19.881  0.00  0.00    +0.048 C 
ATOM      9  C   UNL     1      31.796 -12.197 -20.223  0.00  0.00    +0.008 C 
ATOM     10  N   UNL     1      35.106 -16.556 -22.167  0.00  0.00    -0.290 N 
ATOM     11  H   UNL     1      35.531 -16.509 -23.053  0.00  0.00    +0.154 HD
ENDROOT
BRANCH  10  12
ATOM     12  C   UNL     1      35.405 -17.787 -21.463  0.00  0.00    +0.050 C 
ATOM     13  C   UNL     1      35.974 -20.123 -20.127  0.00  0.00    +0.122 C 
ATOM     14  C   UNL     1      36.720 -18.089 -21.196  0.00  0.00    +0.016 C 
ATOM     15  C   UNL     1      34.362 -18.603 -21.091  0.00  0.00    +0.016 C 
ATOM     16  C   UNL     1      37.009 -19.274 -20.519  0.00  0.00    +0.021 C 
ATOM     17  C   UNL     1      34.651 -19.787 -20.413  0.00  0.00    +0.021 C 
BRANCH  13  18
ATOM     18  S   UNL     1      36.335 -21.605 -19.279  0.00  0.00    +0.057 S 
ATOM     19  O   UNL     1      35.123 -22.412 -19.228  0.00  0.00    -0.153 OA
ATOM     20  O   UNL     1      37.557 -22.171 -19.833  0.00  0.00    -0.153 OA
BRANCH  18  21
ATOM     21  N   UNL     1      36.668 -21.011 -17.712  0.00  0.00    -0.203 NA
ATOM     22  H   UNL     1      37.238 -21.688 -17.205  0.00  0.00    +0.144 HD
ATOM     23  H   UNL     1      35.791 -20.865 -17.211  0.00  0.00    +0.144 HD
ENDBRANCH  18  21
ENDBRANCH  13  18
ENDBRANCH  10  12
BRANCH   6  25
ATOM     24  O   UNL     1      30.561 -10.166 -22.515  0.00  0.00    -0.286 OA
ATOM     25  C   UNL     1      31.613 -10.275 -21.884  0.00  0.00    +0.198 C 
BRANCH  25  28
ATOM     26 CL   UNL     1      31.175  -9.325 -19.027  0.00  0.00    -0.082 Cl
ATOM     27 CL   UNL     1      33.406  -9.032 -24.002  0.00  0.00    -0.082 Cl
ATOM     28  C   UNL     1      32.365  -9.058 -21.475  0.00  0.00    +0.060 C 
ATOM     29  C   UNL     1      32.209  -8.572 -20.190  0.00  0.00    +0.062 C 
ATOM     30  C   UNL     1      33.196  -8.444 -22.391  0.00  0.00    +0.062 C 
ATOM     31  C   UNL     1      32.912  -7.430 -19.808  0.00  0.00    +0.012 C 
ATOM     32  C   UNL     1      33.899  -7.301 -22.009  0.00  0.00    +0.012 C 
ATOM     33  C   UNL     1      33.757  -6.794 -20.718  0.00  0.00    +0.002 C 
ENDBRANCH  25  28
ENDBRANCH   6  25
TORSDOF 5
ENDMDL
MODEL 8
REMARK VINA RESULT:      -9.0      4.864     10.481
REMARK  Name = 5330608
REMARK  5 active torsions:
REMARK  status: ('A' for Active; 'I' for Inactive)
REMARK    1  A    between atoms: C_6  and  C_11
REMARK    2  A    between atoms: C_11  and  C_14
REMARK    3  A    between atoms: N_20  and  C_22
REMARK    4  A    between atoms: C_23  and  S_28
REMARK    5  A    between atoms: S_28  and  N_31
REMARK                            x       y       z     vdW  Elec       q    Type
REMARK                         _______ _______ _______ _____ _____    ______ ____
ROOT
ATOM      1  N   UNL     1      33.359 -13.542 -22.018  0.00  0.00    -0.253 N 
ATOM      2  N   UNL     1      33.679 -15.322 -20.702  0.00  0.00    -0.374 NA
ATOM      3  C   UNL     1      33.095 -14.145 -20.790  0.00  0.00    +0.189 C 
ATOM      4  C   UNL     1      34.335 -15.491 -21.894  0.00  0.00    +0.183 C 
ATOM      5  C   UNL     1      34.155 -14.409 -22.724  0.00  0.00    +0.173 C 
ATOM      6  C   UNL     1      32.098 -11.619 -21.514  0.00  0.00    +0.054 C 
ATOM      7  C   UNL     1      32.869 -12.291 -22.385  0.00  0.00    +0.071 C 
ATOM      8  C   UNL     1      32.276 -13.420 -19.875  0.00  0.00    +0.048 C 
ATOM      9  C   UNL     1      31.796 -12.210 -20.219  0.00  0.00    +0.008 C 
ATOM     10  N   UNL     1      35.059 -16.593 -22.186  0.00  0.00    -0.290 N 
ATOM     11  H   UNL     1      35.466 -16.556 -23.081  0.00  0.00    +0.154 HD
ENDROOT
BRANCH  10  12
ATOM     12  C   UNL     1      35.371 -17.818 -21.476  0.00  0.00    +0.050 C 
ATOM     13  C   UNL     1      35.964 -20.142 -20.130  0.00  0.00    +0.122 C 
ATOM     14  C   UNL     1      36.688 -18.101 -21.201  0.00  0.00    +0.016 C 
ATOM     15  C   UNL     1      34.337 -18.647 -21.108  0.00  0.00    +0.016 C 
ATOM     16  C   UNL     1      36.989 -19.279 -20.518  0.00  0.00    +0.021 C 
ATOM     17  C   UNL     1      34.637 -19.825 -20.424  0.00  0.00    +0.021 C 
BRANCH  13  18
ATOM     18  S   UNL     1      36.339 -21.616 -19.274  0.00  0.00    +0.057 S 
ATOM     19  O   UNL     1      35.135 -22.433 -19.217  0.00  0.00    -0.153 OA
ATOM     20  O   UNL     1      37.566 -22.174 -19.827  0.00  0.00    -0.153 OA
BRANCH  18  21
ATOM     21  N   UNL     1      36.669 -21.011 -17.710  0.00  0.00    -0.203 NA
ATOM     22  H   UNL     1      37.660 -21.129 -17.502  0.00  0.00    +0.144 HD
ATOM     23  H   UNL     1      36.114 -21.523 -17.024  0.00  0.00    +0.144 HD
ENDBRANCH  18  21
ENDBRANCH  13  18
ENDBRANCH  10  12
BRANCH   6  25
ATOM     24  O   UNL     1      30.530 -10.201 -22.528  0.00  0.00    -0.286 OA
ATOM     25  C   UNL     1      31.581 -10.305 -21.895  0.00  0.00    +0.198 C 
BRANCH  25  28
ATOM     26 CL   UNL     1      33.398  -9.075 -24.003  0.00  0.00    -0.082 Cl
ATOM     27 CL   UNL     1      31.107  -9.332 -19.052  0.00  0.00    -0.082 Cl
ATOM     28  C   UNL     1      32.327  -9.083 -21.486  0.00  0.00    +0.060 C 
ATOM     29  C   UNL     1      33.171  -8.476 -22.397  0.00  0.00    +0.062 C 
ATOM     30  C   UNL     1      32.156  -8.590 -20.207  0.00  0.00    +0.062 C 
ATOM     31  C   UNL     1      33.871  -7.332 -22.013  0.00  0.00    +0.012 C 
ATOM     32  C   UNL     1      32.856  -7.446 -19.824  0.00  0.00    +0.012 C 
ATOM     33  C   UNL     1      33.714  -6.817 -20.727  0.00  0.00    +0.002 C 
ENDBRANCH  25  28
ENDBRANCH   6  25
TORSDOF 5
ENDMDL
MODEL 9
REMARK VINA RESULT:      -8.9      6.064      9.162
REMARK  Name = 5330608
REMARK  5 active torsions:
REMARK  status: ('A' for Active; 'I' for Inactive)
REMARK    1  A    between atoms: C_6  and  C_11
REMARK    2  A    between atoms: C_11  and  C_14
REMARK    3  A    between atoms: N_20  and  C_22
REMARK    4  A    between atoms: C_23  and  S_28
REMARK    5  A    between atoms: S_28  and  N_31
REMARK                            x       y       z     vdW  Elec       q    Type
REMARK                         _______ _______ _______ _____ _____    ______ ____
ROOT
ATOM      1  N   UNL     1      35.921 -22.136 -17.623  0.00  0.00    -0.253 N 
ATOM      2  N   UNL     1      34.766 -21.050 -19.201  0.00  0.00    -0.374 NA
ATOM      3  C   UNL     1      34.690 -21.957 -18.249  0.00  0.00    +0.189 C 
ATOM      4  C   UNL     1      36.072 -20.630 -19.197  0.00  0.00    +0.183 C 
ATOM      5  C   UNL     1      36.805 -21.282 -18.234  0.00  0.00    +0.173 C 
ATOM      6  C   UNL     1      35.100 -23.773 -16.144  0.00  0.00    +0.054 C 
ATOM      7  C   UNL     1      36.134 -23.033 -16.579  0.00  0.00    +0.071 C 
ATOM      8  C   UNL     1      33.602 -22.749 -17.777  0.00  0.00    +0.048 C 
ATOM      9  C   UNL     1      33.795 -23.619 -16.769  0.00  0.00    +0.008 C 
ATOM     10  N   UNL     1      36.545 -19.690 -20.043  0.00  0.00    -0.290 N 
ATOM     11  H   UNL     1      37.502 -19.504 -19.909  0.00  0.00    +0.154 HD
ENDROOT
BRANCH  10  12
ATOM     12  C   UNL     1      35.960 -18.896 -21.106  0.00  0.00    +0.050 C 
ATOM     13  C   UNL     1      34.849 -17.391 -23.122  0.00  0.00    +0.122 C 
ATOM     14  C   UNL     1      35.490 -19.541 -22.226  0.00  0.00    +0.016 C 
ATOM     15  C   UNL     1      35.899 -17.531 -20.950  0.00  0.00    +0.016 C 
ATOM     16  C   UNL     1      34.926 -18.777 -23.248  0.00  0.00    +0.021 C 
ATOM     17  C   UNL     1      35.336 -16.767 -21.972  0.00  0.00    +0.021 C 
BRANCH  13  18
ATOM     18  S   UNL     1      34.144 -16.435 -24.401  0.00  0.00    +0.057 S 
ATOM     19  O   UNL     1      33.432 -15.315 -23.798  0.00  0.00    -0.153 OA
ATOM     20  O   UNL     1      35.165 -16.183 -25.409  0.00  0.00    -0.153 OA
BRANCH  18  21
ATOM     21  N   UNL     1      33.003 -17.534 -25.039  0.00  0.00    -0.203 NA
ATOM     22  H   UNL     1      33.483 -18.372 -25.367  0.00  0.00    +0.144 HD
ATOM     23  H   UNL     1      32.511 -17.098 -25.819  0.00  0.00    +0.144 HD
ENDBRANCH  18  21
ENDBRANCH  13  18
ENDBRANCH  10  12
BRANCH   6  25
ATOM     24  O   UNL     1      35.192 -25.928 -15.228  0.00  0.00    -0.286 OA
ATOM     25  C   UNL     1      35.318 -24.717 -15.048  0.00  0.00    +0.198 C 
BRANCH  25  28
ATOM     26 CL   UNL     1      38.306 -24.358 -14.596  0.00  0.00    -0.082 Cl
ATOM     27 CL   UNL     1      33.060 -24.145 -13.093  0.00  0.00    -0.082 Cl
ATOM     28  C   UNL     1      35.722 -24.201 -13.712  0.00  0.00    +0.060 C 
ATOM     29  C   UNL     1      37.065 -24.018 -13.441  0.00  0.00    +0.062 C 
ATOM     30  C   UNL     1      34.744 -23.923 -12.777  0.00  0.00    +0.062 C 
ATOM     31  C   UNL     1      37.444 -23.536 -12.188  0.00  0.00    +0.012 C 
ATOM     32  C   UNL     1      35.123 -23.442 -11.523  0.00  0.00    +0.012 C 
ATOM     33  C   UNL     1      36.472 -23.249 -11.229  0.00  0.00    +0.002 C 
ENDBRANCH  25  28
ENDBRANCH   6  25
TORSDOF 5
ENDMDL
