MODEL 1
REMARK VINA RESULT:     -11.2      0.000      0.000
REMARK  Name = 11609586
REMARK  6 active torsions:
REMARK  status: ('A' for Active; 'I' for Inactive)
REMARK    1  A    between atoms: N_1  and  C_3
REMARK    2  A    between atoms: N_1  and  C_17
REMARK    3  A    between atoms: C_6  and  N_9
REMARK    4  A    between atoms: N_9  and  C_12
REMARK    5  A    between atoms: C_17  and  C_18
REMARK    6  A    between atoms: C_18  and  C_20
REMARK                            x       y       z     vdW  Elec       q    Type
REMARK                         _______ _______ _______ _____ _____    ______ ____
ROOT
ATOM      1  N   UNL     1      36.040 -18.981 -21.161  0.00  0.00    -0.332 N 
ATOM      2  H   UNL     1      37.023 -19.040 -21.132  0.00  0.00    +0.147 HD
ENDROOT
BRANCH   1   3
ATOM      3  C   UNL     1      35.309 -19.920 -20.445  0.00  0.00    +0.045 C 
ATOM      4  C   UNL     1      33.903 -19.914 -20.478  0.00  0.00    +0.016 C 
ATOM      5  C   UNL     1      35.957 -20.899 -19.671  0.00  0.00    +0.016 C 
ATOM      6  C   UNL     1      33.828 -21.822 -18.997  0.00  0.00    +0.048 C 
ATOM      7  C   UNL     1      33.169 -20.857 -19.758  0.00  0.00    +0.016 C 
ATOM      8  C   UNL     1      35.223 -21.843 -18.953  0.00  0.00    +0.016 C 
BRANCH   6   9
ATOM      9  N   UNL     1      33.085 -22.776 -18.272  0.00  0.00    -0.312 N 
ATOM     10  H   UNL     1      32.628 -23.437 -18.839  0.00  0.00    +0.152 HD
BRANCH   9  12
ATOM     11  N   UNL     1      32.442 -23.353 -14.156  0.00  0.00    -0.242 NA
ATOM     12  C   UNL     1      32.869 -22.969 -16.893  0.00  0.00    +0.051 C 
ATOM     13  C   UNL     1      33.933 -23.294 -16.058  0.00  0.00    +0.035 C 
ATOM     14  C   UNL     1      31.591 -22.837 -16.359  0.00  0.00    +0.035 C 
ATOM     15  C   UNL     1      33.670 -23.474 -14.710  0.00  0.00    +0.100 C 
ATOM     16  C   UNL     1      31.433 -23.036 -14.998  0.00  0.00    +0.100 C 
ENDBRANCH   9  12
ENDBRANCH   6   9
ENDBRANCH   1   3
BRANCH   1  17
ATOM     17  C   UNL     1      35.448 -17.930 -21.942  0.00  0.00    +0.092 C 
BRANCH  17  18
ATOM     18  C   UNL     1      35.360 -16.606 -21.161  0.00  0.00    +0.049 C 
BRANCH  18  20
ATOM     19  N   UNL     1      34.016 -14.158 -23.514  0.00  0.00    -0.312 N 
ATOM     20  C   UNL     1      34.669 -15.522 -21.889  0.00  0.00    -0.005 C 
ATOM     21  C   UNL     1      33.729 -14.602 -21.347  0.00  0.00    +0.011 C 
ATOM     22  C   UNL     1      33.335 -13.757 -22.387  0.00  0.00    +0.048 C 
ATOM     23  C   UNL     1      34.825 -15.223 -23.223  0.00  0.00    +0.058 C 
ATOM     24  C   UNL     1      33.173 -14.406 -20.068  0.00  0.00    +0.001 C 
ATOM     25  C   UNL     1      32.410 -12.722 -22.210  0.00  0.00    +0.015 C 
ATOM     26  C   UNL     1      32.246 -13.374 -19.876  0.00  0.00    +0.000 C 
ATOM     27  C   UNL     1      31.872 -12.547 -20.933  0.00  0.00    +0.001 C 
ATOM     28  H   UNL     1      33.935 -13.739 -24.401  0.00  0.00    +0.152 HD
ENDBRANCH  18  20
ENDBRANCH  17  18
ENDBRANCH   1  17
TORSDOF 6
ENDMDL
MODEL 2
REMARK VINA RESULT:     -11.1      2.506      9.627
REMARK  Name = 11609586
REMARK  6 active torsions:
REMARK  status: ('A' for Active; 'I' for Inactive)
REMARK    1  A    between atoms: N_1  and  C_3
REMARK    2  A    between atoms: N_1  and  C_17
REMARK    3  A    between atoms: C_6  and  N_9
REMARK    4  A    between atoms: N_9  and  C_12
REMARK    5  A    between atoms: C_17  and  C_18
REMARK    6  A    between atoms: C_18  and  C_20
REMARK                            x       y       z     vdW  Elec       q    Type
REMARK                         _______ _______ _______ _____ _____    ______ ____
ROOT
ATOM      1  N   UNL     1      33.481 -23.068 -17.895  0.00  0.00    -0.332 N 
ATOM      2  H   UNL     1      32.599 -23.437 -18.133  0.00  0.00    +0.147 HD
ENDROOT
BRANCH   1   3
ATOM      3  C   UNL     1      34.015 -22.077 -18.708  0.00  0.00    +0.045 C 
ATOM      4  C   UNL     1      35.405 -21.961 -18.883  0.00  0.00    +0.016 C 
ATOM      5  C   UNL     1      33.178 -21.166 -19.377  0.00  0.00    +0.016 C 
ATOM      6  C   UNL     1      35.095 -20.071 -20.356  0.00  0.00    +0.048 C 
ATOM      7  C   UNL     1      35.941 -20.965 -19.700  0.00  0.00    +0.016 C 
ATOM      8  C   UNL     1      33.713 -20.171 -20.194  0.00  0.00    +0.016 C 
BRANCH   6   9
ATOM      9  N   UNL     1      35.638 -19.066 -21.183  0.00  0.00    -0.312 N 
ATOM     10  H   UNL     1      36.509 -18.727 -20.876  0.00  0.00    +0.152 HD
BRANCH   9  12
ATOM     11  N   UNL     1      34.261 -17.230 -24.707  0.00  0.00    -0.242 NA
ATOM     12  C   UNL     1      35.177 -18.451 -22.364  0.00  0.00    +0.051 C 
ATOM     13  C   UNL     1      35.356 -17.086 -22.557  0.00  0.00    +0.035 C 
ATOM     14  C   UNL     1      34.539 -19.207 -23.343  0.00  0.00    +0.035 C 
ATOM     15  C   UNL     1      34.885 -16.528 -23.734  0.00  0.00    +0.100 C 
ATOM     16  C   UNL     1      34.105 -18.554 -24.486  0.00  0.00    +0.100 C 
ENDBRANCH   9  12
ENDBRANCH   6   9
ENDBRANCH   1   3
BRANCH   1  17
ATOM     17  C   UNL     1      34.139 -23.587 -16.727  0.00  0.00    +0.092 C 
BRANCH  17  18
ATOM     18  C   UNL     1      33.601 -22.956 -15.430  0.00  0.00    +0.049 C 
BRANCH  18  20
ATOM     19  N   UNL     1      31.406 -25.114 -13.465  0.00  0.00    -0.312 N 
ATOM     20  C   UNL     1      32.507 -23.721 -14.797  0.00  0.00    -0.005 C 
ATOM     21  C   UNL     1      31.127 -23.667 -15.140  0.00  0.00    +0.011 C 
ATOM     22  C   UNL     1      30.458 -24.550 -14.289  0.00  0.00    +0.048 C 
ATOM     23  C   UNL     1      32.646 -24.620 -13.765  0.00  0.00    +0.058 C 
ATOM     24  C   UNL     1      30.380 -22.950 -16.095  0.00  0.00    +0.001 C 
ATOM     25  C   UNL     1      29.075 -24.752 -14.346  0.00  0.00    +0.015 C 
ATOM     26  C   UNL     1      28.995 -23.142 -16.163  0.00  0.00    +0.000 C 
ATOM     27  C   UNL     1      28.354 -24.030 -15.301  0.00  0.00    +0.001 C 
ATOM     28  H   UNL     1      31.219 -25.777 -12.762  0.00  0.00    +0.152 HD
ENDBRANCH  18  20
ENDBRANCH  17  18
ENDBRANCH   1  17
TORSDOF 6
ENDMDL
MODEL 3
REMARK VINA RESULT:     -10.9      2.917      9.194
REMARK  Name = 11609586
REMARK  6 active torsions:
REMARK  status: ('A' for Active; 'I' for Inactive)
REMARK    1  A    between atoms: N_1  and  C_3
REMARK    2  A    between atoms: N_1  and  C_17
REMARK    3  A    between atoms: C_6  and  N_9
REMARK    4  A    between atoms: N_9  and  C_12
REMARK    5  A    between atoms: C_17  and  C_18
REMARK    6  A    between atoms: C_18  and  C_20
REMARK                            x       y       z     vdW  Elec       q    Type
REMARK                         _______ _______ _______ _____ _____    ______ ____
ROOT
ATOM      1  N   UNL     1      35.553 -16.030 -23.003  0.00  0.00    -0.332 N 
ATOM      2  H   UNL     1      36.490 -15.726 -23.038  0.00  0.00    +0.147 HD
ENDROOT
BRANCH   1   3
ATOM      3  C   UNL     1      34.597 -15.140 -22.531  0.00  0.00    +0.045 C 
ATOM      4  C   UNL     1      34.470 -14.884 -21.154  0.00  0.00    +0.016 C 
ATOM      5  C   UNL     1      33.733 -14.474 -23.419  0.00  0.00    +0.016 C 
ATOM      6  C   UNL     1      32.662 -13.338 -21.576  0.00  0.00    +0.048 C 
ATOM      7  C   UNL     1      33.509 -13.991 -20.681  0.00  0.00    +0.016 C 
ATOM      8  C   UNL     1      32.774 -13.580 -22.945  0.00  0.00    +0.016 C 
BRANCH   6   9
ATOM      9  N   UNL     1      31.692 -12.433 -21.096  0.00  0.00    -0.312 N 
ATOM     10  H   UNL     1      30.766 -12.709 -21.282  0.00  0.00    +0.152 HD
BRANCH   9  12
ATOM     11  N   UNL     1      31.982  -8.783 -19.028  0.00  0.00    -0.242 NA
ATOM     12  C   UNL     1      31.789 -11.210 -20.404  0.00  0.00    +0.051 C 
ATOM     13  C   UNL     1      31.929 -11.200 -19.020  0.00  0.00    +0.035 C 
ATOM     14  C   UNL     1      31.746 -10.006 -21.100  0.00  0.00    +0.035 C 
ATOM     15  C   UNL     1      32.020  -9.972 -18.385  0.00  0.00    +0.100 C 
ATOM     16  C   UNL     1      31.847  -8.832 -20.372  0.00  0.00    +0.100 C 
ENDBRANCH   9  12
ENDBRANCH   6   9
ENDBRANCH   1   3
BRANCH   1  17
ATOM     17  C   UNL     1      35.257 -17.365 -23.444  0.00  0.00    +0.092 C 
BRANCH  17  18
ATOM     18  C   UNL     1      34.542 -18.190 -22.358  0.00  0.00    +0.049 C 
BRANCH  18  20
ATOM     19  N   UNL     1      37.283 -19.402 -20.273  0.00  0.00    -0.312 N 
ATOM     20  C   UNL     1      35.456 -18.856 -21.408  0.00  0.00    -0.005 C 
ATOM     21  C   UNL     1      35.122 -19.903 -20.505  0.00  0.00    +0.011 C 
ATOM     22  C   UNL     1      36.286 -20.228 -19.804  0.00  0.00    +0.048 C 
ATOM     23  C   UNL     1      36.791 -18.570 -21.242  0.00  0.00    +0.058 C 
ATOM     24  C   UNL     1      33.938 -20.609 -20.214  0.00  0.00    +0.001 C 
ATOM     25  C   UNL     1      36.325 -21.225 -18.824  0.00  0.00    +0.015 C 
ATOM     26  C   UNL     1      33.963 -21.611 -19.236  0.00  0.00    +0.000 C 
ATOM     27  C   UNL     1      35.139 -21.912 -18.553  0.00  0.00    +0.001 C 
ATOM     28  H   UNL     1      38.216 -19.408 -19.957  0.00  0.00    +0.152 HD
ENDBRANCH  18  20
ENDBRANCH  17  18
ENDBRANCH   1  17
TORSDOF 6
ENDMDL
MODEL 4
REMARK VINA RESULT:     -10.9      2.435      9.822
REMARK  Name = 11609586
REMARK  6 active torsions:
REMARK  status: ('A' for Active; 'I' for Inactive)
REMARK    1  A    between atoms: N_1  and  C_3
REMARK    2  A    between atoms: N_1  and  C_17
REMARK    3  A    between atoms: C_6  and  N_9
REMARK    4  A    between atoms: N_9  and  C_12
REMARK    5  A    between atoms: C_17  and  C_18
REMARK    6  A    between atoms: C_18  and  C_20
REMARK                            x       y       z     vdW  Elec       q    Type
REMARK                         _______ _______ _______ _____ _____    ______ ____
ROOT
ATOM      1  N   UNL     1      32.965 -22.584 -18.023  0.00  0.00    -0.332 N 
ATOM      2  H   UNL     1      31.991 -22.465 -17.939  0.00  0.00    +0.147 HD
ENDROOT
BRANCH   1   3
ATOM      3  C   UNL     1      33.655 -21.731 -18.874  0.00  0.00    +0.045 C 
ATOM      4  C   UNL     1      32.971 -20.770 -19.640  0.00  0.00    +0.016 C 
ATOM      5  C   UNL     1      35.054 -21.809 -18.992  0.00  0.00    +0.016 C 
ATOM      6  C   UNL     1      35.053 -20.004 -20.598  0.00  0.00    +0.048 C 
ATOM      7  C   UNL     1      33.665 -19.914 -20.495  0.00  0.00    +0.016 C 
ATOM      8  C   UNL     1      35.748 -20.952 -19.846  0.00  0.00    +0.016 C 
BRANCH   6   9
ATOM      9  N   UNL     1      35.753 -19.137 -21.461  0.00  0.00    -0.312 N 
ATOM     10  H   UNL     1      36.711 -19.348 -21.543  0.00  0.00    +0.152 HD
BRANCH   9  12
ATOM     11  N   UNL     1      34.553 -15.824 -23.757  0.00  0.00    -0.242 NA
ATOM     12  C   UNL     1      35.351 -18.027 -22.230  0.00  0.00    +0.051 C 
ATOM     13  C   UNL     1      34.913 -18.205 -23.538  0.00  0.00    +0.035 C 
ATOM     14  C   UNL     1      35.391 -16.747 -21.686  0.00  0.00    +0.035 C 
ATOM     15  C   UNL     1      34.528 -17.082 -24.253  0.00  0.00    +0.100 C 
ATOM     16  C   UNL     1      34.984 -15.690 -22.483  0.00  0.00    +0.100 C 
ENDBRANCH   9  12
ENDBRANCH   6   9
ENDBRANCH   1   3
BRANCH   1  17
ATOM     17  C   UNL     1      33.587 -23.629 -17.257  0.00  0.00    +0.092 C 
BRANCH  17  18
ATOM     18  C   UNL     1      33.893 -23.187 -15.814  0.00  0.00    +0.049 C 
BRANCH  18  20
ATOM     19  N   UNL     1      37.422 -22.480 -15.194  0.00  0.00    -0.312 N 
ATOM     20  C   UNL     1      35.333 -23.172 -15.482  0.00  0.00    -0.005 C 
ATOM     21  C   UNL     1      36.100 -24.264 -14.988  0.00  0.00    +0.011 C 
ATOM     22  C   UNL     1      37.407 -23.803 -14.816  0.00  0.00    +0.048 C 
ATOM     23  C   UNL     1      36.174 -22.090 -15.598  0.00  0.00    +0.058 C 
ATOM     24  C   UNL     1      35.807 -25.605 -14.670  0.00  0.00    +0.001 C 
ATOM     25  C   UNL     1      38.439 -24.619 -14.340  0.00  0.00    +0.015 C 
ATOM     26  C   UNL     1      36.831 -26.433 -14.192  0.00  0.00    +0.000 C 
ATOM     27  C   UNL     1      38.126 -25.945 -14.030  0.00  0.00    +0.001 C 
ATOM     28  H   UNL     1      38.216 -21.897 -15.177  0.00  0.00    +0.152 HD
ENDBRANCH  18  20
ENDBRANCH  17  18
ENDBRANCH   1  17
TORSDOF 6
ENDMDL
MODEL 5
REMARK VINA RESULT:     -10.8      2.548     10.254
REMARK  Name = 11609586
REMARK  6 active torsions:
REMARK  status: ('A' for Active; 'I' for Inactive)
REMARK    1  A    between atoms: N_1  and  C_3
REMARK    2  A    between atoms: N_1  and  C_17
REMARK    3  A    between atoms: C_6  and  N_9
REMARK    4  A    between atoms: N_9  and  C_12
REMARK    5  A    between atoms: C_17  and  C_18
REMARK    6  A    between atoms: C_18  and  C_20
REMARK                            x       y       z     vdW  Elec       q    Type
REMARK                         _______ _______ _______ _____ _____    ______ ____
ROOT
ATOM      1  N   UNL     1      33.570 -23.186 -18.197  0.00  0.00    -0.332 N 
ATOM      2  H   UNL     1      33.326 -24.015 -18.671  0.00  0.00    +0.147 HD
ENDROOT
BRANCH   1   3
ATOM      3  C   UNL     1      34.056 -22.124 -18.947  0.00  0.00    +0.045 C 
ATOM      4  C   UNL     1      35.438 -21.957 -19.147  0.00  0.00    +0.016 C 
ATOM      5  C   UNL     1      33.178 -21.190 -19.525  0.00  0.00    +0.016 C 
ATOM      6  C   UNL     1      35.040 -19.973 -20.468  0.00  0.00    +0.048 C 
ATOM      7  C   UNL     1      35.925 -20.890 -19.901  0.00  0.00    +0.016 C 
ATOM      8  C   UNL     1      33.666 -20.123 -20.280  0.00  0.00    +0.016 C 
BRANCH   6   9
ATOM      9  N   UNL     1      35.534 -18.896 -21.232  0.00  0.00    -0.312 N 
ATOM     10  H   UNL     1      36.340 -18.478 -20.852  0.00  0.00    +0.152 HD
BRANCH   9  12
ATOM     11  N   UNL     1      34.238 -17.116 -24.814  0.00  0.00    -0.242 NA
ATOM     12  C   UNL     1      35.100 -18.300 -22.432  0.00  0.00    +0.051 C 
ATOM     13  C   UNL     1      35.286 -16.938 -22.643  0.00  0.00    +0.035 C 
ATOM     14  C   UNL     1      34.482 -19.070 -23.412  0.00  0.00    +0.035 C 
ATOM     15  C   UNL     1      34.842 -16.399 -23.840  0.00  0.00    +0.100 C 
ATOM     16  C   UNL     1      34.074 -18.436 -24.574  0.00  0.00    +0.100 C 
ENDBRANCH   9  12
ENDBRANCH   6   9
ENDBRANCH   1   3
BRANCH   1  17
ATOM     17  C   UNL     1      33.400 -23.149 -16.770  0.00  0.00    +0.092 C 
BRANCH  17  18
ATOM     18  C   UNL     1      34.726 -22.882 -16.034  0.00  0.00    +0.049 C 
BRANCH  18  20
ATOM     19  N   UNL     1      34.514 -24.866 -12.976  0.00  0.00    -0.312 N 
ATOM     20  C   UNL     1      34.921 -23.708 -14.826  0.00  0.00    -0.005 C 
ATOM     21  C   UNL     1      36.157 -24.215 -14.336  0.00  0.00    +0.011 C 
ATOM     22  C   UNL     1      35.874 -24.938 -13.175  0.00  0.00    +0.048 C 
ATOM     23  C   UNL     1      33.930 -24.125 -13.968  0.00  0.00    +0.058 C 
ATOM     24  C   UNL     1      37.495 -24.128 -14.770  0.00  0.00    +0.001 C 
ATOM     25  C   UNL     1      36.864 -25.580 -12.424  0.00  0.00    +0.015 C 
ATOM     26  C   UNL     1      38.496 -24.766 -14.029  0.00  0.00    +0.000 C 
ATOM     27  C   UNL     1      38.183 -25.481 -12.874  0.00  0.00    +0.001 C 
ATOM     28  H   UNL     1      34.030 -25.286 -12.229  0.00  0.00    +0.152 HD
ENDBRANCH  18  20
ENDBRANCH  17  18
ENDBRANCH   1  17
TORSDOF 6
ENDMDL
MODEL 6
REMARK VINA RESULT:     -10.8      0.895      1.443
REMARK  Name = 11609586
REMARK  6 active torsions:
REMARK  status: ('A' for Active; 'I' for Inactive)
REMARK    1  A    between atoms: N_1  and  C_3
REMARK    2  A    between atoms: N_1  and  C_17
REMARK    3  A    between atoms: C_6  and  N_9
REMARK    4  A    between atoms: N_9  and  C_12
REMARK    5  A    between atoms: C_17  and  C_18
REMARK    6  A    between atoms: C_18  and  C_20
REMARK                            x       y       z     vdW  Elec       q    Type
REMARK                         _______ _______ _______ _____ _____    ______ ____
ROOT
ATOM      1  N   UNL     1      35.901 -19.229 -21.037  0.00  0.00    -0.332 N 
ATOM      2  H   UNL     1      36.839 -19.019 -20.820  0.00  0.00    +0.147 HD
ENDROOT
BRANCH   1   3
ATOM      3  C   UNL     1      35.254 -20.191 -20.273  0.00  0.00    +0.045 C 
ATOM      4  C   UNL     1      33.850 -20.261 -20.244  0.00  0.00    +0.016 C 
ATOM      5  C   UNL     1      35.987 -21.119 -19.512  0.00  0.00    +0.016 C 
ATOM      6  C   UNL     1      33.943 -22.141 -18.728  0.00  0.00    +0.048 C 
ATOM      7  C   UNL     1      33.200 -21.228 -19.477  0.00  0.00    +0.016 C 
ATOM      8  C   UNL     1      35.337 -22.086 -18.745  0.00  0.00    +0.016 C 
BRANCH   6   9
ATOM      9  N   UNL     1      33.285 -23.119 -17.954  0.00  0.00    -0.312 N 
ATOM     10  H   UNL     1      33.036 -23.924 -18.462  0.00  0.00    +0.152 HD
BRANCH   9  12
ATOM     11  N   UNL     1      32.178 -23.271 -13.900  0.00  0.00    -0.242 NA
ATOM     12  C   UNL     1      32.915 -23.170 -16.596  0.00  0.00    +0.051 C 
ATOM     13  C   UNL     1      31.603 -22.903 -16.219  0.00  0.00    +0.035 C 
ATOM     14  C   UNL     1      33.859 -23.488 -15.625  0.00  0.00    +0.035 C 
ATOM     15  C   UNL     1      31.288 -22.966 -14.871  0.00  0.00    +0.100 C 
ATOM     16  C   UNL     1      33.443 -23.525 -14.304  0.00  0.00    +0.100 C 
ENDBRANCH   9  12
ENDBRANCH   6   9
ENDBRANCH   1   3
BRANCH   1  17
ATOM     17  C   UNL     1      35.284 -18.521 -22.125  0.00  0.00    +0.092 C 
BRANCH  17  18
ATOM     18  C   UNL     1      35.776 -17.065 -22.223  0.00  0.00    +0.049 C 
BRANCH  18  20
ATOM     19  N   UNL     1      33.881 -15.394 -24.860  0.00  0.00    -0.312 N 
ATOM     20  C   UNL     1      34.940 -16.205 -23.086  0.00  0.00    -0.005 C 
ATOM     21  C   UNL     1      34.246 -15.027 -22.691  0.00  0.00    +0.011 C 
ATOM     22  C   UNL     1      33.590 -14.538 -23.822  0.00  0.00    +0.048 C 
ATOM     23  C   UNL     1      34.696 -16.404 -24.425  0.00  0.00    +0.058 C 
ATOM     24  C   UNL     1      34.113 -14.327 -21.475  0.00  0.00    +0.001 C 
ATOM     25  C   UNL     1      32.804 -13.381 -23.799  0.00  0.00    +0.015 C 
ATOM     26  C   UNL     1      33.330 -13.168 -21.437  0.00  0.00    +0.000 C 
ATOM     27  C   UNL     1      32.686 -12.704 -22.582  0.00  0.00    +0.001 C 
ATOM     28  H   UNL     1      33.551 -15.295 -25.783  0.00  0.00    +0.152 HD
ENDBRANCH  18  20
ENDBRANCH  17  18
ENDBRANCH   1  17
TORSDOF 6
ENDMDL
MODEL 7
REMARK VINA RESULT:     -10.7      2.077      4.288
REMARK  Name = 11609586
REMARK  6 active torsions:
REMARK  status: ('A' for Active; 'I' for Inactive)
REMARK    1  A    between atoms: N_1  and  C_3
REMARK    2  A    between atoms: N_1  and  C_17
REMARK    3  A    between atoms: C_6  and  N_9
REMARK    4  A    between atoms: N_9  and  C_12
REMARK    5  A    between atoms: C_17  and  C_18
REMARK    6  A    between atoms: C_18  and  C_20
REMARK                            x       y       z     vdW  Elec       q    Type
REMARK                         _______ _______ _______ _____ _____    ______ ____
ROOT
ATOM      1  N   UNL     1      34.533 -15.966 -24.580  0.00  0.00    -0.332 N 
ATOM      2  H   UNL     1      35.050 -15.988 -25.418  0.00  0.00    +0.147 HD
ENDROOT
BRANCH   1   3
ATOM      3  C   UNL     1      34.788 -16.948 -23.631  0.00  0.00    +0.045 C 
ATOM      4  C   UNL     1      35.300 -16.609 -22.366  0.00  0.00    +0.016 C 
ATOM      5  C   UNL     1      34.541 -18.303 -23.913  0.00  0.00    +0.016 C 
ATOM      6  C   UNL     1      35.304 -18.934 -21.709  0.00  0.00    +0.048 C 
ATOM      7  C   UNL     1      35.557 -17.595 -21.413  0.00  0.00    +0.016 C 
ATOM      8  C   UNL     1      34.797 -19.289 -22.960  0.00  0.00    +0.016 C 
BRANCH   6   9
ATOM      9  N   UNL     1      35.562 -19.930 -20.745  0.00  0.00    -0.312 N 
ATOM     10  H   UNL     1      36.520 -20.109 -20.605  0.00  0.00    +0.152 HD
BRANCH   9  12
ATOM     11  N   UNL     1      33.038 -22.290 -18.347  0.00  0.00    -0.242 NA
ATOM     12  C   UNL     1      34.717 -20.721 -19.941  0.00  0.00    +0.051 C 
ATOM     13  C   UNL     1      33.356 -20.443 -19.875  0.00  0.00    +0.035 C 
ATOM     14  C   UNL     1      35.239 -21.783 -19.210  0.00  0.00    +0.035 C 
ATOM     15  C   UNL     1      32.566 -21.250 -19.071  0.00  0.00    +0.100 C 
ATOM     16  C   UNL     1      34.366 -22.530 -18.436  0.00  0.00    +0.100 C 
ENDBRANCH   9  12
ENDBRANCH   6   9
ENDBRANCH   1   3
BRANCH   1  17
ATOM     17  C   UNL     1      33.560 -14.922 -24.411  0.00  0.00    +0.092 C 
BRANCH  17  18
ATOM     18  C   UNL     1      34.120 -13.731 -23.612  0.00  0.00    +0.049 C 
BRANCH  18  20
ATOM     19  N   UNL     1      31.627 -12.690 -21.155  0.00  0.00    -0.312 N 
ATOM     20  C   UNL     1      33.122 -13.061 -22.753  0.00  0.00    -0.005 C 
ATOM     21  C   UNL     1      32.668 -11.717 -22.871  0.00  0.00    +0.011 C 
ATOM     22  C   UNL     1      31.731 -11.510 -21.857  0.00  0.00    +0.048 C 
ATOM     23  C   UNL     1      32.464 -13.632 -21.689  0.00  0.00    +0.058 C 
ATOM     24  C   UNL     1      32.965 -10.654 -23.746  0.00  0.00    +0.001 C 
ATOM     25  C   UNL     1      31.073 -10.289 -21.674  0.00  0.00    +0.015 C 
ATOM     26  C   UNL     1      32.315  -9.426 -23.575  0.00  0.00    +0.000 C 
ATOM     27  C   UNL     1      31.384  -9.249 -22.553  0.00  0.00    +0.001 C 
ATOM     28  H   UNL     1      31.036 -12.836 -20.381  0.00  0.00    +0.152 HD
ENDBRANCH  18  20
ENDBRANCH  17  18
ENDBRANCH   1  17
TORSDOF 6
ENDMDL
MODEL 8
REMARK VINA RESULT:     -10.7      2.487     10.127
REMARK  Name = 11609586
REMARK  6 active torsions:
REMARK  status: ('A' for Active; 'I' for Inactive)
REMARK    1  A    between atoms: N_1  and  C_3
REMARK    2  A    between atoms: N_1  and  C_17
REMARK    3  A    between atoms: C_6  and  N_9
REMARK    4  A    between atoms: N_9  and  C_12
REMARK    5  A    between atoms: C_17  and  C_18
REMARK    6  A    between atoms: C_18  and  C_20
REMARK                            x       y       z     vdW  Elec       q    Type
REMARK                         _______ _______ _______ _____ _____    ______ ____
ROOT
ATOM      1  N   UNL     1      33.400 -23.119 -18.093  0.00  0.00    -0.332 N 
ATOM      2  H   UNL     1      33.110 -23.940 -18.553  0.00  0.00    +0.147 HD
ENDROOT
BRANCH   1   3
ATOM      3  C   UNL     1      33.946 -22.099 -18.861  0.00  0.00    +0.045 C 
ATOM      4  C   UNL     1      33.120 -21.146 -19.483  0.00  0.00    +0.016 C 
ATOM      5  C   UNL     1      35.338 -21.995 -19.035  0.00  0.00    +0.016 C 
ATOM      6  C   UNL     1      35.052 -20.033 -20.415  0.00  0.00    +0.048 C 
ATOM      7  C   UNL     1      33.670 -20.122 -20.255  0.00  0.00    +0.016 C 
ATOM      8  C   UNL     1      35.887 -20.971 -19.805  0.00  0.00    +0.016 C 
BRANCH   6   9
ATOM      9  N   UNL     1      35.606 -18.997 -21.194  0.00  0.00    -0.312 N 
ATOM     10  H   UNL     1      36.462 -18.655 -20.848  0.00  0.00    +0.152 HD
BRANCH   9  12
ATOM     11  N   UNL     1      34.319 -17.073 -24.705  0.00  0.00    -0.242 NA
ATOM     12  C   UNL     1      35.175 -18.352 -22.370  0.00  0.00    +0.051 C 
ATOM     13  C   UNL     1      35.348 -16.981 -22.519  0.00  0.00    +0.035 C 
ATOM     14  C   UNL     1      34.573 -19.085 -23.389  0.00  0.00    +0.035 C 
ATOM     15  C   UNL     1      34.907 -16.393 -23.694  0.00  0.00    +0.100 C 
ATOM     16  C   UNL     1      34.168 -18.404 -24.525  0.00  0.00    +0.100 C 
ENDBRANCH   9  12
ENDBRANCH   6   9
ENDBRANCH   1   3
BRANCH   1  17
ATOM     17  C   UNL     1      33.233 -23.047 -16.667  0.00  0.00    +0.092 C 
BRANCH  17  18
ATOM     18  C   UNL     1      34.565 -23.221 -15.916  0.00  0.00    +0.049 C 
BRANCH  18  20
ATOM     19  N   UNL     1      33.559 -24.729 -12.746  0.00  0.00    -0.312 N 
ATOM     20  C   UNL     1      34.420 -23.762 -14.549  0.00  0.00    -0.005 C 
ATOM     21  C   UNL     1      35.408 -23.754 -13.525  0.00  0.00    +0.011 C 
ATOM     22  C   UNL     1      34.842 -24.366 -12.404  0.00  0.00    +0.048 C 
ATOM     23  C   UNL     1      33.295 -24.368 -14.040  0.00  0.00    +0.058 C 
ATOM     24  C   UNL     1      36.733 -23.284 -13.443  0.00  0.00    +0.001 C 
ATOM     25  C   UNL     1      35.538 -24.532 -11.202  0.00  0.00    +0.015 C 
ATOM     26  C   UNL     1      37.442 -23.442 -12.246  0.00  0.00    +0.000 C 
ATOM     27  C   UNL     1      36.851 -24.058 -11.144  0.00  0.00    +0.001 C 
ATOM     28  H   UNL     1      32.922 -25.181 -12.147  0.00  0.00    +0.152 HD
ENDBRANCH  18  20
ENDBRANCH  17  18
ENDBRANCH   1  17
TORSDOF 6
ENDMDL
MODEL 9
REMARK VINA RESULT:     -10.7      2.312      4.984
REMARK  Name = 11609586
REMARK  6 active torsions:
REMARK  status: ('A' for Active; 'I' for Inactive)
REMARK    1  A    between atoms: N_1  and  C_3
REMARK    2  A    between atoms: N_1  and  C_17
REMARK    3  A    between atoms: C_6  and  N_9
REMARK    4  A    between atoms: N_9  and  C_12
REMARK    5  A    between atoms: C_17  and  C_18
REMARK    6  A    between atoms: C_18  and  C_20
REMARK                            x       y       z     vdW  Elec       q    Type
REMARK                         _______ _______ _______ _____ _____    ______ ____
ROOT
ATOM      1  N   UNL     1      34.394 -14.003 -23.097  0.00  0.00    -0.332 N 
ATOM      2  H   UNL     1      35.129 -13.351 -23.173  0.00  0.00    +0.147 HD
ENDROOT
BRANCH   1   3
ATOM      3  C   UNL     1      34.708 -15.293 -22.692  0.00  0.00    +0.045 C 
ATOM      4  C   UNL     1      34.839 -16.331 -23.632  0.00  0.00    +0.016 C 
ATOM      5  C   UNL     1      34.901 -15.593 -21.331  0.00  0.00    +0.016 C 
ATOM      6  C   UNL     1      35.343 -17.906 -21.870  0.00  0.00    +0.048 C 
ATOM      7  C   UNL     1      35.153 -17.627 -23.224  0.00  0.00    +0.016 C 
ATOM      8  C   UNL     1      35.217 -16.889 -20.924  0.00  0.00    +0.016 C 
BRANCH   6   9
ATOM      9  N   UNL     1      35.663 -19.217 -21.459  0.00  0.00    -0.312 N 
ATOM     10  H   UNL     1      36.459 -19.588 -21.903  0.00  0.00    +0.152 HD
BRANCH   9  12
ATOM     11  N   UNL     1      33.880 -21.851 -18.708  0.00  0.00    -0.242 NA
ATOM     12  C   UNL     1      35.066 -20.099 -20.538  0.00  0.00    +0.051 C 
ATOM     13  C   UNL     1      33.681 -20.171 -20.436  0.00  0.00    +0.035 C 
ATOM     14  C   UNL     1      35.859 -20.903 -19.724  0.00  0.00    +0.035 C 
ATOM     15  C   UNL     1      33.142 -21.055 -19.514  0.00  0.00    +0.100 C 
ATOM     16  C   UNL     1      35.223 -21.754 -18.836  0.00  0.00    +0.100 C 
ENDBRANCH   9  12
ENDBRANCH   6   9
ENDBRANCH   1   3
BRANCH   1  17
ATOM     17  C   UNL     1      33.063 -13.562 -23.412  0.00  0.00    +0.092 C 
BRANCH  17  18
ATOM     18  C   UNL     1      32.288 -13.116 -22.159  0.00  0.00    +0.049 C 
BRANCH  18  20
ATOM     19  N   UNL     1      32.161  -9.478 -22.449  0.00  0.00    -0.312 N 
ATOM     20  C   UNL     1      32.200 -11.651 -21.996  0.00  0.00    -0.005 C 
ATOM     21  C   UNL     1      32.007 -10.944 -20.775  0.00  0.00    +0.011 C 
ATOM     22  C   UNL     1      31.987  -9.583 -21.088  0.00  0.00    +0.048 C 
ATOM     23  C   UNL     1      32.291 -10.722 -23.006  0.00  0.00    +0.058 C 
ATOM     24  C   UNL     1      31.847 -11.333 -19.431  0.00  0.00    +0.001 C 
ATOM     25  C   UNL     1      31.814  -8.588 -20.119  0.00  0.00    +0.015 C 
ATOM     26  C   UNL     1      31.673 -10.348 -18.451  0.00  0.00    +0.000 C 
ATOM     27  C   UNL     1      31.657  -8.997 -18.793  0.00  0.00    +0.001 C 
ATOM     28  H   UNL     1      32.190  -8.631 -22.951  0.00  0.00    +0.152 HD
ENDBRANCH  18  20
ENDBRANCH  17  18
ENDBRANCH   1  17
TORSDOF 6
ENDMDL
