MODEL 1
REMARK VINA RESULT:     -13.5      0.000      0.000
REMARK  Name = 11167118
REMARK  6 active torsions:
REMARK  status: ('A' for Active; 'I' for Inactive)
REMARK    1  A    between atoms: N_2  and  C_6
REMARK    2  A    between atoms: N_2  and  C_15
REMARK    3  A    between atoms: C_8  and  O_25
REMARK    4  A    between atoms: C_17  and  C_24
REMARK    5  A    between atoms: O_25  and  C_27
REMARK    6  A    between atoms: C_30  and  C_34
REMARK                            x       y       z     vdW  Elec       q    Type
REMARK                         _______ _______ _______ _____ _____    ______ ____
ROOT
ATOM      1  N   UNL     1      33.423 -21.429 -19.603  0.00  0.00    -0.302 N 
ATOM      2  N   UNL     1      35.197 -22.420 -18.704  0.00  0.00    -0.302 N 
ATOM      3  C   UNL     1      34.505 -20.706 -20.036  0.00  0.00    +0.063 C 
ATOM      4  C   UNL     1      35.600 -21.345 -19.460  0.00  0.00    +0.060 C 
ATOM      5  C   UNL     1      33.887 -22.442 -18.811  0.00  0.00    +0.225 C 
ATOM      6  C   UNL     1      34.618 -19.581 -20.855  0.00  0.00    +0.053 C 
ATOM      7  C   UNL     1      35.909 -19.100 -21.090  0.00  0.00    +0.147 C 
ATOM      8  C   UNL     1      36.891 -20.847 -19.706  0.00  0.00    +0.019 C 
ATOM      9  C   UNL     1      37.027 -19.720 -20.527  0.00  0.00    +0.039 C 
ATOM     10  H   UNL     1      32.481 -21.250 -19.825  0.00  0.00    +0.150 HD
ATOM     11  H   UNL     1      35.765 -23.041 -18.192  0.00  0.00    +0.150 HD
ENDROOT
BRANCH   5  12
ATOM     12  N   UNL     1      32.989 -23.293 -18.269  0.00  0.00    -0.303 N 
ATOM     13  H   UNL     1      32.632 -23.969 -18.889  0.00  0.00    +0.150 HD
BRANCH  12  15
ATOM     14 CL   UNL     1      30.892 -23.610 -12.735  0.00  0.00    -0.082 Cl
ATOM     15  C   UNL     1      32.475 -23.367 -16.943  0.00  0.00    +0.047 C 
ATOM     16  C   UNL     1      31.116 -23.196 -16.725  0.00  0.00    +0.019 C 
ATOM     17  C   UNL     1      30.613 -23.270 -15.425  0.00  0.00    +0.083 C 
ATOM     18  C   UNL     1      33.343 -23.609 -15.887  0.00  0.00    +0.015 C 
ATOM     19  C   UNL     1      31.476 -23.512 -14.356  0.00  0.00    +0.062 C 
ATOM     20  C   UNL     1      32.842 -23.681 -14.587  0.00  0.00    +0.013 C 
BRANCH  17  24
ATOM     21  F   UNL     1      28.874 -22.096 -14.333  0.00  0.00    -0.166 F 
ATOM     22  F   UNL     1      28.501 -22.761 -16.368  0.00  0.00    -0.166 F 
ATOM     23  F   UNL     1      28.571 -24.215 -14.746  0.00  0.00    -0.166 F 
ATOM     24  C   UNL     1      29.144 -23.083 -15.221  0.00  0.00    +0.419 C 
ENDBRANCH  17  24
ENDBRANCH  12  15
ENDBRANCH   5  12
BRANCH   7  25
ATOM     25  O   UNL     1      36.079 -18.004 -21.883  0.00  0.00    -0.453 OA
BRANCH  25  27
ATOM     26  N   UNL     1      33.460 -17.505 -25.070  0.00  0.00    -0.239 NA
ATOM     27  C   UNL     1      35.207 -17.838 -22.944  0.00  0.00    +0.149 C 
ATOM     28  C   UNL     1      34.908 -16.564 -23.378  0.00  0.00    +0.061 C 
ATOM     29  C   UNL     1      34.657 -18.949 -23.545  0.00  0.00    +0.058 C 
ATOM     30  C   UNL     1      34.029 -16.451 -24.444  0.00  0.00    +0.137 C 
ATOM     31  C   UNL     1      33.789 -18.731 -24.603  0.00  0.00    +0.102 C 
BRANCH  30  34
ATOM     32  O   UNL     1      33.350 -14.996 -26.152  0.00  0.00    -0.268 OA
ATOM     33  N   UNL     1      33.665 -14.078 -24.047  0.00  0.00    -0.298 N 
ATOM     34  C   UNL     1      33.665 -15.142 -24.957  0.00  0.00    +0.264 C 
ATOM     35  C   UNL     1      33.305 -12.723 -24.399  0.00  0.00    +0.111 C 
ATOM     36  H   UNL     1      33.925 -14.263 -23.115  0.00  0.00    +0.150 HD
ENDBRANCH  30  34
ENDBRANCH  25  27
ENDBRANCH   7  25
TORSDOF 6
ENDMDL
MODEL 2
REMARK VINA RESULT:     -13.3      1.527      1.997
REMARK  Name = 11167118
REMARK  6 active torsions:
REMARK  status: ('A' for Active; 'I' for Inactive)
REMARK    1  A    between atoms: N_2  and  C_6
REMARK    2  A    between atoms: N_2  and  C_15
REMARK    3  A    between atoms: C_8  and  O_25
REMARK    4  A    between atoms: C_17  and  C_24
REMARK    5  A    between atoms: O_25  and  C_27
REMARK    6  A    between atoms: C_30  and  C_34
REMARK                            x       y       z     vdW  Elec       q    Type
REMARK                         _______ _______ _______ _____ _____    ______ ____
ROOT
ATOM      1  N   UNL     1      33.530 -21.423 -19.899  0.00  0.00    -0.302 N 
ATOM      2  N   UNL     1      35.453 -21.991 -18.939  0.00  0.00    -0.302 N 
ATOM      3  C   UNL     1      34.461 -20.549 -20.399  0.00  0.00    +0.063 C 
ATOM      4  C   UNL     1      35.653 -20.924 -19.784  0.00  0.00    +0.060 C 
ATOM      5  C   UNL     1      34.170 -22.265 -19.033  0.00  0.00    +0.225 C 
ATOM      6  C   UNL     1      34.367 -19.493 -21.308  0.00  0.00    +0.053 C 
ATOM      7  C   UNL     1      35.547 -18.801 -21.592  0.00  0.00    +0.147 C 
ATOM      8  C   UNL     1      36.829 -20.216 -20.081  0.00  0.00    +0.019 C 
ATOM      9  C   UNL     1      36.758 -19.154 -20.991  0.00  0.00    +0.039 C 
ATOM     10  H   UNL     1      32.572 -21.441 -20.125  0.00  0.00    +0.150 HD
ATOM     11  H   UNL     1      36.123 -22.451 -18.384  0.00  0.00    +0.150 HD
ENDROOT
BRANCH   5  12
ATOM     12  N   UNL     1      33.443 -23.221 -18.414  0.00  0.00    -0.303 N 
ATOM     13  H   UNL     1      33.206 -23.991 -18.980  0.00  0.00    +0.150 HD
BRANCH  12  15
ATOM     14 CL   UNL     1      31.489 -23.523 -12.828  0.00  0.00    -0.082 Cl
ATOM     15  C   UNL     1      32.964 -23.292 -17.076  0.00  0.00    +0.047 C 
ATOM     16  C   UNL     1      31.601 -23.200 -16.830  0.00  0.00    +0.019 C 
ATOM     17  C   UNL     1      31.132 -23.270 -15.518  0.00  0.00    +0.083 C 
ATOM     18  C   UNL     1      33.868 -23.453 -16.035  0.00  0.00    +0.015 C 
ATOM     19  C   UNL     1      32.032 -23.431 -14.464  0.00  0.00    +0.062 C 
ATOM     20  C   UNL     1      33.400 -23.522 -14.722  0.00  0.00    +0.013 C 
BRANCH  17  24
ATOM     21  F   UNL     1      29.139 -24.325 -14.806  0.00  0.00    -0.166 F 
ATOM     22  F   UNL     1      29.345 -22.201 -14.390  0.00  0.00    -0.166 F 
ATOM     23  F   UNL     1      29.003 -22.879 -16.433  0.00  0.00    -0.166 F 
ATOM     24  C   UNL     1      29.660 -23.169 -15.284  0.00  0.00    +0.419 C 
ENDBRANCH  17  24
ENDBRANCH  12  15
ENDBRANCH   5  12
BRANCH   7  25
ATOM     25  O   UNL     1      35.515 -17.760 -22.472  0.00  0.00    -0.453 OA
BRANCH  25  27
ATOM     26  N   UNL     1      33.980 -14.141 -21.124  0.00  0.00    -0.239 NA
ATOM     27  C   UNL     1      35.004 -16.555 -22.023  0.00  0.00    +0.149 C 
ATOM     28  C   UNL     1      34.617 -15.602 -22.942  0.00  0.00    +0.061 C 
ATOM     29  C   UNL     1      34.892 -16.333 -20.668  0.00  0.00    +0.058 C 
ATOM     30  C   UNL     1      34.111 -14.413 -22.442  0.00  0.00    +0.137 C 
ATOM     31  C   UNL     1      34.375 -15.111 -20.268  0.00  0.00    +0.102 C 
BRANCH  30  34
ATOM     32  O   UNL     1      33.687 -13.545 -24.578  0.00  0.00    -0.268 OA
ATOM     33  N   UNL     1      33.249 -12.162 -22.771  0.00  0.00    -0.298 N 
ATOM     34  C   UNL     1      33.682 -13.361 -23.348  0.00  0.00    +0.264 C 
ATOM     35  C   UNL     1      32.772 -11.032 -23.536  0.00  0.00    +0.111 C 
ATOM     36  H   UNL     1      33.272 -12.082 -21.789  0.00  0.00    +0.150 HD
ENDBRANCH  30  34
ENDBRANCH  25  27
ENDBRANCH   7  25
TORSDOF 6
ENDMDL
MODEL 3
REMARK VINA RESULT:     -13.2      5.505     10.348
REMARK  Name = 11167118
REMARK  6 active torsions:
REMARK  status: ('A' for Active; 'I' for Inactive)
REMARK    1  A    between atoms: N_2  and  C_6
REMARK    2  A    between atoms: N_2  and  C_15
REMARK    3  A    between atoms: C_8  and  O_25
REMARK    4  A    between atoms: C_17  and  C_24
REMARK    5  A    between atoms: O_25  and  C_27
REMARK    6  A    between atoms: C_30  and  C_34
REMARK                            x       y       z     vdW  Elec       q    Type
REMARK                         _______ _______ _______ _____ _____    ______ ____
ROOT
ATOM      1  N   UNL     1      34.470 -19.510 -21.191  0.00  0.00    -0.302 N 
ATOM      2  N   UNL     1      36.541 -19.903 -20.488  0.00  0.00    -0.302 N 
ATOM      3  C   UNL     1      34.358 -20.521 -20.271  0.00  0.00    +0.063 C 
ATOM      4  C   UNL     1      35.665 -20.748 -19.847  0.00  0.00    +0.060 C 
ATOM      5  C   UNL     1      35.791 -19.175 -21.286  0.00  0.00    +0.225 C 
ATOM      6  C   UNL     1      33.261 -21.235 -19.787  0.00  0.00    +0.053 C 
ATOM      7  C   UNL     1      33.523 -22.220 -18.830  0.00  0.00    +0.147 C 
ATOM      8  C   UNL     1      35.910 -21.742 -18.884  0.00  0.00    +0.019 C 
ATOM      9  C   UNL     1      34.823 -22.470 -18.385  0.00  0.00    +0.039 C 
ATOM     10  H   UNL     1      33.729 -19.100 -21.693  0.00  0.00    +0.150 HD
ATOM     11  H   UNL     1      37.518 -19.853 -20.375  0.00  0.00    +0.150 HD
ENDROOT
BRANCH   5  12
ATOM     12  N   UNL     1      36.142 -18.191 -22.142  0.00  0.00    -0.303 N 
ATOM     13  H   UNL     1      37.105 -18.138 -22.339  0.00  0.00    +0.150 HD
BRANCH  12  15
ATOM     14 CL   UNL     1      32.809 -14.165 -24.934  0.00  0.00    -0.082 Cl
ATOM     15  C   UNL     1      35.341 -17.218 -22.804  0.00  0.00    +0.047 C 
ATOM     16  C   UNL     1      34.998 -16.048 -22.141  0.00  0.00    +0.019 C 
ATOM     17  C   UNL     1      34.213 -15.094 -22.791  0.00  0.00    +0.083 C 
ATOM     18  C   UNL     1      34.916 -17.453 -24.104  0.00  0.00    +0.015 C 
ATOM     19  C   UNL     1      33.780 -15.321 -24.098  0.00  0.00    +0.062 C 
ATOM     20  C   UNL     1      34.131 -16.501 -24.754  0.00  0.00    +0.013 C 
BRANCH  17  24
ATOM     21  F   UNL     1      34.278 -12.732 -22.704  0.00  0.00    -0.166 F 
ATOM     22  F   UNL     1      32.523 -13.711 -21.875  0.00  0.00    -0.166 F 
ATOM     23  F   UNL     1      34.429 -13.826 -20.824  0.00  0.00    -0.166 F 
ATOM     24  C   UNL     1      33.860 -13.844 -22.053  0.00  0.00    +0.419 C 
ENDBRANCH  17  24
ENDBRANCH  12  15
ENDBRANCH   5  12
BRANCH   7  25
ATOM     25  O   UNL     1      32.489 -22.949 -18.322  0.00  0.00    -0.453 OA
BRANCH  25  27
ATOM     26  N   UNL     1      32.425 -23.604 -14.219  0.00  0.00    -0.239 NA
ATOM     27  C   UNL     1      32.467 -23.167 -16.956  0.00  0.00    +0.149 C 
ATOM     28  C   UNL     1      33.614 -23.599 -16.324  0.00  0.00    +0.061 C 
ATOM     29  C   UNL     1      31.301 -22.947 -16.256  0.00  0.00    +0.058 C 
ATOM     30  C   UNL     1      33.541 -23.803 -14.955  0.00  0.00    +0.137 C 
ATOM     31  C   UNL     1      31.330 -23.180 -14.890  0.00  0.00    +0.102 C 
BRANCH  30  34
ATOM     32  O   UNL     1      35.390 -25.210 -14.640  0.00  0.00    -0.268 OA
ATOM     33  N   UNL     1      35.032 -23.564 -13.047  0.00  0.00    -0.298 N 
ATOM     34  C   UNL     1      34.708 -24.258 -14.219  0.00  0.00    +0.264 C 
ATOM     35  C   UNL     1      36.174 -23.881 -12.219  0.00  0.00    +0.111 C 
ATOM     36  H   UNL     1      34.450 -22.819 -12.771  0.00  0.00    +0.150 HD
ENDBRANCH  30  34
ENDBRANCH  25  27
ENDBRANCH   7  25
TORSDOF 6
ENDMDL
MODEL 4
REMARK VINA RESULT:     -13.1      5.733     10.064
REMARK  Name = 11167118
REMARK  6 active torsions:
REMARK  status: ('A' for Active; 'I' for Inactive)
REMARK    1  A    between atoms: N_2  and  C_6
REMARK    2  A    between atoms: N_2  and  C_15
REMARK    3  A    between atoms: C_8  and  O_25
REMARK    4  A    between atoms: C_17  and  C_24
REMARK    5  A    between atoms: O_25  and  C_27
REMARK    6  A    between atoms: C_30  and  C_34
REMARK                            x       y       z     vdW  Elec       q    Type
REMARK                         _______ _______ _______ _____ _____    ______ ____
ROOT
ATOM      1  N   UNL     1      34.660 -19.519 -21.184  0.00  0.00    -0.302 N 
ATOM      2  N   UNL     1      36.744 -19.258 -20.457  0.00  0.00    -0.302 N 
ATOM      3  C   UNL     1      34.871 -20.546 -20.301  0.00  0.00    +0.063 C 
ATOM      4  C   UNL     1      36.179 -20.361 -19.861  0.00  0.00    +0.060 C 
ATOM      5  C   UNL     1      35.807 -18.776 -21.244  0.00  0.00    +0.225 C 
ATOM      6  C   UNL     1      34.056 -21.591 -19.862  0.00  0.00    +0.053 C 
ATOM      7  C   UNL     1      34.612 -22.476 -18.934  0.00  0.00    +0.147 C 
ATOM      8  C   UNL     1      36.722 -21.261 -18.929  0.00  0.00    +0.019 C 
ATOM      9  C   UNL     1      35.921 -22.316 -18.474  0.00  0.00    +0.039 C 
ATOM     10  H   UNL     1      33.831 -19.347 -21.686  0.00  0.00    +0.150 HD
ATOM     11  H   UNL     1      37.653 -18.903 -20.324  0.00  0.00    +0.150 HD
ENDROOT
BRANCH   5  12
ATOM     12  N   UNL     1      35.830 -17.700 -22.059  0.00  0.00    -0.303 N 
ATOM     13  H   UNL     1      36.461 -17.765 -22.813  0.00  0.00    +0.150 HD
BRANCH  12  15
ATOM     14 CL   UNL     1      32.745 -12.648 -21.782  0.00  0.00    -0.082 Cl
ATOM     15  C   UNL     1      35.089 -16.486 -22.003  0.00  0.00    +0.047 C 
ATOM     16  C   UNL     1      34.691 -15.871 -23.182  0.00  0.00    +0.019 C 
ATOM     17  C   UNL     1      33.965 -14.682 -23.126  0.00  0.00    +0.083 C 
ATOM     18  C   UNL     1      34.774 -15.934 -20.768  0.00  0.00    +0.015 C 
ATOM     19  C   UNL     1      33.643 -14.118 -21.890  0.00  0.00    +0.062 C 
ATOM     20  C   UNL     1      34.048 -14.744 -20.712  0.00  0.00    +0.013 C 
BRANCH  17  24
ATOM     21  F   UNL     1      33.914 -14.779 -25.488  0.00  0.00    -0.166 F 
ATOM     22  F   UNL     1      32.207 -13.873 -24.493  0.00  0.00    -0.166 F 
ATOM     23  F   UNL     1      34.115 -12.820 -24.553  0.00  0.00    -0.166 F 
ATOM     24  C   UNL     1      33.549 -14.043 -24.411  0.00  0.00    +0.419 C 
ENDBRANCH  17  24
ENDBRANCH  12  15
ENDBRANCH   5  12
BRANCH   7  25
ATOM     25  O   UNL     1      33.862 -23.516 -18.470  0.00  0.00    -0.453 OA
BRANCH  25  27
ATOM     26  N   UNL     1      32.353 -23.233 -14.609  0.00  0.00    -0.239 NA
ATOM     27  C   UNL     1      33.360 -23.422 -17.185  0.00  0.00    +0.149 C 
ATOM     28  C   UNL     1      32.002 -23.267 -17.001  0.00  0.00    +0.061 C 
ATOM     29  C   UNL     1      34.227 -23.486 -16.115  0.00  0.00    +0.058 C 
ATOM     30  C   UNL     1      31.549 -23.177 -15.694  0.00  0.00    +0.137 C 
ATOM     31  C   UNL     1      33.675 -23.387 -14.848  0.00  0.00    +0.102 C 
BRANCH  30  34
ATOM     32  O   UNL     1      29.731 -22.812 -14.259  0.00  0.00    -0.268 OA
ATOM     33  N   UNL     1      29.261 -23.065 -16.515  0.00  0.00    -0.298 N 
ATOM     34  C   UNL     1      30.132 -23.012 -15.420  0.00  0.00    +0.264 C 
ATOM     35  C   UNL     1      27.829 -22.897 -16.408  0.00  0.00    +0.111 C 
ATOM     36  H   UNL     1      29.645 -23.228 -17.408  0.00  0.00    +0.150 HD
ENDBRANCH  30  34
ENDBRANCH  25  27
ENDBRANCH   7  25
TORSDOF 6
ENDMDL
MODEL 5
REMARK VINA RESULT:     -13.1      3.759      4.511
REMARK  Name = 11167118
REMARK  6 active torsions:
REMARK  status: ('A' for Active; 'I' for Inactive)
REMARK    1  A    between atoms: N_2  and  C_6
REMARK    2  A    between atoms: N_2  and  C_15
REMARK    3  A    between atoms: C_8  and  O_25
REMARK    4  A    between atoms: C_17  and  C_24
REMARK    5  A    between atoms: O_25  and  C_27
REMARK    6  A    between atoms: C_30  and  C_34
REMARK                            x       y       z     vdW  Elec       q    Type
REMARK                         _______ _______ _______ _____ _____    ______ ____
ROOT
ATOM      1  N   UNL     1      35.017 -22.766 -17.751  0.00  0.00    -0.302 N 
ATOM      2  N   UNL     1      32.805 -22.639 -17.931  0.00  0.00    -0.302 N 
ATOM      3  C   UNL     1      34.783 -21.891 -18.780  0.00  0.00    +0.063 C 
ATOM      4  C   UNL     1      33.395 -21.830 -18.873  0.00  0.00    +0.060 C 
ATOM      5  C   UNL     1      33.805 -23.186 -17.276  0.00  0.00    +0.225 C 
ATOM      6  C   UNL     1      35.640 -21.170 -19.614  0.00  0.00    +0.053 C 
ATOM      7  C   UNL     1      35.041 -20.355 -20.578  0.00  0.00    +0.147 C 
ATOM      8  C   UNL     1      32.810 -21.005 -19.849  0.00  0.00    +0.019 C 
ATOM      9  C   UNL     1      33.652 -20.272 -20.696  0.00  0.00    +0.039 C 
ATOM     10  H   UNL     1      35.900 -23.042 -17.414  0.00  0.00    +0.150 HD
ATOM     11  H   UNL     1      31.843 -22.781 -17.780  0.00  0.00    +0.150 HD
ENDROOT
BRANCH   5  12
ATOM     12  N   UNL     1      33.790 -24.062 -16.248  0.00  0.00    -0.303 N 
ATOM     13  H   UNL     1      32.990 -24.635 -16.204  0.00  0.00    +0.150 HD
BRANCH  12  15
ATOM     14 CL   UNL     1      37.757 -24.969 -11.940  0.00  0.00    -0.082 Cl
ATOM     15  C   UNL     1      34.745 -24.289 -15.217  0.00  0.00    +0.047 C 
ATOM     16  C   UNL     1      35.492 -25.459 -15.221  0.00  0.00    +0.019 C 
ATOM     17  C   UNL     1      36.429 -25.681 -14.212  0.00  0.00    +0.083 C 
ATOM     18  C   UNL     1      34.915 -23.337 -14.221  0.00  0.00    +0.015 C 
ATOM     19  C   UNL     1      36.608 -24.730 -13.206  0.00  0.00    +0.062 C 
ATOM     20  C   UNL     1      35.851 -23.558 -13.211  0.00  0.00    +0.013 C 
BRANCH  17  24
ATOM     21  F   UNL     1      38.549 -26.717 -14.357  0.00  0.00    -0.166 F 
ATOM     22  F   UNL     1      37.048 -27.690 -13.122  0.00  0.00    -0.166 F 
ATOM     23  F   UNL     1      36.856 -27.723 -15.293  0.00  0.00    -0.166 F 
ATOM     24  C   UNL     1      37.219 -26.948 -14.243  0.00  0.00    +0.419 C 
ENDBRANCH  17  24
ENDBRANCH  12  15
ENDBRANCH   5  12
BRANCH   7  25
ATOM     25  O   UNL     1      35.829 -19.628 -21.421  0.00  0.00    -0.453 OA
BRANCH  25  27
ATOM     26  N   UNL     1      34.007 -17.832 -24.695  0.00  0.00    -0.239 NA
ATOM     27  C   UNL     1      35.223 -19.030 -22.511  0.00  0.00    +0.149 C 
ATOM     28  C   UNL     1      35.146 -17.654 -22.570  0.00  0.00    +0.061 C 
ATOM     29  C   UNL     1      34.708 -19.822 -23.515  0.00  0.00    +0.058 C 
ATOM     30  C   UNL     1      34.529 -17.104 -23.682  0.00  0.00    +0.137 C 
ATOM     31  C   UNL     1      34.110 -19.176 -24.585  0.00  0.00    +0.102 C 
BRANCH  30  34
ATOM     32  O   UNL     1      35.015 -14.903 -23.038  0.00  0.00    -0.268 OA
ATOM     33  N   UNL     1      33.614 -15.184 -24.863  0.00  0.00    -0.298 N 
ATOM     34  C   UNL     1      34.410 -15.663 -23.816  0.00  0.00    +0.264 C 
ATOM     35  C   UNL     1      33.415 -13.778 -25.139  0.00  0.00    +0.111 C 
ATOM     36  H   UNL     1      33.163 -15.840 -25.442  0.00  0.00    +0.150 HD
ENDBRANCH  30  34
ENDBRANCH  25  27
ENDBRANCH   7  25
TORSDOF 6
ENDMDL
MODEL 6
REMARK VINA RESULT:     -13.0      5.745     10.471
REMARK  Name = 11167118
REMARK  6 active torsions:
REMARK  status: ('A' for Active; 'I' for Inactive)
REMARK    1  A    between atoms: N_2  and  C_6
REMARK    2  A    between atoms: N_2  and  C_15
REMARK    3  A    between atoms: C_8  and  O_25
REMARK    4  A    between atoms: C_17  and  C_24
REMARK    5  A    between atoms: O_25  and  C_27
REMARK    6  A    between atoms: C_30  and  C_34
REMARK                            x       y       z     vdW  Elec       q    Type
REMARK                         _______ _______ _______ _____ _____    ______ ____
ROOT
ATOM      1  N   UNL     1      34.405 -19.482 -21.112  0.00  0.00    -0.302 N 
ATOM      2  N   UNL     1      36.530 -19.470 -20.463  0.00  0.00    -0.302 N 
ATOM      3  C   UNL     1      34.530 -20.542 -20.252  0.00  0.00    +0.063 C 
ATOM      4  C   UNL     1      35.866 -20.513 -19.861  0.00  0.00    +0.060 C 
ATOM      5  C   UNL     1      35.624 -18.872 -21.206  0.00  0.00    +0.225 C 
ATOM      6  C   UNL     1      33.619 -21.496 -19.795  0.00  0.00    +0.053 C 
ATOM      7  C   UNL     1      34.106 -22.454 -18.901  0.00  0.00    +0.147 C 
ATOM      8  C   UNL     1      36.338 -21.484 -18.961  0.00  0.00    +0.019 C 
ATOM      9  C   UNL     1      35.441 -22.451 -18.490  0.00  0.00    +0.039 C 
ATOM     10  H   UNL     1      33.582 -19.209 -21.579  0.00  0.00    +0.150 HD
ATOM     11  H   UNL     1      37.477 -19.222 -20.361  0.00  0.00    +0.150 HD
ENDROOT
BRANCH   5  12
ATOM     12  N   UNL     1      35.740 -17.791 -22.008  0.00  0.00    -0.303 N 
ATOM     13  H   UNL     1      36.409 -17.877 -22.725  0.00  0.00    +0.150 HD
BRANCH  12  15
ATOM     14 CL   UNL     1      32.859 -12.615 -21.853  0.00  0.00    -0.082 Cl
ATOM     15  C   UNL     1      35.048 -16.547 -21.981  0.00  0.00    +0.047 C 
ATOM     16  C   UNL     1      34.657 -15.955 -23.174  0.00  0.00    +0.019 C 
ATOM     17  C   UNL     1      33.978 -14.737 -23.147  0.00  0.00    +0.083 C 
ATOM     18  C   UNL     1      34.773 -15.945 -20.761  0.00  0.00    +0.015 C 
ATOM     19  C   UNL     1      33.697 -14.122 -21.926  0.00  0.00    +0.062 C 
ATOM     20  C   UNL     1      34.095 -14.725 -20.733  0.00  0.00    +0.013 C 
BRANCH  17  24
ATOM     21  F   UNL     1      34.153 -12.917 -24.647  0.00  0.00    -0.166 F 
ATOM     22  F   UNL     1      33.900 -14.896 -25.509  0.00  0.00    -0.166 F 
ATOM     23  F   UNL     1      32.229 -13.932 -24.495  0.00  0.00    -0.166 F 
ATOM     24  C   UNL     1      33.569 -14.123 -24.446  0.00  0.00    +0.419 C 
ENDBRANCH  17  24
ENDBRANCH  12  15
ENDBRANCH   5  12
BRANCH   7  25
ATOM     25  O   UNL     1      33.260 -23.411 -18.423  0.00  0.00    -0.453 OA
BRANCH  25  27
ATOM     26  N   UNL     1      32.533 -23.468 -14.332  0.00  0.00    -0.239 NA
ATOM     27  C   UNL     1      33.018 -23.430 -17.061  0.00  0.00    +0.149 C 
ATOM     28  C   UNL     1      34.010 -23.861 -16.205  0.00  0.00    +0.061 C 
ATOM     29  C   UNL     1      31.791 -23.017 -16.587  0.00  0.00    +0.058 C 
ATOM     30  C   UNL     1      33.718 -23.862 -14.850  0.00  0.00    +0.137 C 
ATOM     31  C   UNL     1      31.597 -23.055 -15.216  0.00  0.00    +0.102 C 
BRANCH  30  34
ATOM     32  O   UNL     1      35.565 -25.152 -14.203  0.00  0.00    -0.268 OA
ATOM     33  N   UNL     1      34.674 -23.714 -12.618  0.00  0.00    -0.298 N 
ATOM     34  C   UNL     1      34.712 -24.303 -13.887  0.00  0.00    +0.264 C 
ATOM     35  C   UNL     1      35.608 -24.030 -11.560  0.00  0.00    +0.111 C 
ATOM     36  H   UNL     1      33.972 -23.048 -12.434  0.00  0.00    +0.150 HD
ENDBRANCH  30  34
ENDBRANCH  25  27
ENDBRANCH   7  25
TORSDOF 6
ENDMDL
MODEL 7
REMARK VINA RESULT:     -13.0      5.727     10.354
REMARK  Name = 11167118
REMARK  6 active torsions:
REMARK  status: ('A' for Active; 'I' for Inactive)
REMARK    1  A    between atoms: N_2  and  C_6
REMARK    2  A    between atoms: N_2  and  C_15
REMARK    3  A    between atoms: C_8  and  O_25
REMARK    4  A    between atoms: C_17  and  C_24
REMARK    5  A    between atoms: O_25  and  C_27
REMARK    6  A    between atoms: C_30  and  C_34
REMARK                            x       y       z     vdW  Elec       q    Type
REMARK                         _______ _______ _______ _____ _____    ______ ____
ROOT
ATOM      1  N   UNL     1      35.943 -19.988 -20.582  0.00  0.00    -0.302 N 
ATOM      2  N   UNL     1      33.845 -19.555 -21.173  0.00  0.00    -0.302 N 
ATOM      3  C   UNL     1      35.170 -20.846 -19.843  0.00  0.00    +0.063 C 
ATOM      4  C   UNL     1      33.864 -20.555 -20.230  0.00  0.00    +0.060 C 
ATOM      5  C   UNL     1      35.107 -19.237 -21.361  0.00  0.00    +0.225 C 
ATOM      6  C   UNL     1      35.490 -21.821 -18.897  0.00  0.00    +0.053 C 
ATOM      7  C   UNL     1      34.421 -22.523 -18.331  0.00  0.00    +0.147 C 
ATOM      8  C   UNL     1      32.803 -21.271 -19.650  0.00  0.00    +0.019 C 
ATOM      9  C   UNL     1      33.101 -22.255 -18.699  0.00  0.00    +0.039 C 
ATOM     10  H   UNL     1      36.925 -19.924 -20.556  0.00  0.00    +0.150 HD
ATOM     11  H   UNL     1      33.057 -19.160 -21.613  0.00  0.00    +0.150 HD
ENDROOT
BRANCH   5  12
ATOM     12  N   UNL     1      35.653 -18.314 -22.182  0.00  0.00    -0.303 N 
ATOM     13  H   UNL     1      36.635 -18.347 -22.246  0.00  0.00    +0.150 HD
BRANCH  12  15
ATOM     14 CL   UNL     1      33.080 -14.126 -25.492  0.00  0.00    -0.082 Cl
ATOM     15  C   UNL     1      35.036 -17.302 -22.969  0.00  0.00    +0.047 C 
ATOM     16  C   UNL     1      34.873 -16.028 -22.442  0.00  0.00    +0.019 C 
ATOM     17  C   UNL     1      34.268 -15.036 -23.214  0.00  0.00    +0.083 C 
ATOM     18  C   UNL     1      34.606 -17.603 -24.254  0.00  0.00    +0.015 C 
ATOM     19  C   UNL     1      33.832 -15.328 -24.507  0.00  0.00    +0.062 C 
ATOM     20  C   UNL     1      34.000 -16.611 -25.027  0.00  0.00    +0.013 C 
BRANCH  17  24
ATOM     21  F   UNL     1      34.560 -12.701 -23.447  0.00  0.00    -0.166 F 
ATOM     22  F   UNL     1      32.813 -13.381 -22.345  0.00  0.00    -0.166 F 
ATOM     23  F   UNL     1      34.796 -13.565 -21.458  0.00  0.00    -0.166 F 
ATOM     24  C   UNL     1      34.107 -13.674 -22.620  0.00  0.00    +0.419 C 
ENDBRANCH  17  24
ENDBRANCH  12  15
ENDBRANCH   5  12
BRANCH   7  25
ATOM     25  O   UNL     1      34.675 -23.488 -17.400  0.00  0.00    -0.453 OA
BRANCH  25  27
ATOM     26  N   UNL     1      32.216 -23.629 -14.053  0.00  0.00    -0.239 NA
ATOM     27  C   UNL     1      33.856 -23.535 -16.286  0.00  0.00    +0.149 C 
ATOM     28  C   UNL     1      32.492 -23.647 -16.455  0.00  0.00    +0.061 C 
ATOM     29  C   UNL     1      34.421 -23.470 -15.030  0.00  0.00    +0.058 C 
ATOM     30  C   UNL     1      31.716 -23.690 -15.308  0.00  0.00    +0.137 C 
ATOM     31  C   UNL     1      33.559 -23.520 -13.947  0.00  0.00    +0.102 C 
BRANCH  30  34
ATOM     32  O   UNL     1      29.641 -24.538 -14.620  0.00  0.00    -0.268 OA
ATOM     33  N   UNL     1      29.636 -23.049 -16.397  0.00  0.00    -0.298 N 
ATOM     34  C   UNL     1      30.271 -23.807 -15.406  0.00  0.00    +0.264 C 
ATOM     35  C   UNL     1      28.205 -23.040 -16.605  0.00  0.00    +0.111 C 
ATOM     36  H   UNL     1      30.195 -22.492 -16.986  0.00  0.00    +0.150 HD
ENDBRANCH  30  34
ENDBRANCH  25  27
ENDBRANCH   7  25
TORSDOF 6
ENDMDL
MODEL 8
REMARK VINA RESULT:     -12.8      5.973     10.893
REMARK  Name = 11167118
REMARK  6 active torsions:
REMARK  status: ('A' for Active; 'I' for Inactive)
REMARK    1  A    between atoms: N_2  and  C_6
REMARK    2  A    between atoms: N_2  and  C_15
REMARK    3  A    between atoms: C_8  and  O_25
REMARK    4  A    between atoms: C_17  and  C_24
REMARK    5  A    between atoms: O_25  and  C_27
REMARK    6  A    between atoms: C_30  and  C_34
REMARK                            x       y       z     vdW  Elec       q    Type
REMARK                         _______ _______ _______ _____ _____    ______ ____
ROOT
ATOM      1  N   UNL     1      33.921 -23.250 -16.956  0.00  0.00    -0.302 N 
ATOM      2  N   UNL     1      31.752 -22.774 -17.047  0.00  0.00    -0.302 N 
ATOM      3  C   UNL     1      33.420 -23.591 -15.726  0.00  0.00    +0.063 C 
ATOM      4  C   UNL     1      32.064 -23.284 -15.808  0.00  0.00    +0.060 C 
ATOM      5  C   UNL     1      32.888 -22.768 -17.710  0.00  0.00    +0.225 C 
ATOM      6  C   UNL     1      34.016 -24.124 -14.582  0.00  0.00    +0.053 C 
ATOM      7  C   UNL     1      33.181 -24.350 -13.483  0.00  0.00    +0.147 C 
ATOM      8  C   UNL     1      31.240 -23.517 -14.694  0.00  0.00    +0.019 C 
ATOM      9  C   UNL     1      31.818 -24.052 -13.536  0.00  0.00    +0.039 C 
ATOM     10  H   UNL     1      34.859 -23.338 -17.244  0.00  0.00    +0.150 HD
ATOM     11  H   UNL     1      30.870 -22.478 -17.370  0.00  0.00    +0.150 HD
ENDROOT
BRANCH   5  12
ATOM     12  N   UNL     1      33.150 -22.368 -18.973  0.00  0.00    -0.303 N 
ATOM     13  H   UNL     1      32.493 -22.660 -19.645  0.00  0.00    +0.150 HD
BRANCH  12  15
ATOM     14 CL   UNL     1      37.651 -19.143 -21.085  0.00  0.00    -0.082 Cl
ATOM     15  C   UNL     1      34.225 -21.589 -19.488  0.00  0.00    +0.047 C 
ATOM     16  C   UNL     1      34.005 -20.749 -20.570  0.00  0.00    +0.019 C 
ATOM     17  C   UNL     1      35.059 -19.986 -21.074  0.00  0.00    +0.083 C 
ATOM     18  C   UNL     1      35.479 -21.682 -18.899  0.00  0.00    +0.015 C 
ATOM     19  C   UNL     1      36.324 -20.072 -20.490  0.00  0.00    +0.062 C 
ATOM     20  C   UNL     1      36.533 -20.920 -19.402  0.00  0.00    +0.013 C 
BRANCH  17  24
ATOM     21  F   UNL     1      34.793 -17.782 -21.887  0.00  0.00    -0.166 F 
ATOM     22  F   UNL     1      35.719 -19.229 -23.219  0.00  0.00    -0.166 F 
ATOM     23  F   UNL     1      33.585 -19.355 -22.792  0.00  0.00    -0.166 F 
ATOM     24  C   UNL     1      34.793 -19.090 -22.239  0.00  0.00    +0.419 C 
ENDBRANCH  17  24
ENDBRANCH  12  15
ENDBRANCH   5  12
BRANCH   7  25
ATOM     25  O   UNL     1      33.710 -24.869 -12.339  0.00  0.00    -0.453 OA
BRANCH  25  27
ATOM     26  N   UNL     1      37.807 -24.481 -11.759  0.00  0.00    -0.239 NA
ATOM     27  C   UNL     1      35.074 -24.739 -12.146  0.00  0.00    +0.149 C 
ATOM     28  C   UNL     1      35.936 -25.544 -12.861  0.00  0.00    +0.061 C 
ATOM     29  C   UNL     1      35.543 -23.809 -11.244  0.00  0.00    +0.058 C 
ATOM     30  C   UNL     1      37.292 -25.377 -12.632  0.00  0.00    +0.137 C 
ATOM     31  C   UNL     1      36.916 -23.718 -11.086  0.00  0.00    +0.102 C 
BRANCH  30  34
ATOM     32  O   UNL     1      37.948 -27.311 -13.782  0.00  0.00    -0.268 OA
ATOM     33  N   UNL     1      39.535 -25.639 -13.537  0.00  0.00    -0.298 N 
ATOM     34  C   UNL     1      38.261 -26.188 -13.347  0.00  0.00    +0.264 C 
ATOM     35  C   UNL     1      40.599 -26.312 -14.247  0.00  0.00    +0.111 C 
ATOM     36  H   UNL     1      39.716 -24.745 -13.166  0.00  0.00    +0.150 HD
ENDBRANCH  30  34
ENDBRANCH  25  27
ENDBRANCH   7  25
TORSDOF 6
ENDMDL
MODEL 9
REMARK VINA RESULT:     -12.7      7.220     12.014
REMARK  Name = 11167118
REMARK  6 active torsions:
REMARK  status: ('A' for Active; 'I' for Inactive)
REMARK    1  A    between atoms: N_2  and  C_6
REMARK    2  A    between atoms: N_2  and  C_15
REMARK    3  A    between atoms: C_8  and  O_25
REMARK    4  A    between atoms: C_17  and  C_24
REMARK    5  A    between atoms: O_25  and  C_27
REMARK    6  A    between atoms: C_30  and  C_34
REMARK                            x       y       z     vdW  Elec       q    Type
REMARK                         _______ _______ _______ _____ _____    ______ ____
ROOT
ATOM      1  N   UNL     1      33.518 -13.739 -23.850  0.00  0.00    -0.302 N 
ATOM      2  N   UNL     1      33.413 -13.075 -21.732  0.00  0.00    -0.302 N 
ATOM      3  C   UNL     1      34.039 -14.773 -23.116  0.00  0.00    +0.063 C 
ATOM      4  C   UNL     1      33.962 -14.334 -21.797  0.00  0.00    +0.060 C 
ATOM      5  C   UNL     1      33.158 -12.748 -22.980  0.00  0.00    +0.225 C 
ATOM      6  C   UNL     1      34.556 -16.018 -23.480  0.00  0.00    +0.053 C 
ATOM      7  C   UNL     1      35.009 -16.839 -22.443  0.00  0.00    +0.147 C 
ATOM      8  C   UNL     1      34.423 -15.172 -20.767  0.00  0.00    +0.019 C 
ATOM      9  C   UNL     1      34.945 -16.426 -21.110  0.00  0.00    +0.039 C 
ATOM     10  H   UNL     1      33.421 -13.715 -24.829  0.00  0.00    +0.150 HD
ATOM     11  H   UNL     1      33.245 -12.534 -20.926  0.00  0.00    +0.150 HD
ENDROOT
BRANCH   5  12
ATOM     12  N   UNL     1      32.615 -11.619 -23.485  0.00  0.00    -0.303 N 
ATOM     13  H   UNL     1      32.101 -11.742 -24.316  0.00  0.00    +0.150 HD
BRANCH  12  15
ATOM     14 CL   UNL     1      32.792  -6.048 -21.472  0.00  0.00    -0.082 Cl
ATOM     15  C   UNL     1      32.666 -10.279 -23.006  0.00  0.00    +0.047 C 
ATOM     16  C   UNL     1      33.681  -9.437 -23.437  0.00  0.00    +0.019 C 
ATOM     17  C   UNL     1      33.731  -8.124 -22.969  0.00  0.00    +0.083 C 
ATOM     18  C   UNL     1      31.699  -9.834 -22.116  0.00  0.00    +0.015 C 
ATOM     19  C   UNL     1      32.764  -7.666 -22.073  0.00  0.00    +0.062 C 
ATOM     20  C   UNL     1      31.748  -8.521 -21.646  0.00  0.00    +0.013 C 
BRANCH  17  24
ATOM     21  F   UNL     1      35.335  -7.651 -24.641  0.00  0.00    -0.166 F 
ATOM     22  F   UNL     1      34.432  -5.957 -23.620  0.00  0.00    -0.166 F 
ATOM     23  F   UNL     1      35.864  -7.221 -22.570  0.00  0.00    -0.166 F 
ATOM     24  C   UNL     1      34.835  -7.239 -23.451  0.00  0.00    +0.419 C 
ENDBRANCH  17  24
ENDBRANCH  12  15
ENDBRANCH   5  12
BRANCH   7  25
ATOM     25  O   UNL     1      35.525 -18.066 -22.740  0.00  0.00    -0.453 OA
BRANCH  25  27
ATOM     26  N   UNL     1      36.217 -20.680 -19.584  0.00  0.00    -0.239 NA
ATOM     27  C   UNL     1      35.756 -18.936 -21.690  0.00  0.00    +0.149 C 
ATOM     28  C   UNL     1      34.715 -19.700 -21.206  0.00  0.00    +0.061 C 
ATOM     29  C   UNL     1      37.021 -19.022 -21.149  0.00  0.00    +0.058 C 
ATOM     30  C   UNL     1      34.996 -20.556 -20.153  0.00  0.00    +0.137 C 
ATOM     31  C   UNL     1      37.200 -19.907 -20.098  0.00  0.00    +0.102 C 
BRANCH  30  34
ATOM     32  O   UNL     1      32.774 -21.284 -19.980  0.00  0.00    -0.268 OA
ATOM     33  N   UNL     1      34.336 -22.327 -18.620  0.00  0.00    -0.298 N 
ATOM     34  C   UNL     1      33.951 -21.393 -19.589  0.00  0.00    +0.264 C 
ATOM     35  C   UNL     1      33.418 -23.244 -17.983  0.00  0.00    +0.111 C 
ATOM     36  H   UNL     1      35.284 -22.360 -18.357  0.00  0.00    +0.150 HD
ENDBRANCH  30  34
ENDBRANCH  25  27
ENDBRANCH   7  25
TORSDOF 6
ENDMDL
