MODEL 1
REMARK VINA RESULT:     -12.5      0.000      0.000
REMARK  Name = 12087505
REMARK  3 active torsions:
REMARK  status: ('A' for Active; 'I' for Inactive)
REMARK    1  A    between atoms: C_1  and  S_18
REMARK    2  A    between atoms: C_4  and  N_9
REMARK    3  A    between atoms: S_18  and  N_21
REMARK                            x       y       z     vdW  Elec       q    Type
REMARK                         _______ _______ _______ _____ _____    ______ ____
ROOT
ATOM      1  C   UNL     1      35.006 -21.662 -19.331  0.00  0.00    +0.123 C 
ATOM      2  C   UNL     1      34.587 -20.731 -20.267  0.00  0.00    +0.035 C 
ATOM      3  C   UNL     1      36.327 -21.729 -18.921  0.00  0.00    +0.020 C 
ATOM      4  C   UNL     1      35.515 -19.841 -20.807  0.00  0.00    +0.053 C 
ATOM      5  C   UNL     1      37.256 -20.838 -19.461  0.00  0.00    +0.003 C 
ATOM      6  C   UNL     1      36.848 -19.894 -20.404  0.00  0.00    +0.015 C 
ENDROOT
BRANCH   4   9
ATOM      7  S   UNL     1      33.772 -15.203 -24.626  0.00  0.00    -0.051 S 
ATOM      8  O   UNL     1      35.243 -16.879 -20.570  0.00  0.00    -0.252 OA
ATOM      9  N   UNL     1      35.108 -18.896 -21.750  0.00  0.00    -0.268 N 
ATOM     10  N   UNL     1      34.545 -16.924 -22.807  0.00  0.00    -0.248 N 
ATOM     11  N   UNL     1      34.459 -14.592 -22.210  0.00  0.00    -0.222 NA
ATOM     12  C   UNL     1      34.990 -17.491 -21.603  0.00  0.00    +0.310 C 
ATOM     13  C   UNL     1      34.309 -15.569 -23.051  0.00  0.00    +0.167 C 
ATOM     14  C   UNL     1      33.721 -13.550 -24.172  0.00  0.00    +0.059 C 
ATOM     15  C   UNL     1      34.119 -13.419 -22.857  0.00  0.00    +0.108 C 
ATOM     16  H   UNL     1      34.870 -19.254 -22.636  0.00  0.00    +0.156 HD
ATOM     17  H   UNL     1      34.382 -17.544 -23.555  0.00  0.00    +0.158 HD
ENDBRANCH   4   9
BRANCH   1  18
ATOM     18  S   UNL     1      33.832 -22.791 -18.649  0.00  0.00    +0.063 S 
ATOM     19  O   UNL     1      32.646 -22.039 -18.298  0.00  0.00    -0.153 OA
ATOM     20  O   UNL     1      33.755 -23.939 -19.526  0.00  0.00    -0.153 OA
BRANCH  18  21
ATOM     21  N   UNL     1      34.652 -23.241 -17.214  0.00  0.00    -0.152 NA
ATOM     22  N   UNL     1      35.647 -23.569 -14.578  0.00  0.00    -0.290 N 
ATOM     23  C   UNL     1      35.500 -22.179 -16.602  0.00  0.00    +0.117 C 
ATOM     24  C   UNL     1      33.815 -23.916 -16.183  0.00  0.00    +0.117 C 
ATOM     25  C   UNL     1      36.425 -22.803 -15.561  0.00  0.00    +0.111 C 
ATOM     26  C   UNL     1      34.717 -24.560 -15.133  0.00  0.00    +0.111 C 
ATOM     27  N   UNL     1      37.580 -23.869 -13.194  0.00  0.00    -0.229 NA
ATOM     28  C   UNL     1      36.220 -23.785 -13.320  0.00  0.00    +0.132 C 
ATOM     29  C   UNL     1      35.371 -23.910 -12.212  0.00  0.00    +0.034 C 
ATOM     30  C   UNL     1      35.925 -24.126 -10.955  0.00  0.00    +0.004 C 
ATOM     31  C   UNL     1      38.082 -24.078 -11.956  0.00  0.00    +0.100 C 
ATOM     32  C   UNL     1      37.305 -24.212 -10.816  0.00  0.00    +0.021 C 
ENDBRANCH  18  21
ENDBRANCH   1  18
TORSDOF 3
ENDMDL
MODEL 2
REMARK VINA RESULT:     -11.9      2.280     10.855
REMARK  Name = 12087505
REMARK  3 active torsions:
REMARK  status: ('A' for Active; 'I' for Inactive)
REMARK    1  A    between atoms: C_1  and  S_18
REMARK    2  A    between atoms: C_4  and  N_9
REMARK    3  A    between atoms: S_18  and  N_21
REMARK                            x       y       z     vdW  Elec       q    Type
REMARK                         _______ _______ _______ _____ _____    ______ ____
ROOT
ATOM      1  C   UNL     1      35.139 -19.997 -21.046  0.00  0.00    +0.123 C 
ATOM      2  C   UNL     1      35.859 -20.653 -20.060  0.00  0.00    +0.035 C 
ATOM      3  C   UNL     1      33.757 -20.063 -21.094  0.00  0.00    +0.020 C 
ATOM      4  C   UNL     1      35.176 -21.396 -19.097  0.00  0.00    +0.053 C 
ATOM      5  C   UNL     1      33.073 -20.805 -20.130  0.00  0.00    +0.003 C 
ATOM      6  C   UNL     1      33.784 -21.470 -19.131  0.00  0.00    +0.015 C 
ENDROOT
BRANCH   4   9
ATOM      7  S   UNL     1      37.848 -24.522 -14.382  0.00  0.00    -0.051 S 
ATOM      8  O   UNL     1      34.193 -22.926 -16.732  0.00  0.00    -0.252 OA
ATOM      9  N   UNL     1      35.886 -22.062 -18.097  0.00  0.00    -0.268 N 
ATOM     10  N   UNL     1      36.452 -23.292 -16.229  0.00  0.00    -0.248 N 
ATOM     11  N   UNL     1      35.265 -24.425 -14.465  0.00  0.00    -0.222 NA
ATOM     12  C   UNL     1      35.385 -22.781 -16.983  0.00  0.00    +0.310 C 
ATOM     13  C   UNL     1      36.356 -24.053 -15.062  0.00  0.00    +0.167 C 
ATOM     14  C   UNL     1      36.975 -25.320 -13.140  0.00  0.00    +0.059 C 
ATOM     15  C   UNL     1      35.620 -25.160 -13.351  0.00  0.00    +0.108 C 
ATOM     16  H   UNL     1      36.867 -22.025 -18.175  0.00  0.00    +0.156 HD
ATOM     17  H   UNL     1      37.360 -23.093 -16.555  0.00  0.00    +0.158 HD
ENDBRANCH   4   9
BRANCH   1  18
ATOM     18  S   UNL     1      36.003 -19.060 -22.268  0.00  0.00    +0.063 S 
ATOM     19  O   UNL     1      37.317 -18.754 -21.744  0.00  0.00    -0.153 OA
ATOM     20  O   UNL     1      35.844 -19.731 -23.540  0.00  0.00    -0.153 OA
BRANCH  18  21
ATOM     21  N   UNL     1      35.058 -17.632 -22.270  0.00  0.00    -0.152 NA
ATOM     22  N   UNL     1      34.030 -14.989 -22.348  0.00  0.00    -0.290 N 
ATOM     23  C   UNL     1      35.289 -16.710 -21.121  0.00  0.00    +0.117 C 
ATOM     24  C   UNL     1      35.030 -16.884 -23.557  0.00  0.00    +0.117 C 
ATOM     25  C   UNL     1      34.163 -15.682 -21.059  0.00  0.00    +0.111 C 
ATOM     26  C   UNL     1      33.904 -15.854 -23.528  0.00  0.00    +0.111 C 
ATOM     27  N   UNL     1      32.483 -13.417 -21.412  0.00  0.00    -0.229 NA
ATOM     28  C   UNL     1      33.432 -13.724 -22.349  0.00  0.00    +0.132 C 
ATOM     29  C   UNL     1      33.827 -12.799 -23.324  0.00  0.00    +0.034 C 
ATOM     30  C   UNL     1      33.240 -11.539 -23.339  0.00  0.00    +0.004 C 
ATOM     31  C   UNL     1      31.937 -12.181 -21.457  0.00  0.00    +0.100 C 
ATOM     32  C   UNL     1      32.277 -11.215 -22.390  0.00  0.00    +0.021 C 
ENDBRANCH  18  21
ENDBRANCH   1  18
TORSDOF 3
ENDMDL
MODEL 3
REMARK VINA RESULT:     -10.8      8.680     15.555
REMARK  Name = 12087505
REMARK  3 active torsions:
REMARK  status: ('A' for Active; 'I' for Inactive)
REMARK    1  A    between atoms: C_1  and  S_18
REMARK    2  A    between atoms: C_4  and  N_9
REMARK    3  A    between atoms: S_18  and  N_21
REMARK                            x       y       z     vdW  Elec       q    Type
REMARK                         _______ _______ _______ _____ _____    ______ ____
ROOT
ATOM      1  C   UNL     1      31.858  -8.583 -20.538  0.00  0.00    +0.123 C 
ATOM      2  C   UNL     1      32.164  -9.521 -21.510  0.00  0.00    +0.035 C 
ATOM      3  C   UNL     1      31.397  -8.964 -19.289  0.00  0.00    +0.020 C 
ATOM      4  C   UNL     1      32.005 -10.877 -21.225  0.00  0.00    +0.053 C 
ATOM      5  C   UNL     1      31.238 -10.320 -19.003  0.00  0.00    +0.003 C 
ATOM      6  C   UNL     1      31.543 -11.276 -19.972  0.00  0.00    +0.015 C 
ENDROOT
BRANCH   4   9
ATOM      7  S   UNL     1      33.653 -15.459 -25.152  0.00  0.00    -0.051 S 
ATOM      8  O   UNL     1      33.548 -13.420 -20.998  0.00  0.00    -0.252 OA
ATOM      9  N   UNL     1      32.310 -11.834 -22.193  0.00  0.00    -0.268 N 
ATOM     10  N   UNL     1      33.115 -13.701 -23.284  0.00  0.00    -0.248 N 
ATOM     11  N   UNL     1      34.406 -15.645 -22.686  0.00  0.00    -0.222 NA
ATOM     12  C   UNL     1      33.048 -13.035 -22.051  0.00  0.00    +0.310 C 
ATOM     13  C   UNL     1      33.757 -14.915 -23.541  0.00  0.00    +0.167 C 
ATOM     14  C   UNL     1      34.574 -16.832 -24.696  0.00  0.00    +0.059 C 
ATOM     15  C   UNL     1      34.881 -16.758 -23.353  0.00  0.00    +0.108 C 
ATOM     16  H   UNL     1      31.968 -11.649 -23.098  0.00  0.00    +0.156 HD
ATOM     17  H   UNL     1      32.664 -13.269 -24.045  0.00  0.00    +0.158 HD
ENDBRANCH   4   9
BRANCH   1  18
ATOM     18  S   UNL     1      32.057  -6.866 -20.900  0.00  0.00    +0.063 S 
ATOM     19  O   UNL     1      30.739  -6.272 -20.968  0.00  0.00    -0.153 OA
ATOM     20  O   UNL     1      33.069  -6.338 -20.010  0.00  0.00    -0.153 OA
BRANCH  18  21
ATOM     21  N   UNL     1      32.705  -6.970 -22.482  0.00  0.00    -0.152 NA
ATOM     22  N   UNL     1      33.944  -6.561 -25.000  0.00  0.00    -0.290 N 
ATOM     23  C   UNL     1      32.050  -6.100 -23.499  0.00  0.00    +0.117 C 
ATOM     24  C   UNL     1      34.189  -6.874 -22.573  0.00  0.00    +0.117 C 
ATOM     25  C   UNL     1      32.478  -6.540 -24.896  0.00  0.00    +0.111 C 
ATOM     26  C   UNL     1      34.647  -7.321 -23.959  0.00  0.00    +0.111 C 
ATOM     27  N   UNL     1      33.830  -6.924 -27.366  0.00  0.00    -0.229 NA
ATOM     28  C   UNL     1      34.508  -6.449 -26.276  0.00  0.00    +0.132 C 
ATOM     29  C   UNL     1      35.767  -5.848 -26.399  0.00  0.00    +0.034 C 
ATOM     30  C   UNL     1      36.341  -5.730 -27.661  0.00  0.00    +0.004 C 
ATOM     31  C   UNL     1      34.419  -6.791 -28.576  0.00  0.00    +0.100 C 
ATOM     32  C   UNL     1      35.661  -6.207 -28.775  0.00  0.00    +0.021 C 
ENDBRANCH  18  21
ENDBRANCH   1  18
TORSDOF 3
ENDMDL
MODEL 4
REMARK VINA RESULT:     -10.8      4.820      8.200
REMARK  Name = 12087505
REMARK  3 active torsions:
REMARK  status: ('A' for Active; 'I' for Inactive)
REMARK    1  A    between atoms: C_1  and  S_18
REMARK    2  A    between atoms: C_4  and  N_9
REMARK    3  A    between atoms: S_18  and  N_21
REMARK                            x       y       z     vdW  Elec       q    Type
REMARK                         _______ _______ _______ _____ _____    ______ ____
ROOT
ATOM      1  C   UNL     1      33.900 -14.928 -23.475  0.00  0.00    +0.123 C 
ATOM      2  C   UNL     1      33.619 -13.655 -23.943  0.00  0.00    +0.035 C 
ATOM      3  C   UNL     1      33.794 -15.242 -22.131  0.00  0.00    +0.020 C 
ATOM      4  C   UNL     1      33.219 -12.669 -23.041  0.00  0.00    +0.053 C 
ATOM      5  C   UNL     1      33.393 -14.257 -21.228  0.00  0.00    +0.003 C 
ATOM      6  C   UNL     1      33.106 -12.970 -21.684  0.00  0.00    +0.015 C 
ENDROOT
BRANCH   4   9
ATOM      7  S   UNL     1      31.777  -6.769 -24.539  0.00  0.00    -0.051 S 
ATOM      8  O   UNL     1      32.207 -10.285 -21.560  0.00  0.00    -0.252 OA
ATOM      9  N   UNL     1      32.931 -11.382 -23.496  0.00  0.00    -0.268 N 
ATOM     10  N   UNL     1      32.298  -9.166 -23.617  0.00  0.00    -0.248 N 
ATOM     11  N   UNL     1      31.487  -7.501 -22.077  0.00  0.00    -0.222 NA
ATOM     12  C   UNL     1      32.450 -10.269 -22.763  0.00  0.00    +0.310 C 
ATOM     13  C   UNL     1      31.847  -7.894 -23.261  0.00  0.00    +0.167 C 
ATOM     14  C   UNL     1      31.201  -5.605 -23.419  0.00  0.00    +0.059 C 
ATOM     15  C   UNL     1      31.112  -6.175 -22.165  0.00  0.00    +0.108 C 
ATOM     16  H   UNL     1      33.082 -11.226 -24.457  0.00  0.00    +0.156 HD
ATOM     17  H   UNL     1      32.534  -9.304 -24.563  0.00  0.00    +0.158 HD
ENDBRANCH   4   9
BRANCH   1  18
ATOM     18  S   UNL     1      34.409 -16.175 -24.617  0.00  0.00    +0.063 S 
ATOM     19  O   UNL     1      33.244 -16.588 -25.370  0.00  0.00    -0.153 OA
ATOM     20  O   UNL     1      35.603 -15.707 -25.286  0.00  0.00    -0.153 OA
BRANCH  18  21
ATOM     21  N   UNL     1      34.836 -17.422 -23.523  0.00  0.00    -0.152 NA
ATOM     22  N   UNL     1      35.023 -19.330 -21.433  0.00  0.00    -0.290 N 
ATOM     23  C   UNL     1      35.147 -16.976 -22.135  0.00  0.00    +0.117 C 
ATOM     24  C   UNL     1      33.931 -18.605 -23.514  0.00  0.00    +0.117 C 
ATOM     25  C   UNL     1      35.837 -18.108 -21.379  0.00  0.00    +0.111 C 
ATOM     26  C   UNL     1      34.602 -19.758 -22.773  0.00  0.00    +0.111 C 
ATOM     27  N   UNL     1      36.445 -20.418 -19.840  0.00  0.00    -0.229 NA
ATOM     28  C   UNL     1      35.217 -20.287 -20.430  0.00  0.00    +0.132 C 
ATOM     29  C   UNL     1      34.134 -21.091 -20.056  0.00  0.00    +0.034 C 
ATOM     30  C   UNL     1      34.311 -22.047 -19.061  0.00  0.00    +0.004 C 
ATOM     31  C   UNL     1      36.579 -21.356 -18.876  0.00  0.00    +0.100 C 
ATOM     32  C   UNL     1      35.554 -22.188 -18.454  0.00  0.00    +0.021 C 
ENDBRANCH  18  21
ENDBRANCH   1  18
TORSDOF 3
ENDMDL
MODEL 5
REMARK VINA RESULT:     -10.8      3.865      6.939
REMARK  Name = 12087505
REMARK  3 active torsions:
REMARK  status: ('A' for Active; 'I' for Inactive)
REMARK    1  A    between atoms: C_1  and  S_18
REMARK    2  A    between atoms: C_4  and  N_9
REMARK    3  A    between atoms: S_18  and  N_21
REMARK                            x       y       z     vdW  Elec       q    Type
REMARK                         _______ _______ _______ _____ _____    ______ ____
ROOT
ATOM      1  C   UNL     1      36.932 -24.410 -13.442  0.00  0.00    +0.123 C 
ATOM      2  C   UNL     1      36.765 -23.519 -14.489  0.00  0.00    +0.035 C 
ATOM      3  C   UNL     1      38.048 -25.224 -13.358  0.00  0.00    +0.020 C 
ATOM      4  C   UNL     1      37.744 -23.440 -15.480  0.00  0.00    +0.053 C 
ATOM      5  C   UNL     1      39.028 -25.145 -14.348  0.00  0.00    +0.003 C 
ATOM      6  C   UNL     1      38.875 -24.252 -15.409  0.00  0.00    +0.015 C 
ENDROOT
BRANCH   4   9
ATOM      7  S   UNL     1      36.530 -19.651 -20.308  0.00  0.00    -0.051 S 
ATOM      8  O   UNL     1      35.418 -22.982 -17.292  0.00  0.00    -0.252 OA
ATOM      9  N   UNL     1      37.592 -22.547 -16.542  0.00  0.00    -0.268 N 
ATOM     10  N   UNL     1      36.748 -21.352 -18.325  0.00  0.00    -0.248 N 
ATOM     11  N   UNL     1      34.678 -21.292 -19.557  0.00  0.00    -0.222 NA
ATOM     12  C   UNL     1      36.469 -22.355 -17.384  0.00  0.00    +0.310 C 
ATOM     13  C   UNL     1      35.888 -20.885 -19.322  0.00  0.00    +0.167 C 
ATOM     14  C   UNL     1      35.045 -19.632 -21.165  0.00  0.00    +0.059 C 
ATOM     15  C   UNL     1      34.186 -20.568 -20.625  0.00  0.00    +0.108 C 
ATOM     16  H   UNL     1      38.371 -21.975 -16.731  0.00  0.00    +0.156 HD
ATOM     17  H   UNL     1      37.639 -20.936 -18.278  0.00  0.00    +0.158 HD
ENDBRANCH   4   9
BRANCH   1  18
ATOM     18  S   UNL     1      35.691 -24.512 -12.189  0.00  0.00    +0.063 S 
ATOM     19  O   UNL     1      35.846 -25.783 -11.515  0.00  0.00    -0.153 OA
ATOM     20  O   UNL     1      35.702 -23.268 -11.449  0.00  0.00    -0.153 OA
BRANCH  18  21
ATOM     21  N   UNL     1      34.286 -24.565 -13.167  0.00  0.00    -0.152 NA
ATOM     22  N   UNL     1      31.760 -24.217 -14.408  0.00  0.00    -0.290 N 
ATOM     23  C   UNL     1      33.050 -25.045 -12.484  0.00  0.00    +0.117 C 
ATOM     24  C   UNL     1      34.013 -23.337 -13.964  0.00  0.00    +0.117 C 
ATOM     25  C   UNL     1      31.987 -25.372 -13.529  0.00  0.00    +0.111 C 
ATOM     26  C   UNL     1      32.959 -23.639 -15.026  0.00  0.00    +0.111 C 
ATOM     27  N   UNL     1      29.863 -25.280 -15.414  0.00  0.00    -0.229 NA
ATOM     28  C   UNL     1      30.531 -24.136 -15.073  0.00  0.00    +0.132 C 
ATOM     29  C   UNL     1      30.016 -22.868 -15.372  0.00  0.00    +0.034 C 
ATOM     30  C   UNL     1      28.796 -22.772 -16.033  0.00  0.00    +0.004 C 
ATOM     31  C   UNL     1      28.680 -25.146 -16.055  0.00  0.00    +0.100 C 
ATOM     32  C   UNL     1      28.109 -23.927 -16.384  0.00  0.00    +0.021 C 
ENDBRANCH  18  21
ENDBRANCH   1  18
TORSDOF 3
ENDMDL
MODEL 6
REMARK VINA RESULT:     -10.6      8.979     13.690
REMARK  Name = 12087505
REMARK  3 active torsions:
REMARK  status: ('A' for Active; 'I' for Inactive)
REMARK    1  A    between atoms: C_1  and  S_18
REMARK    2  A    between atoms: C_4  and  N_9
REMARK    3  A    between atoms: S_18  and  N_21
REMARK                            x       y       z     vdW  Elec       q    Type
REMARK                         _______ _______ _______ _____ _____    ______ ____
ROOT
ATOM      1  C   UNL     1      33.123  -8.319 -23.036  0.00  0.00    +0.123 C 
ATOM      2  C   UNL     1      32.885  -7.680 -24.242  0.00  0.00    +0.035 C 
ATOM      3  C   UNL     1      34.316  -8.152 -22.353  0.00  0.00    +0.020 C 
ATOM      4  C   UNL     1      33.869  -6.850 -24.780  0.00  0.00    +0.053 C 
ATOM      5  C   UNL     1      35.300  -7.321 -22.890  0.00  0.00    +0.003 C 
ATOM      6  C   UNL     1      35.075  -6.670 -24.104  0.00  0.00    +0.015 C 
ENDROOT
BRANCH   4   9
ATOM      7  S   UNL     1      32.565  -3.535 -29.922  0.00  0.00    -0.051 S 
ATOM      8  O   UNL     1      32.366  -4.341 -25.368  0.00  0.00    -0.252 OA
ATOM      9  N   UNL     1      33.645  -6.199 -25.993  0.00  0.00    -0.268 N 
ATOM     10  N   UNL     1      32.949  -4.706 -27.609  0.00  0.00    -0.248 N 
ATOM     11  N   UNL     1      31.662  -2.671 -27.659  0.00  0.00    -0.222 NA
ATOM     12  C   UNL     1      32.924  -5.004 -26.238  0.00  0.00    +0.310 C 
ATOM     13  C   UNL     1      32.349  -3.610 -28.233  0.00  0.00    +0.167 C 
ATOM     14  C   UNL     1      31.646  -2.087 -29.926  0.00  0.00    +0.059 C 
ATOM     15  C   UNL     1      31.253  -1.786 -28.638  0.00  0.00    +0.108 C 
ATOM     16  H   UNL     1      34.041  -6.628 -26.787  0.00  0.00    +0.156 HD
ATOM     17  H   UNL     1      33.438  -5.334 -28.189  0.00  0.00    +0.158 HD
ENDBRANCH   4   9
BRANCH   1  18
ATOM     18  S   UNL     1      31.879  -9.372 -22.356  0.00  0.00    +0.063 S 
ATOM     19  O   UNL     1      31.712  -9.019 -20.962  0.00  0.00    -0.153 OA
ATOM     20  O   UNL     1      30.753  -9.376 -23.265  0.00  0.00    -0.153 OA
BRANCH  18  21
ATOM     21  N   UNL     1      32.681 -10.882 -22.457  0.00  0.00    -0.152 NA
ATOM     22  N   UNL     1      33.508 -13.554 -22.929  0.00  0.00    -0.290 N 
ATOM     23  C   UNL     1      32.029 -12.003 -21.721  0.00  0.00    +0.117 C 
ATOM     24  C   UNL     1      33.081 -11.305 -23.828  0.00  0.00    +0.117 C 
ATOM     25  C   UNL     1      33.005 -13.169 -21.603  0.00  0.00    +0.111 C 
ATOM     26  C   UNL     1      34.068 -12.465 -23.739  0.00  0.00    +0.111 C 
ATOM     27  N   UNL     1      34.560 -15.509 -22.029  0.00  0.00    -0.229 NA
ATOM     28  C   UNL     1      33.992 -14.857 -23.089  0.00  0.00    +0.132 C 
ATOM     29  C   UNL     1      33.880 -15.461 -24.348  0.00  0.00    +0.034 C 
ATOM     30  C   UNL     1      34.358 -16.755 -24.523  0.00  0.00    +0.004 C 
ATOM     31  C   UNL     1      35.012 -16.767 -22.237  0.00  0.00    +0.100 C 
ATOM     32  C   UNL     1      34.935 -17.427 -23.453  0.00  0.00    +0.021 C 
ENDBRANCH  18  21
ENDBRANCH   1  18
TORSDOF 3
ENDMDL
MODEL 7
REMARK VINA RESULT:     -10.4      8.272     12.381
REMARK  Name = 12087505
REMARK  3 active torsions:
REMARK  status: ('A' for Active; 'I' for Inactive)
REMARK    1  A    between atoms: C_1  and  S_18
REMARK    2  A    between atoms: C_4  and  N_9
REMARK    3  A    between atoms: S_18  and  N_21
REMARK                            x       y       z     vdW  Elec       q    Type
REMARK                         _______ _______ _______ _____ _____    ______ ____
ROOT
ATOM      1  C   UNL     1      32.321  -9.186 -21.615  0.00  0.00    +0.123 C 
ATOM      2  C   UNL     1      32.729  -8.954 -22.918  0.00  0.00    +0.035 C 
ATOM      3  C   UNL     1      32.774  -8.403 -20.567  0.00  0.00    +0.020 C 
ATOM      4  C   UNL     1      33.615  -7.908 -23.180  0.00  0.00    +0.053 C 
ATOM      5  C   UNL     1      33.659  -7.357 -20.828  0.00  0.00    +0.003 C 
ATOM      6  C   UNL     1      34.079  -7.110 -22.136  0.00  0.00    +0.015 C 
ENDROOT
BRANCH   4   9
ATOM      7  S   UNL     1      35.148  -6.336 -29.038  0.00  0.00    -0.051 S 
ATOM      8  O   UNL     1      32.853  -5.724 -25.065  0.00  0.00    -0.252 OA
ATOM      9  N   UNL     1      34.034  -7.660 -24.488  0.00  0.00    -0.268 N 
ATOM     10  N   UNL     1      34.318  -6.742 -26.586  0.00  0.00    -0.248 N 
ATOM     11  N   UNL     1      33.451  -4.841 -27.785  0.00  0.00    -0.222 NA
ATOM     12  C   UNL     1      33.651  -6.610 -25.358  0.00  0.00    +0.310 C 
ATOM     13  C   UNL     1      34.198  -5.899 -27.692  0.00  0.00    +0.167 C 
ATOM     14  C   UNL     1      34.513  -4.975 -29.866  0.00  0.00    +0.059 C 
ATOM     15  C   UNL     1      33.631  -4.303 -29.044  0.00  0.00    +0.108 C 
ATOM     16  H   UNL     1      34.684  -8.303 -24.856  0.00  0.00    +0.156 HD
ATOM     17  H   UNL     1      34.931  -7.507 -26.676  0.00  0.00    +0.158 HD
ENDBRANCH   4   9
BRANCH   1  18
ATOM     18  S   UNL     1      31.203 -10.512 -21.283  0.00  0.00    +0.063 S 
ATOM     19  O   UNL     1      30.820 -10.430 -19.890  0.00  0.00    -0.153 OA
ATOM     20  O   UNL     1      30.206 -10.527 -22.332  0.00  0.00    -0.153 OA
BRANCH  18  21
ATOM     21  N   UNL     1      32.254 -11.848 -21.496  0.00  0.00    -0.152 NA
ATOM     22  N   UNL     1      33.522 -14.298 -22.153  0.00  0.00    -0.290 N 
ATOM     23  C   UNL     1      31.832 -13.107 -20.820  0.00  0.00    +0.117 C 
ATOM     24  C   UNL     1      32.680 -12.111 -22.899  0.00  0.00    +0.117 C 
ATOM     25  C   UNL     1      33.001 -14.087 -20.796  0.00  0.00    +0.111 C 
ATOM     26  C   UNL     1      33.857 -13.081 -22.904  0.00  0.00    +0.111 C 
ATOM     27  N   UNL     1      34.929 -16.086 -21.401  0.00  0.00    -0.229 NA
ATOM     28  C   UNL     1      34.223 -15.482 -22.406  0.00  0.00    +0.132 C 
ATOM     29  C   UNL     1      34.180 -16.021 -23.698  0.00  0.00    +0.034 C 
ATOM     30  C   UNL     1      34.872 -17.197 -23.965  0.00  0.00    +0.004 C 
ATOM     31  C   UNL     1      35.588 -17.228 -21.697  0.00  0.00    +0.100 C 
ATOM     32  C   UNL     1      35.591 -17.819 -22.951  0.00  0.00    +0.021 C 
ENDBRANCH  18  21
ENDBRANCH   1  18
TORSDOF 3
ENDMDL
MODEL 8
REMARK VINA RESULT:     -10.0      9.093     12.477
REMARK  Name = 12087505
REMARK  3 active torsions:
REMARK  status: ('A' for Active; 'I' for Inactive)
REMARK    1  A    between atoms: C_1  and  S_18
REMARK    2  A    between atoms: C_4  and  N_9
REMARK    3  A    between atoms: S_18  and  N_21
REMARK                            x       y       z     vdW  Elec       q    Type
REMARK                         _______ _______ _______ _____ _____    ______ ____
ROOT
ATOM      1  C   UNL     1      32.073  -9.129 -20.458  0.00  0.00    +0.123 C 
ATOM      2  C   UNL     1      32.249  -8.940 -21.819  0.00  0.00    +0.035 C 
ATOM      3  C   UNL     1      32.491  -8.183 -19.538  0.00  0.00    +0.020 C 
ATOM      4  C   UNL     1      32.860  -7.770 -22.271  0.00  0.00    +0.053 C 
ATOM      5  C   UNL     1      33.101  -7.012 -19.990  0.00  0.00    +0.003 C 
ATOM      6  C   UNL     1      33.285  -6.807 -21.357  0.00  0.00    +0.015 C 
ENDROOT
BRANCH   4   9
ATOM      7  S   UNL     1      34.175  -6.568 -28.268  0.00  0.00    -0.051 S 
ATOM      8  O   UNL     1      35.063  -6.382 -23.729  0.00  0.00    -0.252 OA
ATOM      9  N   UNL     1      33.044  -7.564 -23.639  0.00  0.00    -0.268 N 
ATOM     10  N   UNL     1      33.892  -6.921 -25.687  0.00  0.00    -0.248 N 
ATOM     11  N   UNL     1      35.835  -5.732 -26.470  0.00  0.00    -0.222 NA
ATOM     12  C   UNL     1      34.106  -6.898 -24.300  0.00  0.00    +0.310 C 
ATOM     13  C   UNL     1      34.720  -6.367 -26.665  0.00  0.00    +0.167 C 
ATOM     14  C   UNL     1      35.569  -5.718 -28.796  0.00  0.00    +0.059 C 
ATOM     15  C   UNL     1      36.330  -5.355 -27.704  0.00  0.00    +0.108 C 
ATOM     16  H   UNL     1      32.341  -7.929 -24.224  0.00  0.00    +0.156 HD
ATOM     17  H   UNL     1      33.075  -7.373 -26.000  0.00  0.00    +0.158 HD
ENDBRANCH   4   9
BRANCH   1  18
ATOM     18  S   UNL     1      31.302 -10.611 -19.884  0.00  0.00    +0.063 S 
ATOM     19  O   UNL     1      31.569 -10.729 -18.467  0.00  0.00    -0.153 OA
ATOM     20  O   UNL     1      29.947 -10.634 -20.394  0.00  0.00    -0.153 OA
BRANCH  18  21
ATOM     21  N   UNL     1      32.233 -11.775 -20.727  0.00  0.00    -0.152 NA
ATOM     22  N   UNL     1      33.230 -13.922 -22.289  0.00  0.00    -0.290 N 
ATOM     23  C   UNL     1      32.105 -13.176 -20.233  0.00  0.00    +0.117 C 
ATOM     24  C   UNL     1      32.135 -11.721 -22.212  0.00  0.00    +0.117 C 
ATOM     25  C   UNL     1      33.224 -14.028 -20.824  0.00  0.00    +0.111 C 
ATOM     26  C   UNL     1      33.251 -12.558 -22.831  0.00  0.00    +0.111 C 
ATOM     27  N   UNL     1      34.847 -15.681 -22.469  0.00  0.00    -0.229 NA
ATOM     28  C   UNL     1      33.817 -14.965 -23.015  0.00  0.00    +0.132 C 
ATOM     29  C   UNL     1      33.326 -15.246 -24.297  0.00  0.00    +0.034 C 
ATOM     30  C   UNL     1      33.900 -16.278 -25.030  0.00  0.00    +0.004 C 
ATOM     31  C   UNL     1      35.379 -16.678 -23.212  0.00  0.00    +0.100 C 
ATOM     32  C   UNL     1      34.945 -17.013 -24.485  0.00  0.00    +0.021 C 
ENDBRANCH  18  21
ENDBRANCH   1  18
TORSDOF 3
ENDMDL
MODEL 9
REMARK VINA RESULT:      -9.9      5.084      8.712
REMARK  Name = 12087505
REMARK  3 active torsions:
REMARK  status: ('A' for Active; 'I' for Inactive)
REMARK    1  A    between atoms: C_1  and  S_18
REMARK    2  A    between atoms: C_4  and  N_9
REMARK    3  A    between atoms: S_18  and  N_21
REMARK                            x       y       z     vdW  Elec       q    Type
REMARK                         _______ _______ _______ _____ _____    ______ ____
ROOT
ATOM      1  C   UNL     1      33.452 -14.151 -23.158  0.00  0.00    +0.123 C 
ATOM      2  C   UNL     1      33.290 -12.867 -23.651  0.00  0.00    +0.035 C 
ATOM      3  C   UNL     1      33.078 -14.479 -21.865  0.00  0.00    +0.020 C 
ATOM      4  C   UNL     1      32.740 -11.884 -22.829  0.00  0.00    +0.053 C 
ATOM      5  C   UNL     1      32.527 -13.497 -21.042  0.00  0.00    +0.003 C 
ATOM      6  C   UNL     1      32.357 -12.199 -21.526  0.00  0.00    +0.015 C 
ENDROOT
BRANCH   4   9
ATOM      7  S   UNL     1      32.552  -6.007 -24.966  0.00  0.00    -0.051 S 
ATOM      8  O   UNL     1      34.762  -9.775 -23.435  0.00  0.00    -0.252 OA
ATOM      9  N   UNL     1      32.569 -10.586 -23.311  0.00  0.00    -0.268 N 
ATOM     10  N   UNL     1      32.943  -8.435 -24.059  0.00  0.00    -0.248 N 
ATOM     11  N   UNL     1      34.864  -7.027 -24.419  0.00  0.00    -0.222 NA
ATOM     12  C   UNL     1      33.556  -9.607 -23.589  0.00  0.00    +0.310 C 
ATOM     13  C   UNL     1      33.586  -7.254 -24.435  0.00  0.00    +0.167 C 
ATOM     14  C   UNL     1      33.939  -5.029 -25.212  0.00  0.00    +0.059 C 
ATOM     15  C   UNL     1      35.072  -5.737 -24.869  0.00  0.00    +0.108 C 
ATOM     16  H   UNL     1      31.638 -10.313 -23.480  0.00  0.00    +0.156 HD
ATOM     17  H   UNL     1      31.961  -8.447 -24.130  0.00  0.00    +0.158 HD
ENDBRANCH   4   9
BRANCH   1  18
ATOM     18  S   UNL     1      34.152 -15.395 -24.197  0.00  0.00    +0.063 S 
ATOM     19  O   UNL     1      33.157 -15.759 -25.183  0.00  0.00    -0.153 OA
ATOM     20  O   UNL     1      35.471 -14.953 -24.595  0.00  0.00    -0.153 OA
BRANCH  18  21
ATOM     21  N   UNL     1      34.310 -16.672 -23.067  0.00  0.00    -0.152 NA
ATOM     22  N   UNL     1      35.118 -18.864 -21.458  0.00  0.00    -0.290 N 
ATOM     23  C   UNL     1      34.372 -18.041 -23.653  0.00  0.00    +0.117 C 
ATOM     24  C   UNL     1      35.367 -16.485 -22.034  0.00  0.00    +0.117 C 
ATOM     25  C   UNL     1      34.160 -19.076 -22.551  0.00  0.00    +0.111 C 
ATOM     26  C   UNL     1      35.173 -17.502 -20.912  0.00  0.00    +0.111 C 
ATOM     27  N   UNL     1      34.475 -20.922 -20.414  0.00  0.00    -0.229 NA
ATOM     28  C   UNL     1      35.416 -19.953 -20.632  0.00  0.00    +0.132 C 
ATOM     29  C   UNL     1      36.686 -20.019 -20.045  0.00  0.00    +0.034 C 
ATOM     30  C   UNL     1      36.996 -21.095 -19.221  0.00  0.00    +0.004 C 
ATOM     31  C   UNL     1      34.813 -21.954 -19.608  0.00  0.00    +0.100 C 
ATOM     32  C   UNL     1      36.048 -22.086 -18.994  0.00  0.00    +0.021 C 
ENDBRANCH  18  21
ENDBRANCH   1  18
TORSDOF 3
ENDMDL
