MODEL 1
REMARK VINA RESULT:     -11.8      0.000      0.000
REMARK  Name = 54766013
REMARK  5 active torsions:
REMARK  status: ('A' for Active; 'I' for Inactive)
REMARK    1  A    between atoms: C_3  and  C_11
REMARK    2  A    between atoms: C_4  and  C_18
REMARK    3  A    between atoms: C_5  and  C_24
REMARK    4  A    between atoms: C_24  and  N_25
REMARK    5  A    between atoms: N_25  and  C_28
REMARK                            x       y       z     vdW  Elec       q    Type
REMARK                         _______ _______ _______ _____ _____    ______ ____
ROOT
ATOM      1  N   UNL     1      33.229 -23.110 -14.631  0.00  0.00    -0.315 N 
ATOM      2  N   UNL     1      33.972 -24.665 -13.230  0.00  0.00    -0.317 N 
ATOM      3  C   UNL     1      34.890 -24.451 -14.228  0.00  0.00    +0.063 C 
ATOM      4  C   UNL     1      34.451 -23.490 -15.109  0.00  0.00    +0.085 C 
ATOM      5  C   UNL     1      32.983 -23.842 -13.502  0.00  0.00    +0.164 C 
ATOM      6  H   UNL     1      32.633 -22.433 -15.026  0.00  0.00    +0.148 HD
ATOM      7  H   UNL     1      34.039 -25.296 -12.477  0.00  0.00    +0.148 HD
ENDROOT
BRANCH   3  11
ATOM      8  N   UNL     1      38.506 -25.301 -13.875  0.00  0.00    -0.170 N 
ATOM      9  N   UNL     1      39.735 -24.875 -13.490  0.00  0.00    -0.150 NA
ATOM     10  N   UNL     1      39.860 -27.018 -14.274  0.00  0.00    -0.206 NA
ATOM     11  C   UNL     1      36.159 -25.203 -14.268  0.00  0.00    +0.031 C 
ATOM     12  C   UNL     1      37.292 -24.610 -13.838  0.00  0.00    +0.092 C 
ATOM     13  C   UNL     1      36.258 -26.576 -14.771  0.00  0.00    +0.006 C 
ATOM     14  C   UNL     1      38.612 -26.611 -14.350  0.00  0.00    +0.157 C 
ATOM     15  C   UNL     1      37.426 -27.243 -14.808  0.00  0.00    +0.036 C 
ATOM     16  C   UNL     1      40.497 -25.936 -13.749  0.00  0.00    +0.219 C 
ENDBRANCH   3  11
BRANCH   4  18
ATOM     17  N   UNL     1      34.204 -22.857 -17.360  0.00  0.00    -0.409 NA
ATOM     18  C   UNL     1      35.036 -22.922 -16.297  0.00  0.00    +0.127 C 
ATOM     19  C   UNL     1      36.351 -22.484 -16.312  0.00  0.00    +0.086 C 
ATOM     20  C   UNL     1      34.718 -22.327 -18.492  0.00  0.00    +0.109 C 
ATOM     21  C   UNL     1      36.842 -21.944 -17.496  0.00  0.00    -0.016 C 
ATOM     22  C   UNL     1      36.017 -21.860 -18.611  0.00  0.00    +0.023 C 
ATOM     23  C   UNL     1      33.804 -22.253 -19.670  0.00  0.00    +0.066 C 
ENDBRANCH   4  18
BRANCH   5  24
ATOM     24  C   UNL     1      31.737 -23.673 -12.734  0.00  0.00    +0.128 C 
BRANCH  24  25
ATOM     25  N   UNL     1      30.691 -24.565 -13.208  0.00  0.00    -0.328 N 
ATOM     26  H   UNL     1      30.549 -25.413 -12.730  0.00  0.00    +0.147 HD
BRANCH  25  28
ATOM     27  F   UNL     1      29.647 -26.597 -14.769  0.00  0.00    -0.203 F 
ATOM     28  C   UNL     1      29.889 -24.283 -14.296  0.00  0.00    +0.073 C 
ATOM     29  C   UNL     1      29.372 -25.320 -15.072  0.00  0.00    +0.153 C 
ATOM     30  C   UNL     1      29.597 -22.957 -14.620  0.00  0.00    +0.017 C 
ATOM     31  C   UNL     1      28.563 -25.034 -16.170  0.00  0.00    +0.031 C 
ATOM     32  C   UNL     1      28.787 -22.671 -15.720  0.00  0.00    +0.001 C 
ATOM     33  C   UNL     1      28.270 -23.709 -16.494  0.00  0.00    +0.002 C 
ENDBRANCH  25  28
ENDBRANCH  24  25
ENDBRANCH   5  24
TORSDOF 5
ENDMDL
MODEL 2
REMARK VINA RESULT:     -11.7      3.082      6.495
REMARK  Name = 54766013
REMARK  5 active torsions:
REMARK  status: ('A' for Active; 'I' for Inactive)
REMARK    1  A    between atoms: C_3  and  C_11
REMARK    2  A    between atoms: C_4  and  C_18
REMARK    3  A    between atoms: C_5  and  C_24
REMARK    4  A    between atoms: C_24  and  N_25
REMARK    5  A    between atoms: N_25  and  C_28
REMARK                            x       y       z     vdW  Elec       q    Type
REMARK                         _______ _______ _______ _____ _____    ______ ____
ROOT
ATOM      1  N   UNL     1      32.801 -22.952 -17.327  0.00  0.00    -0.315 N 
ATOM      2  N   UNL     1      35.020 -22.939 -17.257  0.00  0.00    -0.317 N 
ATOM      3  C   UNL     1      34.516 -23.559 -16.141  0.00  0.00    +0.063 C 
ATOM      4  C   UNL     1      33.141 -23.580 -16.163  0.00  0.00    +0.085 C 
ATOM      5  C   UNL     1      33.961 -22.585 -17.950  0.00  0.00    +0.164 C 
ATOM      6  H   UNL     1      31.887 -22.794 -17.658  0.00  0.00    +0.148 HD
ATOM      7  H   UNL     1      35.966 -22.790 -17.487  0.00  0.00    +0.148 HD
ENDROOT
BRANCH   3  11
ATOM      8  N   UNL     1      36.848 -23.758 -13.234  0.00  0.00    -0.170 N 
ATOM      9  N   UNL     1      37.512 -23.073 -12.269  0.00  0.00    -0.150 NA
ATOM     10  N   UNL     1      37.979 -25.304 -12.109  0.00  0.00    -0.206 NA
ATOM     11  C   UNL     1      35.413 -24.105 -15.104  0.00  0.00    +0.031 C 
ATOM     12  C   UNL     1      35.989 -23.264 -14.219  0.00  0.00    +0.092 C 
ATOM     13  C   UNL     1      35.727 -25.532 -14.988  0.00  0.00    +0.006 C 
ATOM     14  C   UNL     1      37.152 -25.116 -13.114  0.00  0.00    +0.157 C 
ATOM     15  C   UNL     1      36.554 -26.009 -14.041  0.00  0.00    +0.036 C 
ATOM     16  C   UNL     1      38.165 -24.044 -11.633  0.00  0.00    +0.219 C 
ENDBRANCH   3  11
BRANCH   4  18
ATOM     17  N   UNL     1      30.899 -24.133 -15.719  0.00  0.00    -0.409 NA
ATOM     18  C   UNL     1      32.164 -24.105 -15.243  0.00  0.00    +0.127 C 
ATOM     19  C   UNL     1      32.527 -24.543 -13.979  0.00  0.00    +0.086 C 
ATOM     20  C   UNL     1      29.954 -24.622 -14.885  0.00  0.00    +0.109 C 
ATOM     21  C   UNL     1      31.526 -25.040 -13.151  0.00  0.00    -0.016 C 
ATOM     22  C   UNL     1      30.213 -25.084 -13.605  0.00  0.00    +0.023 C 
ATOM     23  C   UNL     1      28.555 -24.653 -15.405  0.00  0.00    +0.066 C 
ENDBRANCH   4  18
BRANCH   5  24
ATOM     24  C   UNL     1      33.947 -21.879 -19.245  0.00  0.00    +0.128 C 
BRANCH  24  25
ATOM     25  N   UNL     1      35.174 -21.130 -19.458  0.00  0.00    -0.328 N 
ATOM     26  H   UNL     1      35.914 -21.255 -18.821  0.00  0.00    +0.147 HD
BRANCH  25  28
ATOM     27  F   UNL     1      37.519 -19.683 -19.714  0.00  0.00    -0.203 F 
ATOM     28  C   UNL     1      35.356 -20.253 -20.509  0.00  0.00    +0.073 C 
ATOM     29  C   UNL     1      36.544 -19.532 -20.622  0.00  0.00    +0.153 C 
ATOM     30  C   UNL     1      34.346 -20.088 -21.459  0.00  0.00    +0.017 C 
ATOM     31  C   UNL     1      36.725 -18.646 -21.683  0.00  0.00    +0.031 C 
ATOM     32  C   UNL     1      34.528 -19.202 -22.521  0.00  0.00    +0.001 C 
ATOM     33  C   UNL     1      35.717 -18.481 -22.634  0.00  0.00    +0.002 C 
ENDBRANCH  25  28
ENDBRANCH  24  25
ENDBRANCH   5  24
TORSDOF 5
ENDMDL
MODEL 3
REMARK VINA RESULT:     -11.7      2.881      7.642
REMARK  Name = 54766013
REMARK  5 active torsions:
REMARK  status: ('A' for Active; 'I' for Inactive)
REMARK    1  A    between atoms: C_3  and  C_11
REMARK    2  A    between atoms: C_4  and  C_18
REMARK    3  A    between atoms: C_5  and  C_24
REMARK    4  A    between atoms: C_24  and  N_25
REMARK    5  A    between atoms: N_25  and  C_28
REMARK                            x       y       z     vdW  Elec       q    Type
REMARK                         _______ _______ _______ _____ _____    ______ ____
ROOT
ATOM      1  N   UNL     1      36.789 -23.021 -16.167  0.00  0.00    -0.315 N 
ATOM      2  N   UNL     1      34.722 -22.704 -16.913  0.00  0.00    -0.317 N 
ATOM      3  C   UNL     1      34.702 -23.478 -15.780  0.00  0.00    +0.063 C 
ATOM      4  C   UNL     1      35.973 -23.688 -15.299  0.00  0.00    +0.085 C 
ATOM      5  C   UNL     1      35.994 -22.445 -17.119  0.00  0.00    +0.164 C 
ATOM      6  H   UNL     1      37.771 -22.963 -16.116  0.00  0.00    +0.148 HD
ATOM      7  H   UNL     1      33.953 -22.408 -17.453  0.00  0.00    +0.148 HD
ENDROOT
BRANCH   3  11
ATOM      8  N   UNL     1      31.061 -24.183 -15.363  0.00  0.00    -0.170 N 
ATOM      9  N   UNL     1      29.814 -24.030 -15.875  0.00  0.00    -0.150 NA
ATOM     10  N   UNL     1      29.718 -25.208 -13.919  0.00  0.00    -0.206 NA
ATOM     11  C   UNL     1      33.430 -23.977 -15.222  0.00  0.00    +0.031 C 
ATOM     12  C   UNL     1      32.277 -23.727 -15.878  0.00  0.00    +0.092 C 
ATOM     13  C   UNL     1      33.349 -24.731 -13.968  0.00  0.00    +0.006 C 
ATOM     14  C   UNL     1      30.972 -24.904 -14.169  0.00  0.00    +0.157 C 
ATOM     15  C   UNL     1      32.179 -25.171 -13.470  0.00  0.00    +0.036 C 
ATOM     16  C   UNL     1      29.059 -24.659 -14.976  0.00  0.00    +0.219 C 
ENDBRANCH   3  11
BRANCH   4  18
ATOM     17  N   UNL     1      36.509 -23.711 -13.009  0.00  0.00    -0.409 NA
ATOM     18  C   UNL     1      36.472 -24.417 -14.161  0.00  0.00    +0.127 C 
ATOM     19  C   UNL     1      36.871 -25.740 -14.272  0.00  0.00    +0.086 C 
ATOM     20  C   UNL     1      36.969 -24.363 -11.919  0.00  0.00    +0.109 C 
ATOM     21  C   UNL     1      37.338 -26.377 -13.127  0.00  0.00    -0.016 C 
ATOM     22  C   UNL     1      37.391 -25.683 -11.924  0.00  0.00    +0.023 C 
ATOM     23  C   UNL     1      37.013 -23.587 -10.644  0.00  0.00    +0.066 C 
ENDBRANCH   4  18
BRANCH   5  24
ATOM     24  C   UNL     1      36.567 -21.644 -18.216  0.00  0.00    +0.128 C 
BRANCH  24  25
ATOM     25  N   UNL     1      35.568 -21.322 -19.221  0.00  0.00    -0.328 N 
ATOM     26  H   UNL     1      34.708 -21.801 -19.194  0.00  0.00    +0.147 HD
BRANCH  25  28
ATOM     27  F   UNL     1      33.493 -20.559 -20.887  0.00  0.00    -0.203 F 
ATOM     28  C   UNL     1      35.763 -20.380 -20.211  0.00  0.00    +0.073 C 
ATOM     29  C   UNL     1      34.706 -20.008 -21.042  0.00  0.00    +0.153 C 
ATOM     30  C   UNL     1      37.021 -19.801 -20.382  0.00  0.00    +0.017 C 
ATOM     31  C   UNL     1      34.904 -19.057 -22.042  0.00  0.00    +0.031 C 
ATOM     32  C   UNL     1      37.220 -18.849 -21.383  0.00  0.00    +0.001 C 
ATOM     33  C   UNL     1      36.162 -18.477 -22.213  0.00  0.00    +0.002 C 
ENDBRANCH  25  28
ENDBRANCH  24  25
ENDBRANCH   5  24
TORSDOF 5
ENDMDL
MODEL 4
REMARK VINA RESULT:     -11.5      2.566      7.312
REMARK  Name = 54766013
REMARK  5 active torsions:
REMARK  status: ('A' for Active; 'I' for Inactive)
REMARK    1  A    between atoms: C_3  and  C_11
REMARK    2  A    between atoms: C_4  and  C_18
REMARK    3  A    between atoms: C_5  and  C_24
REMARK    4  A    between atoms: C_24  and  N_25
REMARK    5  A    between atoms: N_25  and  C_28
REMARK                            x       y       z     vdW  Elec       q    Type
REMARK                         _______ _______ _______ _____ _____    ______ ____
ROOT
ATOM      1  N   UNL     1      35.097 -23.566 -14.041  0.00  0.00    -0.315 N 
ATOM      2  N   UNL     1      33.315 -24.152 -12.852  0.00  0.00    -0.317 N 
ATOM      3  C   UNL     1      32.961 -23.939 -14.161  0.00  0.00    +0.063 C 
ATOM      4  C   UNL     1      34.050 -23.575 -14.918  0.00  0.00    +0.085 C 
ATOM      5  C   UNL     1      34.609 -23.918 -12.813  0.00  0.00    +0.164 C 
ATOM      6  H   UNL     1      36.034 -23.347 -14.253  0.00  0.00    +0.148 HD
ATOM      7  H   UNL     1      32.730 -24.419 -12.106  0.00  0.00    +0.148 HD
ENDROOT
BRANCH   3  11
ATOM      8  N   UNL     1      29.656 -23.258 -15.755  0.00  0.00    -0.170 N 
ATOM      9  N   UNL     1      28.910 -22.388 -16.482  0.00  0.00    -0.150 NA
ATOM     10  N   UNL     1      27.680 -24.248 -15.981  0.00  0.00    -0.206 NA
ATOM     11  C   UNL     1      31.564 -24.105 -14.607  0.00  0.00    +0.031 C 
ATOM     12  C   UNL     1      30.981 -23.125 -15.329  0.00  0.00    +0.092 C 
ATOM     13  C   UNL     1      30.759 -25.289 -14.292  0.00  0.00    +0.006 C 
ATOM     14  C   UNL     1      28.881 -24.382 -15.463  0.00  0.00    +0.157 C 
ATOM     15  C   UNL     1      29.484 -25.418 -14.701  0.00  0.00    +0.036 C 
ATOM     16  C   UNL     1      27.747 -23.031 -16.584  0.00  0.00    +0.219 C 
ENDBRANCH   3  11
BRANCH   4  18
ATOM     17  N   UNL     1      35.347 -22.613 -16.627  0.00  0.00    -0.409 NA
ATOM     18  C   UNL     1      34.197 -23.251 -16.314  0.00  0.00    +0.127 C 
ATOM     19  C   UNL     1      33.220 -23.585 -17.238  0.00  0.00    +0.086 C 
ATOM     20  C   UNL     1      35.522 -22.295 -17.929  0.00  0.00    +0.109 C 
ATOM     21  C   UNL     1      33.437 -23.241 -18.568  0.00  0.00    -0.016 C 
ATOM     22  C   UNL     1      34.607 -22.584 -18.928  0.00  0.00    +0.023 C 
ATOM     23  C   UNL     1      36.790 -21.588 -18.280  0.00  0.00    +0.066 C 
ENDBRANCH   4  18
BRANCH   5  24
ATOM     24  C   UNL     1      35.488 -24.006 -11.633  0.00  0.00    +0.128 C 
BRANCH  24  25
ATOM     25  N   UNL     1      36.198 -25.274 -11.588  0.00  0.00    -0.328 N 
ATOM     26  H   UNL     1      35.958 -25.918 -10.884  0.00  0.00    +0.147 HD
BRANCH  25  28
ATOM     27  F   UNL     1      38.675 -24.042 -11.511  0.00  0.00    -0.203 F 
ATOM     28  C   UNL     1      37.190 -25.620 -12.483  0.00  0.00    +0.073 C 
ATOM     29  C   UNL     1      38.432 -24.988 -12.430  0.00  0.00    +0.153 C 
ATOM     30  C   UNL     1      36.949 -26.603 -13.444  0.00  0.00    +0.017 C 
ATOM     31  C   UNL     1      39.434 -25.339 -13.334  0.00  0.00    +0.031 C 
ATOM     32  C   UNL     1      37.951 -26.953 -14.350  0.00  0.00    +0.001 C 
ATOM     33  C   UNL     1      39.193 -26.322 -14.295  0.00  0.00    +0.002 C 
ENDBRANCH  25  28
ENDBRANCH  24  25
ENDBRANCH   5  24
TORSDOF 5
ENDMDL
MODEL 5
REMARK VINA RESULT:     -11.3      1.395      4.762
REMARK  Name = 54766013
REMARK  5 active torsions:
REMARK  status: ('A' for Active; 'I' for Inactive)
REMARK    1  A    between atoms: C_3  and  C_11
REMARK    2  A    between atoms: C_4  and  C_18
REMARK    3  A    between atoms: C_5  and  C_24
REMARK    4  A    between atoms: C_24  and  N_25
REMARK    5  A    between atoms: N_25  and  C_28
REMARK                            x       y       z     vdW  Elec       q    Type
REMARK                         _______ _______ _______ _____ _____    ______ ____
ROOT
ATOM      1  N   UNL     1      33.992 -25.032 -12.858  0.00  0.00    -0.315 N 
ATOM      2  N   UNL     1      33.123 -24.236 -14.741  0.00  0.00    -0.317 N 
ATOM      3  C   UNL     1      34.460 -23.936 -14.674  0.00  0.00    +0.063 C 
ATOM      4  C   UNL     1      35.021 -24.420 -13.515  0.00  0.00    +0.085 C 
ATOM      5  C   UNL     1      32.872 -24.896 -13.631  0.00  0.00    +0.164 C 
ATOM      6  H   UNL     1      34.046 -25.488 -11.987  0.00  0.00    +0.148 HD
ATOM      7  H   UNL     1      32.490 -24.008 -15.460  0.00  0.00    +0.148 HD
ENDROOT
BRANCH   3  11
ATOM      8  N   UNL     1      35.122 -22.353 -17.988  0.00  0.00    -0.170 N 
ATOM      9  N   UNL     1      34.657 -22.116 -19.241  0.00  0.00    -0.150 NA
ATOM     10  N   UNL     1      36.724 -21.177 -18.982  0.00  0.00    -0.206 NA
ATOM     11  C   UNL     1      35.127 -23.186 -15.757  0.00  0.00    +0.031 C 
ATOM     12  C   UNL     1      34.505 -23.052 -16.947  0.00  0.00    +0.092 C 
ATOM     13  C   UNL     1      36.453 -22.580 -15.610  0.00  0.00    +0.006 C 
ATOM     14  C   UNL     1      36.385 -21.770 -17.859  0.00  0.00    +0.157 C 
ATOM     15  C   UNL     1      37.048 -21.907 -16.611  0.00  0.00    +0.036 C 
ATOM     16  C   UNL     1      35.651 -21.415 -19.783  0.00  0.00    +0.219 C 
ENDBRANCH   3  11
BRANCH   4  18
ATOM     17  N   UNL     1      37.245 -25.177 -13.612  0.00  0.00    -0.409 NA
ATOM     18  C   UNL     1      36.362 -24.366 -12.989  0.00  0.00    +0.127 C 
ATOM     19  C   UNL     1      36.687 -23.533 -11.930  0.00  0.00    +0.086 C 
ATOM     20  C   UNL     1      38.515 -25.152 -13.148  0.00  0.00    +0.109 C 
ATOM     21  C   UNL     1      38.003 -23.536 -11.482  0.00  0.00    -0.016 C 
ATOM     22  C   UNL     1      38.941 -24.357 -12.097  0.00  0.00    +0.023 C 
ATOM     23  C   UNL     1      39.494 -26.048 -13.832  0.00  0.00    +0.066 C 
ENDBRANCH   4  18
BRANCH   5  24
ATOM     24  C   UNL     1      31.574 -25.451 -13.207  0.00  0.00    +0.128 C 
BRANCH  24  25
ATOM     25  N   UNL     1      30.524 -24.448 -13.252  0.00  0.00    -0.328 N 
ATOM     26  H   UNL     1      30.341 -23.927 -12.437  0.00  0.00    +0.147 HD
BRANCH  25  28
ATOM     27  F   UNL     1      28.982 -26.428 -14.418  0.00  0.00    -0.203 F 
ATOM     28  C   UNL     1      29.769 -24.188 -14.379  0.00  0.00    +0.073 C 
ATOM     29  C   UNL     1      28.998 -25.199 -14.953  0.00  0.00    +0.153 C 
ATOM     30  C   UNL     1      29.780 -22.913 -14.945  0.00  0.00    +0.017 C 
ATOM     31  C   UNL     1      28.237 -24.935 -16.091  0.00  0.00    +0.031 C 
ATOM     32  C   UNL     1      29.018 -22.649 -16.084  0.00  0.00    +0.001 C 
ATOM     33  C   UNL     1      28.247 -23.660 -16.657  0.00  0.00    +0.002 C 
ENDBRANCH  25  28
ENDBRANCH  24  25
ENDBRANCH   5  24
TORSDOF 5
ENDMDL
MODEL 6
REMARK VINA RESULT:     -11.2      3.425      7.903
REMARK  Name = 54766013
REMARK  5 active torsions:
REMARK  status: ('A' for Active; 'I' for Inactive)
REMARK    1  A    between atoms: C_3  and  C_11
REMARK    2  A    between atoms: C_4  and  C_18
REMARK    3  A    between atoms: C_5  and  C_24
REMARK    4  A    between atoms: C_24  and  N_25
REMARK    5  A    between atoms: N_25  and  C_28
REMARK                            x       y       z     vdW  Elec       q    Type
REMARK                         _______ _______ _______ _____ _____    ______ ____
ROOT
ATOM      1  N   UNL     1      36.790 -22.723 -17.018  0.00  0.00    -0.315 N 
ATOM      2  N   UNL     1      34.779 -22.371 -17.892  0.00  0.00    -0.317 N 
ATOM      3  C   UNL     1      34.661 -22.970 -16.663  0.00  0.00    +0.063 C 
ATOM      4  C   UNL     1      35.895 -23.197 -16.101  0.00  0.00    +0.085 C 
ATOM      5  C   UNL     1      36.074 -22.236 -18.076  0.00  0.00    +0.164 C 
ATOM      6  H   UNL     1      37.771 -22.729 -16.932  0.00  0.00    +0.148 HD
ATOM      7  H   UNL     1      34.054 -22.103 -18.502  0.00  0.00    +0.148 HD
ENDROOT
BRANCH   3  11
ATOM      8  N   UNL     1      30.960 -23.184 -16.229  0.00  0.00    -0.170 N 
ATOM      9  N   UNL     1      29.743 -22.874 -16.741  0.00  0.00    -0.150 NA
ATOM     10  N   UNL     1      29.499 -24.007 -14.772  0.00  0.00    -0.206 NA
ATOM     11  C   UNL     1      33.336 -23.291 -16.096  0.00  0.00    +0.031 C 
ATOM     12  C   UNL     1      32.224 -22.898 -16.752  0.00  0.00    +0.092 C 
ATOM     13  C   UNL     1      33.161 -24.013 -14.833  0.00  0.00    +0.006 C 
ATOM     14  C   UNL     1      30.782 -23.874 -15.028  0.00  0.00    +0.157 C 
ATOM     15  C   UNL     1      31.946 -24.289 -14.328  0.00  0.00    +0.036 C 
ATOM     16  C   UNL     1      28.915 -23.388 -15.833  0.00  0.00    +0.219 C 
ENDBRANCH   3  11
BRANCH   4  18
ATOM     17  N   UNL     1      36.566 -25.111 -14.910  0.00  0.00    -0.409 NA
ATOM     18  C   UNL     1      36.299 -23.788 -14.849  0.00  0.00    +0.127 C 
ATOM     19  C   UNL     1      36.398 -23.029 -13.694  0.00  0.00    +0.086 C 
ATOM     20  C   UNL     1      36.951 -25.700 -13.756  0.00  0.00    +0.109 C 
ATOM     21  C   UNL     1      36.797 -23.671 -12.527  0.00  0.00    -0.016 C 
ATOM     22  C   UNL     1      37.081 -25.031 -12.549  0.00  0.00    +0.023 C 
ATOM     23  C   UNL     1      37.246 -27.162 -13.817  0.00  0.00    +0.066 C 
ENDBRANCH   4  18
BRANCH   5  24
ATOM     24  C   UNL     1      36.743 -21.645 -19.249  0.00  0.00    +0.128 C 
BRANCH  24  25
ATOM     25  N   UNL     1      36.321 -20.271 -19.469  0.00  0.00    -0.328 N 
ATOM     26  H   UNL     1      36.438 -19.625 -18.736  0.00  0.00    +0.147 HD
BRANCH  25  28
ATOM     27  F   UNL     1      37.789 -18.738 -21.244  0.00  0.00    -0.203 F 
ATOM     28  C   UNL     1      35.764 -19.828 -20.651  0.00  0.00    +0.073 C 
ATOM     29  C   UNL     1      36.519 -19.056 -21.534  0.00  0.00    +0.153 C 
ATOM     30  C   UNL     1      34.443 -20.152 -20.963  0.00  0.00    +0.017 C 
ATOM     31  C   UNL     1      35.955 -18.609 -22.729  0.00  0.00    +0.031 C 
ATOM     32  C   UNL     1      33.879 -19.705 -22.158  0.00  0.00    +0.001 C 
ATOM     33  C   UNL     1      34.635 -18.933 -23.041  0.00  0.00    +0.002 C 
ENDBRANCH  25  28
ENDBRANCH  24  25
ENDBRANCH   5  24
TORSDOF 5
ENDMDL
MODEL 7
REMARK VINA RESULT:     -10.8      1.097      1.794
REMARK  Name = 54766013
REMARK  5 active torsions:
REMARK  status: ('A' for Active; 'I' for Inactive)
REMARK    1  A    between atoms: C_3  and  C_11
REMARK    2  A    between atoms: C_4  and  C_18
REMARK    3  A    between atoms: C_5  and  C_24
REMARK    4  A    between atoms: C_24  and  N_25
REMARK    5  A    between atoms: N_25  and  C_28
REMARK                            x       y       z     vdW  Elec       q    Type
REMARK                         _______ _______ _______ _____ _____    ______ ____
ROOT
ATOM      1  N   UNL     1      32.600 -23.715 -14.858  0.00  0.00    -0.315 N 
ATOM      2  N   UNL     1      33.476 -25.182 -13.439  0.00  0.00    -0.317 N 
ATOM      3  C   UNL     1      34.400 -24.838 -14.393  0.00  0.00    +0.063 C 
ATOM      4  C   UNL     1      33.880 -23.929 -15.284  0.00  0.00    +0.085 C 
ATOM      5  C   UNL     1      32.402 -24.488 -13.748  0.00  0.00    +0.164 C 
ATOM      6  H   UNL     1      31.941 -23.114 -15.274  0.00  0.00    +0.148 HD
ATOM      7  H   UNL     1      33.590 -25.810 -12.689  0.00  0.00    +0.148 HD
ENDROOT
BRANCH   3  11
ATOM      8  N   UNL     1      38.070 -25.242 -13.849  0.00  0.00    -0.170 N 
ATOM      9  N   UNL     1      39.210 -24.683 -13.370  0.00  0.00    -0.150 NA
ATOM     10  N   UNL     1      39.654 -26.753 -14.229  0.00  0.00    -0.206 NA
ATOM     11  C   UNL     1      35.756 -25.422 -14.383  0.00  0.00    +0.031 C 
ATOM     12  C   UNL     1      36.777 -24.712 -13.860  0.00  0.00    +0.092 C 
ATOM     13  C   UNL     1      36.060 -26.747 -14.933  0.00  0.00    +0.006 C 
ATOM     14  C   UNL     1      38.371 -26.504 -14.367  0.00  0.00    +0.157 C 
ATOM     15  C   UNL     1      37.303 -27.258 -14.923  0.00  0.00    +0.036 C 
ATOM     16  C   UNL     1      40.116 -25.626 -13.623  0.00  0.00    +0.219 C 
ENDBRANCH   3  11
BRANCH   4  18
ATOM     17  N   UNL     1      35.576 -22.584 -16.203  0.00  0.00    -0.409 NA
ATOM     18  C   UNL     1      34.439 -23.275 -16.440  0.00  0.00    +0.127 C 
ATOM     19  C   UNL     1      33.834 -23.370 -17.684  0.00  0.00    +0.086 C 
ATOM     20  C   UNL     1      36.131 -21.958 -17.265  0.00  0.00    +0.109 C 
ATOM     21  C   UNL     1      34.436 -22.713 -18.752  0.00  0.00    -0.016 C 
ATOM     22  C   UNL     1      35.606 -21.992 -18.547  0.00  0.00    +0.023 C 
ATOM     23  C   UNL     1      37.386 -21.192 -17.009  0.00  0.00    +0.066 C 
ENDBRANCH   4  18
BRANCH   5  24
ATOM     24  C   UNL     1      31.112 -24.490 -13.034  0.00  0.00    +0.128 C 
BRANCH  24  25
ATOM     25  N   UNL     1      30.080 -25.173 -13.797  0.00  0.00    -0.328 N 
ATOM     26  H   UNL     1      29.892 -26.115 -13.588  0.00  0.00    +0.147 HD
BRANCH  25  28
ATOM     27  F   UNL     1      29.810 -22.420 -13.894  0.00  0.00    -0.203 F 
ATOM     28  C   UNL     1      29.353 -24.566 -14.801  0.00  0.00    +0.073 C 
ATOM     29  C   UNL     1      29.227 -23.178 -14.834  0.00  0.00    +0.153 C 
ATOM     30  C   UNL     1      28.741 -25.345 -15.785  0.00  0.00    +0.017 C 
ATOM     31  C   UNL     1      28.491 -22.567 -15.849  0.00  0.00    +0.031 C 
ATOM     32  C   UNL     1      28.005 -24.734 -16.800  0.00  0.00    +0.001 C 
ATOM     33  C   UNL     1      27.880 -23.345 -16.833  0.00  0.00    +0.002 C 
ENDBRANCH  25  28
ENDBRANCH  24  25
ENDBRANCH   5  24
TORSDOF 5
ENDMDL
MODEL 8
REMARK VINA RESULT:     -10.5      3.017      6.510
REMARK  Name = 54766013
REMARK  5 active torsions:
REMARK  status: ('A' for Active; 'I' for Inactive)
REMARK    1  A    between atoms: C_3  and  C_11
REMARK    2  A    between atoms: C_4  and  C_18
REMARK    3  A    between atoms: C_5  and  C_24
REMARK    4  A    between atoms: C_24  and  N_25
REMARK    5  A    between atoms: N_25  and  C_28
REMARK                            x       y       z     vdW  Elec       q    Type
REMARK                         _______ _______ _______ _____ _____    ______ ____
ROOT
ATOM      1  N   UNL     1      34.218 -22.561 -17.539  0.00  0.00    -0.315 N 
ATOM      2  N   UNL     1      36.199 -22.881 -16.589  0.00  0.00    -0.317 N 
ATOM      3  C   UNL     1      35.203 -23.360 -15.776  0.00  0.00    +0.063 C 
ATOM      4  C   UNL     1      33.965 -23.173 -16.344  0.00  0.00    +0.085 C 
ATOM      5  C   UNL     1      35.572 -22.406 -17.643  0.00  0.00    +0.164 C 
ATOM      6  H   UNL     1      33.547 -22.282 -18.204  0.00  0.00    +0.148 HD
ATOM      7  H   UNL     1      37.170 -22.890 -16.421  0.00  0.00    +0.148 HD
ENDROOT
BRANCH   3  11
ATOM      8  N   UNL     1      36.700 -25.612 -13.204  0.00  0.00    -0.170 N 
ATOM      9  N   UNL     1      37.549 -26.642 -12.959  0.00  0.00    -0.150 NA
ATOM     10  N   UNL     1      36.584 -25.943 -11.010  0.00  0.00    -0.206 NA
ATOM     11  C   UNL     1      35.516 -23.981 -14.474  0.00  0.00    +0.031 C 
ATOM     12  C   UNL     1      36.396 -25.004 -14.424  0.00  0.00    +0.092 C 
ATOM     13  C   UNL     1      34.904 -23.549 -13.214  0.00  0.00    +0.006 C 
ATOM     14  C   UNL     1      36.124 -25.207 -11.997  0.00  0.00    +0.157 C 
ATOM     15  C   UNL     1      35.196 -24.133 -12.039  0.00  0.00    +0.036 C 
ATOM     16  C   UNL     1      37.439 -26.793 -11.641  0.00  0.00    +0.219 C 
ENDBRANCH   3  11
BRANCH   4  18
ATOM     17  N   UNL     1      32.581 -24.285 -14.803  0.00  0.00    -0.409 NA
ATOM     18  C   UNL     1      32.633 -23.496 -15.898  0.00  0.00    +0.127 C 
ATOM     19  C   UNL     1      31.515 -23.013 -16.561  0.00  0.00    +0.086 C 
ATOM     20  C   UNL     1      31.347 -24.607 -14.352  0.00  0.00    +0.109 C 
ATOM     21  C   UNL     1      30.264 -23.366 -16.066  0.00  0.00    -0.016 C 
ATOM     22  C   UNL     1      30.169 -24.177 -14.942  0.00  0.00    +0.023 C 
ATOM     23  C   UNL     1      31.284 -25.481 -13.144  0.00  0.00    +0.066 C 
ENDBRANCH   4  18
BRANCH   5  24
ATOM     24  C   UNL     1      36.184 -21.773 -18.825  0.00  0.00    +0.128 C 
BRANCH  24  25
ATOM     25  N   UNL     1      35.178 -21.221 -19.717  0.00  0.00    -0.328 N 
ATOM     26  H   UNL     1      34.261 -21.575 -19.662  0.00  0.00    +0.147 HD
BRANCH  25  28
ATOM     27  F   UNL     1      33.217 -20.336 -21.458  0.00  0.00    -0.203 F 
ATOM     28  C   UNL     1      35.442 -20.227 -20.637  0.00  0.00    +0.073 C 
ATOM     29  C   UNL     1      34.442 -19.793 -21.506  0.00  0.00    +0.153 C 
ATOM     30  C   UNL     1      36.714 -19.655 -20.697  0.00  0.00    +0.017 C 
ATOM     31  C   UNL     1      34.711 -18.789 -22.435  0.00  0.00    +0.031 C 
ATOM     32  C   UNL     1      36.983 -18.650 -21.627  0.00  0.00    +0.001 C 
ATOM     33  C   UNL     1      35.982 -18.217 -22.495  0.00  0.00    +0.002 C 
ENDBRANCH  25  28
ENDBRANCH  24  25
ENDBRANCH   5  24
TORSDOF 5
ENDMDL
MODEL 9
REMARK VINA RESULT:     -10.0     12.752     16.582
REMARK  Name = 54766013
REMARK  5 active torsions:
REMARK  status: ('A' for Active; 'I' for Inactive)
REMARK    1  A    between atoms: C_3  and  C_11
REMARK    2  A    between atoms: C_4  and  C_18
REMARK    3  A    between atoms: C_5  and  C_24
REMARK    4  A    between atoms: C_24  and  N_25
REMARK    5  A    between atoms: N_25  and  C_28
REMARK                            x       y       z     vdW  Elec       q    Type
REMARK                         _______ _______ _______ _____ _____    ______ ____
ROOT
ATOM      1  N   UNL     1      32.529 -12.557 -22.119  0.00  0.00    -0.315 N 
ATOM      2  N   UNL     1      33.457 -11.857 -24.010  0.00  0.00    -0.317 N 
ATOM      3  C   UNL     1      33.202 -10.790 -23.187  0.00  0.00    +0.063 C 
ATOM      4  C   UNL     1      32.627 -11.199 -22.007  0.00  0.00    +0.085 C 
ATOM      5  C   UNL     1      33.040 -12.907 -23.338  0.00  0.00    +0.164 C 
ATOM      6  H   UNL     1      32.159 -13.173 -21.445  0.00  0.00    +0.148 HD
ATOM      7  H   UNL     1      33.863 -11.840 -24.908  0.00  0.00    +0.148 HD
ENDROOT
BRANCH   3  11
ATOM      8  N   UNL     1      32.857  -7.298 -24.459  0.00  0.00    -0.170 N 
ATOM      9  N   UNL     1      32.016  -6.349 -24.940  0.00  0.00    -0.150 NA
ATOM     10  N   UNL     1      34.149  -5.532 -24.848  0.00  0.00    -0.206 NA
ATOM     11  C   UNL     1      33.538  -9.413 -23.599  0.00  0.00    +0.031 C 
ATOM     12  C   UNL     1      32.560  -8.603 -24.056  0.00  0.00    +0.092 C 
ATOM     13  C   UNL     1      34.900  -8.874 -23.550  0.00  0.00    +0.006 C 
ATOM     14  C   UNL     1      34.151  -6.773 -24.415  0.00  0.00    +0.157 C 
ATOM     15  C   UNL     1      35.188  -7.618 -23.938  0.00  0.00    +0.036 C 
ATOM     16  C   UNL     1      32.839  -5.323 -25.153  0.00  0.00    +0.219 C 
ENDBRANCH   3  11
BRANCH   4  18
ATOM     17  N   UNL     1      32.598  -9.194 -20.779  0.00  0.00    -0.409 NA
ATOM     18  C   UNL     1      32.180 -10.478 -20.842  0.00  0.00    +0.127 C 
ATOM     19  C   UNL     1      31.382 -11.081 -19.883  0.00  0.00    +0.086 C 
ATOM     20  C   UNL     1      32.197  -8.484 -19.701  0.00  0.00    +0.109 C 
ATOM     21  C   UNL     1      30.989 -10.317 -18.789  0.00  0.00    -0.016 C 
ATOM     22  C   UNL     1      31.400  -8.993 -18.689  0.00  0.00    +0.023 C 
ATOM     23  C   UNL     1      32.658  -7.066 -19.626  0.00  0.00    +0.066 C 
ENDBRANCH   4  18
BRANCH   5  24
ATOM     24  C   UNL     1      33.085 -14.313 -23.777  0.00  0.00    +0.128 C 
BRANCH  24  25
ATOM     25  N   UNL     1      34.425 -14.865 -23.667  0.00  0.00    -0.328 N 
ATOM     26  H   UNL     1      35.172 -14.357 -24.057  0.00  0.00    +0.147 HD
BRANCH  25  28
ATOM     27  F   UNL     1      34.828 -14.986 -20.931  0.00  0.00    -0.203 F 
ATOM     28  C   UNL     1      34.704 -16.064 -23.043  0.00  0.00    +0.073 C 
ATOM     29  C   UNL     1      34.904 -16.107 -21.664  0.00  0.00    +0.153 C 
ATOM     30  C   UNL     1      34.786 -17.237 -23.796  0.00  0.00    +0.017 C 
ATOM     31  C   UNL     1      35.185 -17.319 -21.036  0.00  0.00    +0.031 C 
ATOM     32  C   UNL     1      35.068 -18.450 -23.167  0.00  0.00    +0.001 C 
ATOM     33  C   UNL     1      35.267 -18.492 -21.788  0.00  0.00    +0.002 C 
ENDBRANCH  25  28
ENDBRANCH  24  25
ENDBRANCH   5  24
TORSDOF 5
ENDMDL
