MODEL 1
REMARK VINA RESULT:     -11.1      0.000      0.000
REMARK  Name = 46213929
REMARK  4 active torsions:
REMARK  status: ('A' for Active; 'I' for Inactive)
REMARK    1  A    between atoms: C_7  and  C_20
REMARK    2  A    between atoms: C_9  and  C_28
REMARK    3  A    between atoms: C_20  and  N_22
REMARK    4  A    between atoms: C_28  and  C_31
REMARK                            x       y       z     vdW  Elec       q    Type
REMARK                         _______ _______ _______ _____ _____    ______ ____
ROOT
ATOM      1  N   UNL     1      34.217 -23.780 -14.458  0.00  0.00    -0.179 N 
ATOM      2  N   UNL     1      33.271 -24.846 -12.747  0.00  0.00    -0.393 NA
ATOM      3  N   UNL     1      34.398 -23.227 -15.683  0.00  0.00    -0.160 NA
ATOM      4  N   UNL     1      33.450 -22.819 -17.767  0.00  0.00    -0.281 N 
ATOM      5  N   UNL     1      35.693 -21.886 -17.718  0.00  0.00    -0.166 NA
ATOM      6  N   UNL     1      36.388 -21.225 -18.660  0.00  0.00    -0.239 N 
ATOM      7  C   UNL     1      31.985 -24.571 -14.868  0.00  0.00    +0.005 C 
ATOM      8  C   UNL     1      33.097 -24.438 -13.990  0.00  0.00    +0.196 C 
ATOM      9  C   UNL     1      35.140 -23.781 -13.445  0.00  0.00    +0.151 C 
ATOM     10  C   UNL     1      32.107 -24.041 -16.097  0.00  0.00    +0.034 C 
ATOM     11  C   UNL     1      34.534 -24.442 -12.404  0.00  0.00    +0.109 C 
ATOM     12  C   UNL     1      33.377 -23.345 -16.496  0.00  0.00    +0.151 C 
ATOM     13  C   UNL     1      35.072 -24.733 -11.066  0.00  0.00    +0.063 C 
ATOM     14  C   UNL     1      34.530 -22.143 -18.324  0.00  0.00    +0.152 C 
ATOM     15  C   UNL     1      34.483 -21.650 -19.642  0.00  0.00    +0.048 C 
ATOM     16  C   UNL     1      35.708 -21.057 -19.831  0.00  0.00    +0.046 C 
ATOM     17  C   UNL     1      36.295 -20.358 -20.985  0.00  0.00    +0.049 C 
ATOM     18  H   UNL     1      32.658 -22.935 -18.339  0.00  0.00    +0.155 HD
ATOM     19  H   UNL     1      37.303 -20.893 -18.518  0.00  0.00    +0.174 HD
ENDROOT
BRANCH   7  20
ATOM     20  C   UNL     1      30.708 -25.267 -14.477  0.00  0.00    -0.046 C 
BRANCH  20  22
ATOM     21  O   UNL     1      28.206 -22.445 -16.319  0.00  0.00    -0.358 OA
ATOM     22  N   UNL     1      29.533 -24.468 -14.820  0.00  0.00    +0.393 N 
ATOM     23  C   UNL     1      29.780 -23.041 -14.573  0.00  0.00    -0.044 C 
ATOM     24  C   UNL     1      29.152 -24.678 -16.224  0.00  0.00    -0.044 C 
ATOM     25  C   UNL     1      28.545 -22.229 -14.949  0.00  0.00    +0.119 C 
ATOM     26  C   UNL     1      27.932 -23.826 -16.562  0.00  0.00    +0.119 C 
ATOM     27  H   UNL     1      28.763 -24.774 -14.225  0.00  0.00    -0.079 HD
ENDBRANCH  20  22
ENDBRANCH   7  20
BRANCH   9  28
ATOM     28  C   UNL     1      36.474 -23.164 -13.568  0.00  0.00    +0.057 C 
BRANCH  28  31
ATOM     29 CL   UNL     1      41.023 -27.109 -13.939  0.00  0.00    -0.082 Cl
ATOM     30  F   UNL     1      38.162 -23.390 -15.844  0.00  0.00    -0.204 F 
ATOM     31  C   UNL     1      37.622 -24.159 -13.664  0.00  0.00    +0.007 C 
ATOM     32  C   UNL     1      38.409 -24.212 -14.816  0.00  0.00    +0.137 C 
ATOM     33  C   UNL     1      37.888 -25.019 -12.598  0.00  0.00    -0.001 C 
ATOM     34  C   UNL     1      39.461 -25.124 -14.900  0.00  0.00    +0.041 C 
ATOM     35  C   UNL     1      38.939 -25.931 -12.683  0.00  0.00    +0.011 C 
ATOM     36  C   UNL     1      39.727 -25.984 -13.834  0.00  0.00    +0.060 C 
ENDBRANCH  28  31
ENDBRANCH   9  28
TORSDOF 4
ENDMDL
MODEL 2
REMARK VINA RESULT:     -10.6      2.872      6.190
REMARK  Name = 46213929
REMARK  4 active torsions:
REMARK  status: ('A' for Active; 'I' for Inactive)
REMARK    1  A    between atoms: C_7  and  C_20
REMARK    2  A    between atoms: C_9  and  C_28
REMARK    3  A    between atoms: C_20  and  N_22
REMARK    4  A    between atoms: C_28  and  C_31
REMARK                            x       y       z     vdW  Elec       q    Type
REMARK                         _______ _______ _______ _____ _____    ______ ____
ROOT
ATOM      1  N   UNL     1      34.032 -23.301 -16.533  0.00  0.00    -0.179 N 
ATOM      2  N   UNL     1      31.992 -22.583 -17.066  0.00  0.00    -0.393 NA
ATOM      3  N   UNL     1      35.056 -23.853 -15.837  0.00  0.00    -0.160 NA
ATOM      4  N   UNL     1      35.696 -24.891 -13.857  0.00  0.00    -0.281 N 
ATOM      5  N   UNL     1      37.632 -24.693 -15.312  0.00  0.00    -0.166 NA
ATOM      6  N   UNL     1      38.908 -25.074 -15.129  0.00  0.00    -0.239 N 
ATOM      7  C   UNL     1      32.359 -23.662 -14.845  0.00  0.00    +0.005 C 
ATOM      8  C   UNL     1      32.717 -23.170 -16.133  0.00  0.00    +0.196 C 
ATOM      9  C   UNL     1      34.127 -22.761 -17.789  0.00  0.00    +0.151 C 
ATOM     10  C   UNL     1      33.335 -24.221 -14.109  0.00  0.00    +0.034 C 
ATOM     11  C   UNL     1      32.860 -22.327 -18.094  0.00  0.00    +0.109 C 
ATOM     12  C   UNL     1      34.734 -24.308 -14.652  0.00  0.00    +0.151 C 
ATOM     13  C   UNL     1      32.387 -21.667 -19.321  0.00  0.00    +0.063 C 
ATOM     14  C   UNL     1      37.039 -25.065 -14.174  0.00  0.00    +0.152 C 
ATOM     15  C   UNL     1      37.929 -25.679 -13.273  0.00  0.00    +0.048 C 
ATOM     16  C   UNL     1      39.138 -25.670 -13.924  0.00  0.00    +0.046 C 
ATOM     17  C   UNL     1      40.470 -26.160 -13.533  0.00  0.00    +0.049 C 
ATOM     18  H   UNL     1      35.404 -25.216 -12.976  0.00  0.00    +0.155 HD
ATOM     19  H   UNL     1      39.611 -24.936 -15.803  0.00  0.00    +0.174 HD
ENDROOT
BRANCH   7  20
ATOM     20  C   UNL     1      30.961 -23.579 -14.294  0.00  0.00    -0.046 C 
BRANCH  20  22
ATOM     21  O   UNL     1      27.303 -23.866 -16.333  0.00  0.00    -0.358 OA
ATOM     22  N   UNL     1      29.961 -23.566 -15.360  0.00  0.00    +0.393 N 
ATOM     23  C   UNL     1      29.344 -24.890 -15.514  0.00  0.00    -0.044 C 
ATOM     24  C   UNL     1      28.928 -22.556 -15.095  0.00  0.00    -0.044 C 
ATOM     25  C   UNL     1      28.298 -24.848 -16.624  0.00  0.00    +0.119 C 
ATOM     26  C   UNL     1      27.891 -22.569 -16.214  0.00  0.00    +0.119 C 
ATOM     27  H   UNL     1      30.436 -23.324 -16.230  0.00  0.00    -0.079 HD
ENDBRANCH  20  22
ENDBRANCH   7  20
BRANCH   9  28
ATOM     28  C   UNL     1      35.387 -22.716 -18.555  0.00  0.00    +0.057 C 
BRANCH  28  31
ATOM     29 CL   UNL     1      35.977 -17.879 -22.112  0.00  0.00    -0.082 Cl
ATOM     30  F   UNL     1      37.396 -20.739 -18.181  0.00  0.00    -0.204 F 
ATOM     31  C   UNL     1      35.537 -21.494 -19.451  0.00  0.00    +0.007 C 
ATOM     32  C   UNL     1      36.550 -20.565 -19.205  0.00  0.00    +0.137 C 
ATOM     33  C   UNL     1      34.662 -21.305 -20.521  0.00  0.00    -0.001 C 
ATOM     34  C   UNL     1      36.685 -19.447 -20.029  0.00  0.00    +0.041 C 
ATOM     35  C   UNL     1      34.797 -20.187 -21.343  0.00  0.00    +0.011 C 
ATOM     36  C   UNL     1      35.810 -19.258 -21.097  0.00  0.00    +0.060 C 
ENDBRANCH  28  31
ENDBRANCH   9  28
TORSDOF 4
ENDMDL
MODEL 3
REMARK VINA RESULT:     -10.3      3.910      7.335
REMARK  Name = 46213929
REMARK  4 active torsions:
REMARK  status: ('A' for Active; 'I' for Inactive)
REMARK    1  A    between atoms: C_7  and  C_20
REMARK    2  A    between atoms: C_9  and  C_28
REMARK    3  A    between atoms: C_20  and  N_22
REMARK    4  A    between atoms: C_28  and  C_31
REMARK                            x       y       z     vdW  Elec       q    Type
REMARK                         _______ _______ _______ _____ _____    ______ ____
ROOT
ATOM      1  N   UNL     1      33.727 -23.755 -15.347  0.00  0.00    -0.179 N 
ATOM      2  N   UNL     1      33.406 -24.790 -13.401  0.00  0.00    -0.393 NA
ATOM      3  N   UNL     1      34.327 -23.072 -16.353  0.00  0.00    -0.160 NA
ATOM      4  N   UNL     1      36.287 -22.057 -17.085  0.00  0.00    -0.281 N 
ATOM      5  N   UNL     1      34.583 -21.821 -18.800  0.00  0.00    -0.166 NA
ATOM      6  N   UNL     1      34.629 -21.231 -20.007  0.00  0.00    -0.239 N 
ATOM      7  C   UNL     1      35.640 -23.793 -13.893  0.00  0.00    +0.005 C 
ATOM      8  C   UNL     1      34.282 -24.138 -14.142  0.00  0.00    +0.196 C 
ATOM      9  C   UNL     1      32.429 -24.195 -15.352  0.00  0.00    +0.151 C 
ATOM     10  C   UNL     1      36.287 -23.115 -14.856  0.00  0.00    +0.034 C 
ATOM     11  C   UNL     1      32.257 -24.828 -14.145  0.00  0.00    +0.109 C 
ATOM     12  C   UNL     1      35.579 -22.752 -16.130  0.00  0.00    +0.151 C 
ATOM     13  C   UNL     1      31.051 -25.488 -13.620  0.00  0.00    +0.063 C 
ATOM     14  C   UNL     1      35.815 -21.630 -18.322  0.00  0.00    +0.152 C 
ATOM     15  C   UNL     1      36.642 -20.925 -19.216  0.00  0.00    +0.048 C 
ATOM     16  C   UNL     1      35.840 -20.679 -20.304  0.00  0.00    +0.046 C 
ATOM     17  C   UNL     1      36.096 -19.988 -21.578  0.00  0.00    +0.049 C 
ATOM     18  H   UNL     1      37.223 -21.840 -16.869  0.00  0.00    +0.155 HD
ATOM     19  H   UNL     1      33.860 -21.200 -20.619  0.00  0.00    +0.174 HD
ENDROOT
BRANCH   7  20
ATOM     20  C   UNL     1      36.359 -24.152 -12.619  0.00  0.00    -0.046 C 
BRANCH  20  22
ATOM     21  O   UNL     1      38.974 -26.912 -14.398  0.00  0.00    -0.358 OA
ATOM     22  N   UNL     1      37.255 -25.291 -12.810  0.00  0.00    +0.393 N 
ATOM     23  C   UNL     1      36.724 -26.210 -13.825  0.00  0.00    -0.044 C 
ATOM     24  C   UNL     1      38.599 -24.838 -13.195  0.00  0.00    -0.044 C 
ATOM     25  C   UNL     1      37.681 -27.382 -14.014  0.00  0.00    +0.119 C 
ATOM     26  C   UNL     1      39.513 -26.042 -13.401  0.00  0.00    +0.119 C 
ATOM     27  H   UNL     1      37.322 -25.788 -11.922  0.00  0.00    -0.079 HD
ENDBRANCH  20  22
ENDBRANCH   7  20
BRANCH   9  28
ATOM     28  C   UNL     1      31.507 -23.973 -16.481  0.00  0.00    +0.057 C 
BRANCH  28  31
ATOM     29 CL   UNL     1      25.933 -22.313 -14.879  0.00  0.00    -0.082 Cl
ATOM     30  F   UNL     1      30.973 -22.056 -14.452  0.00  0.00    -0.204 F 
ATOM     31  C   UNL     1      30.101 -23.553 -16.075  0.00  0.00    +0.007 C 
ATOM     32  C   UNL     1      29.917 -22.604 -15.068  0.00  0.00    +0.137 C 
ATOM     33  C   UNL     1      28.995 -24.117 -16.712  0.00  0.00    -0.001 C 
ATOM     34  C   UNL     1      28.627 -22.221 -14.699  0.00  0.00    +0.041 C 
ATOM     35  C   UNL     1      27.706 -23.734 -16.342  0.00  0.00    +0.011 C 
ATOM     36  C   UNL     1      27.522 -22.785 -15.335  0.00  0.00    +0.060 C 
ENDBRANCH  28  31
ENDBRANCH   9  28
TORSDOF 4
ENDMDL
MODEL 4
REMARK VINA RESULT:     -10.0      3.845      7.914
REMARK  Name = 46213929
REMARK  4 active torsions:
REMARK  status: ('A' for Active; 'I' for Inactive)
REMARK    1  A    between atoms: C_7  and  C_20
REMARK    2  A    between atoms: C_9  and  C_28
REMARK    3  A    between atoms: C_20  and  N_22
REMARK    4  A    between atoms: C_28  and  C_31
REMARK                            x       y       z     vdW  Elec       q    Type
REMARK                         _______ _______ _______ _____ _____    ______ ____
ROOT
ATOM      1  N   UNL     1      34.284 -22.812 -16.727  0.00  0.00    -0.179 N 
ATOM      2  N   UNL     1      36.507 -22.908 -16.635  0.00  0.00    -0.393 NA
ATOM      3  N   UNL     1      32.981 -22.878 -16.358  0.00  0.00    -0.160 NA
ATOM      4  N   UNL     1      31.493 -23.328 -14.629  0.00  0.00    -0.281 N 
ATOM      5  N   UNL     1      30.237 -22.718 -16.618  0.00  0.00    -0.166 NA
ATOM      6  N   UNL     1      28.913 -22.619 -16.822  0.00  0.00    -0.239 N 
ATOM      7  C   UNL     1      35.181 -23.455 -14.592  0.00  0.00    +0.005 C 
ATOM      8  C   UNL     1      35.393 -23.072 -15.947  0.00  0.00    +0.196 C 
ATOM      9  C   UNL     1      34.738 -22.468 -17.974  0.00  0.00    +0.151 C 
ATOM     10  C   UNL     1      33.908 -23.537 -14.170  0.00  0.00    +0.034 C 
ATOM     11  C   UNL     1      36.108 -22.534 -17.890  0.00  0.00    +0.109 C 
ATOM     12  C   UNL     1      32.779 -23.230 -15.112  0.00  0.00    +0.151 C 
ATOM     13  C   UNL     1      37.104 -22.264 -18.939  0.00  0.00    +0.063 C 
ATOM     14  C   UNL     1      30.320 -23.087 -15.336  0.00  0.00    +0.152 C 
ATOM     15  C   UNL     1      29.058 -23.222 -14.727  0.00  0.00    +0.048 C 
ATOM     16  C   UNL     1      28.162 -22.910 -15.721  0.00  0.00    +0.046 C 
ATOM     17  C   UNL     1      26.691 -22.858 -15.738  0.00  0.00    +0.049 C 
ATOM     18  H   UNL     1      31.394 -23.596 -13.687  0.00  0.00    +0.155 HD
ATOM     19  H   UNL     1      28.520 -22.359 -17.686  0.00  0.00    +0.174 HD
ENDROOT
BRANCH   7  20
ATOM     20  C   UNL     1      36.306 -23.765 -13.641  0.00  0.00    -0.046 C 
BRANCH  20  22
ATOM     21  O   UNL     1      38.594 -27.264 -14.019  0.00  0.00    -0.358 OA
ATOM     22  N   UNL     1      37.202 -24.786 -14.181  0.00  0.00    +0.393 N 
ATOM     23  C   UNL     1      38.385 -24.949 -13.325  0.00  0.00    -0.044 C 
ATOM     24  C   UNL     1      36.503 -26.071 -14.323  0.00  0.00    -0.044 C 
ATOM     25  C   UNL     1      39.297 -26.026 -13.903  0.00  0.00    +0.119 C 
ATOM     26  C   UNL     1      37.459 -27.123 -14.876  0.00  0.00    +0.119 C 
ATOM     27  H   UNL     1      37.507 -24.477 -15.104  0.00  0.00    -0.079 HD
ENDBRANCH  20  22
ENDBRANCH   7  20
BRANCH   9  28
ATOM     28  C   UNL     1      33.842 -22.118 -19.091  0.00  0.00    +0.057 C 
BRANCH  28  31
ATOM     29 CL   UNL     1      35.801 -17.560 -22.524  0.00  0.00    -0.082 Cl
ATOM     30  F   UNL     1      32.137 -20.587 -20.774  0.00  0.00    -0.204 F 
ATOM     31  C   UNL     1      34.334 -20.968 -19.958  0.00  0.00    +0.007 C 
ATOM     32  C   UNL     1      33.436 -20.261 -20.760  0.00  0.00    +0.137 C 
ATOM     33  C   UNL     1      35.685 -20.619 -19.950  0.00  0.00    -0.001 C 
ATOM     34  C   UNL     1      33.891 -19.207 -21.553  0.00  0.00    +0.041 C 
ATOM     35  C   UNL     1      36.139 -19.566 -20.743  0.00  0.00    +0.011 C 
ATOM     36  C   UNL     1      35.241 -18.859 -21.545  0.00  0.00    +0.060 C 
ENDBRANCH  28  31
ENDBRANCH   9  28
TORSDOF 4
ENDMDL
MODEL 5
REMARK VINA RESULT:      -9.0     13.612     17.356
REMARK  Name = 46213929
REMARK  4 active torsions:
REMARK  status: ('A' for Active; 'I' for Inactive)
REMARK    1  A    between atoms: C_7  and  C_20
REMARK    2  A    between atoms: C_9  and  C_28
REMARK    3  A    between atoms: C_20  and  N_22
REMARK    4  A    between atoms: C_28  and  C_31
REMARK                            x       y       z     vdW  Elec       q    Type
REMARK                         _______ _______ _______ _____ _____    ______ ____
ROOT
ATOM      1  N   UNL     1      32.568  -9.449 -21.527  0.00  0.00    -0.179 N 
ATOM      2  N   UNL     1      31.618 -11.099 -20.371  0.00  0.00    -0.393 NA
ATOM      3  N   UNL     1      33.222  -8.784 -22.511  0.00  0.00    -0.160 NA
ATOM      4  N   UNL     1      34.273  -8.956 -24.578  0.00  0.00    -0.281 N 
ATOM      5  N   UNL     1      34.360  -6.645 -23.834  0.00  0.00    -0.166 NA
ATOM      6  N   UNL     1      34.892  -5.556 -24.415  0.00  0.00    -0.239 N 
ATOM      7  C   UNL     1      32.674 -11.610 -22.574  0.00  0.00    +0.005 C 
ATOM      8  C   UNL     1      32.265 -10.796 -21.480  0.00  0.00    +0.196 C 
ATOM      9  C   UNL     1      32.079  -8.885 -20.378  0.00  0.00    +0.151 C 
ATOM     10  C   UNL     1      33.327 -11.004 -23.580  0.00  0.00    +0.034 C 
ATOM     11  C   UNL     1      31.500  -9.919 -19.684  0.00  0.00    +0.109 C 
ATOM     12  C   UNL     1      33.600  -9.528 -23.521  0.00  0.00    +0.151 C 
ATOM     13  C   UNL     1      30.822  -9.882 -18.379  0.00  0.00    +0.063 C 
ATOM     14  C   UNL     1      34.621  -7.616 -24.713  0.00  0.00    +0.152 C 
ATOM     15  C   UNL     1      35.312  -7.151 -25.848  0.00  0.00    +0.048 C 
ATOM     16  C   UNL     1      35.474  -5.806 -25.624  0.00  0.00    +0.046 C 
ATOM     17  C   UNL     1      36.111  -4.745 -26.421  0.00  0.00    +0.049 C 
ATOM     18  H   UNL     1      34.536  -9.558 -25.311  0.00  0.00    +0.155 HD
ATOM     19  H   UNL     1      34.863  -4.662 -24.007  0.00  0.00    +0.174 HD
ENDROOT
BRANCH   7  20
ATOM     20  C   UNL     1      32.404 -13.091 -22.641  0.00  0.00    -0.046 C 
BRANCH  20  22
ATOM     21  O   UNL     1      34.830 -16.281 -21.392  0.00  0.00    -0.358 OA
ATOM     22  N   UNL     1      33.571 -13.869 -22.230  0.00  0.00    +0.393 N 
ATOM     23  C   UNL     1      33.396 -14.396 -20.869  0.00  0.00    -0.044 C 
ATOM     24  C   UNL     1      33.820 -14.971 -23.169  0.00  0.00    -0.044 C 
ATOM     25  C   UNL     1      34.620 -15.212 -20.468  0.00  0.00    +0.119 C 
ATOM     26  C   UNL     1      35.034 -15.776 -22.713  0.00  0.00    +0.119 C 
ATOM     27  H   UNL     1      34.380 -13.247 -22.237  0.00  0.00    -0.079 HD
ENDBRANCH  20  22
ENDBRANCH   7  20
BRANCH   9  28
ATOM     28  C   UNL     1      32.210  -7.449 -20.066  0.00  0.00    +0.057 C 
BRANCH  28  31
ATOM     29 CL   UNL     1      30.881  -3.768 -24.657  0.00  0.00    -0.082 Cl
ATOM     30  F   UNL     1      33.112  -4.758 -20.219  0.00  0.00    -0.204 F 
ATOM     31  C   UNL     1      31.875  -6.518 -21.223  0.00  0.00    +0.007 C 
ATOM     32  C   UNL     1      32.355  -5.208 -21.229  0.00  0.00    +0.137 C 
ATOM     33  C   UNL     1      31.089  -6.978 -22.280  0.00  0.00    -0.001 C 
ATOM     34  C   UNL     1      32.047  -4.358 -22.291  0.00  0.00    +0.041 C 
ATOM     35  C   UNL     1      30.781  -6.128 -23.341  0.00  0.00    +0.011 C 
ATOM     36  C   UNL     1      31.261  -4.817 -23.347  0.00  0.00    +0.060 C 
ENDBRANCH  28  31
ENDBRANCH   9  28
TORSDOF 4
ENDMDL
MODEL 6
REMARK VINA RESULT:      -8.9     14.771     18.824
REMARK  Name = 46213929
REMARK  4 active torsions:
REMARK  status: ('A' for Active; 'I' for Inactive)
REMARK    1  A    between atoms: C_7  and  C_20
REMARK    2  A    between atoms: C_9  and  C_28
REMARK    3  A    between atoms: C_20  and  N_22
REMARK    4  A    between atoms: C_28  and  C_31
REMARK                            x       y       z     vdW  Elec       q    Type
REMARK                         _______ _______ _______ _____ _____    ______ ____
ROOT
ATOM      1  N   UNL     1      33.560  -8.360 -23.240  0.00  0.00    -0.179 N 
ATOM      2  N   UNL     1      34.254 -10.445 -23.607  0.00  0.00    -0.393 NA
ATOM      3  N   UNL     1      32.795  -7.315 -22.840  0.00  0.00    -0.160 NA
ATOM      4  N   UNL     1      30.811  -6.666 -21.815  0.00  0.00    -0.281 N 
ATOM      5  N   UNL     1      32.062  -4.683 -22.450  0.00  0.00    -0.166 NA
ATOM      6  N   UNL     1      31.775  -3.379 -22.296  0.00  0.00    -0.239 N 
ATOM      7  C   UNL     1      32.060 -10.076 -22.477  0.00  0.00    +0.005 C 
ATOM      8  C   UNL     1      33.283  -9.706 -23.104  0.00  0.00    +0.196 C 
ATOM      9  C   UNL     1      34.776  -8.259 -23.865  0.00  0.00    +0.151 C 
ATOM     10  C   UNL     1      31.259  -9.080 -22.060  0.00  0.00    +0.034 C 
ATOM     11  C   UNL     1      35.181  -9.554 -24.080  0.00  0.00    +0.109 C 
ATOM     12  C   UNL     1      31.667  -7.648 -22.261  0.00  0.00    +0.151 C 
ATOM     13  C   UNL     1      36.417 -10.034 -24.718  0.00  0.00    +0.063 C 
ATOM     14  C   UNL     1      31.004  -5.292 -21.907  0.00  0.00    +0.152 C 
ATOM     15  C   UNL     1      30.050  -4.385 -21.409  0.00  0.00    +0.048 C 
ATOM     16  C   UNL     1      30.581  -3.146 -21.678  0.00  0.00    +0.046 C 
ATOM     17  C   UNL     1      30.086  -1.786 -21.415  0.00  0.00    +0.049 C 
ATOM     18  H   UNL     1      29.977  -6.968 -21.388  0.00  0.00    +0.155 HD
ATOM     19  H   UNL     1      32.371  -2.658 -22.600  0.00  0.00    +0.174 HD
ENDROOT
BRANCH   7  20
ATOM     20  C   UNL     1      31.642 -11.508 -22.271  0.00  0.00    -0.046 C 
BRANCH  20  22
ATOM     21  O   UNL     1      34.008 -14.951 -21.864  0.00  0.00    -0.358 OA
ATOM     22  N   UNL     1      32.798 -12.385 -22.093  0.00  0.00    +0.393 N 
ATOM     23  C   UNL     1      32.657 -13.195 -20.876  0.00  0.00    -0.044 C 
ATOM     24  C   UNL     1      32.975 -13.258 -23.262  0.00  0.00    -0.044 C 
ATOM     25  C   UNL     1      33.868 -14.109 -20.719  0.00  0.00    +0.119 C 
ATOM     26  C   UNL     1      34.178 -14.171 -23.049  0.00  0.00    +0.119 C 
ATOM     27  H   UNL     1      33.625 -11.796 -21.999  0.00  0.00    -0.079 HD
ENDBRANCH  20  22
ENDBRANCH   7  20
BRANCH   9  28
ATOM     28  C   UNL     1      35.413  -6.968 -24.185  0.00  0.00    +0.057 C 
BRANCH  28  31
ATOM     29 CL   UNL     1      32.907  -4.024 -28.816  0.00  0.00    -0.082 Cl
ATOM     30  F   UNL     1      35.802  -7.713 -26.901  0.00  0.00    -0.204 F 
ATOM     31  C   UNL     1      34.782  -6.227 -25.356  0.00  0.00    +0.007 C 
ATOM     32  C   UNL     1      35.019  -6.652 -26.664  0.00  0.00    +0.137 C 
ATOM     33  C   UNL     1      33.965  -5.121 -25.119  0.00  0.00    -0.001 C 
ATOM     34  C   UNL     1      34.439  -5.969 -27.734  0.00  0.00    +0.041 C 
ATOM     35  C   UNL     1      33.385  -4.440 -26.188  0.00  0.00    +0.011 C 
ATOM     36  C   UNL     1      33.622  -4.864 -27.497  0.00  0.00    +0.060 C 
ENDBRANCH  28  31
ENDBRANCH   9  28
TORSDOF 4
ENDMDL
MODEL 7
REMARK VINA RESULT:      -8.7      2.531      6.233
REMARK  Name = 46213929
REMARK  4 active torsions:
REMARK  status: ('A' for Active; 'I' for Inactive)
REMARK    1  A    between atoms: C_7  and  C_20
REMARK    2  A    between atoms: C_9  and  C_28
REMARK    3  A    between atoms: C_20  and  N_22
REMARK    4  A    between atoms: C_28  and  C_31
REMARK                            x       y       z     vdW  Elec       q    Type
REMARK                         _______ _______ _______ _____ _____    ______ ____
ROOT
ATOM      1  N   UNL     1      34.876 -22.782 -16.600  0.00  0.00    -0.179 N 
ATOM      2  N   UNL     1      36.461 -21.790 -17.810  0.00  0.00    -0.393 NA
ATOM      3  N   UNL     1      33.689 -23.333 -16.246  0.00  0.00    -0.160 NA
ATOM      4  N   UNL     1      31.536 -23.871 -16.941  0.00  0.00    -0.281 N 
ATOM      5  N   UNL     1      31.821 -24.568 -14.631  0.00  0.00    -0.166 NA
ATOM      6  N   UNL     1      30.968 -25.169 -13.784  0.00  0.00    -0.239 N 
ATOM      7  C   UNL     1      34.235 -22.231 -18.849  0.00  0.00    +0.005 C 
ATOM      8  C   UNL     1      35.218 -22.234 -17.820  0.00  0.00    +0.196 C 
ATOM      9  C   UNL     1      35.972 -22.670 -15.784  0.00  0.00    +0.151 C 
ATOM     10  C   UNL     1      33.037 -22.766 -18.556  0.00  0.00    +0.034 C 
ATOM     11  C   UNL     1      36.932 -22.057 -16.552  0.00  0.00    +0.109 C 
ATOM     12  C   UNL     1      32.779 -23.335 -17.189  0.00  0.00    +0.151 C 
ATOM     13  C   UNL     1      38.307 -21.690 -16.179  0.00  0.00    +0.063 C 
ATOM     14  C   UNL     1      31.101 -24.442 -15.749  0.00  0.00    +0.152 C 
ATOM     15  C   UNL     1      29.799 -24.959 -15.618  0.00  0.00    +0.048 C 
ATOM     16  C   UNL     1      29.743 -25.426 -14.327  0.00  0.00    +0.046 C 
ATOM     17  C   UNL     1      28.668 -26.080 -13.563  0.00  0.00    +0.049 C 
ATOM     18  H   UNL     1      30.888 -23.847 -17.681  0.00  0.00    +0.155 HD
ATOM     19  H   UNL     1      31.205 -25.404 -12.859  0.00  0.00    +0.174 HD
ENDROOT
BRANCH   7  20
ATOM     20  C   UNL     1      34.485 -21.663 -20.222  0.00  0.00    -0.046 C 
BRANCH  20  22
ATOM     21  O   UNL     1      36.607 -18.217 -21.333  0.00  0.00    -0.358 OA
ATOM     22  N   UNL     1      35.179 -20.379 -20.155  0.00  0.00    +0.393 N 
ATOM     23  C   UNL     1      36.581 -20.520 -20.571  0.00  0.00    -0.044 C 
ATOM     24  C   UNL     1      34.503 -19.377 -20.991  0.00  0.00    -0.044 C 
ATOM     25  C   UNL     1      37.279 -19.165 -20.503  0.00  0.00    +0.119 C 
ATOM     26  C   UNL     1      35.251 -18.049 -20.915  0.00  0.00    +0.119 C 
ATOM     27  H   UNL     1      35.156 -20.062 -19.185  0.00  0.00    -0.079 HD
ENDBRANCH  20  22
ENDBRANCH   7  20
BRANCH   9  28
ATOM     28  C   UNL     1      35.992 -23.148 -14.389  0.00  0.00    +0.057 C 
BRANCH  28  31
ATOM     29 CL   UNL     1      40.576 -26.846 -13.084  0.00  0.00    -0.082 Cl
ATOM     30  F   UNL     1      37.550 -22.926 -12.022  0.00  0.00    -0.204 F 
ATOM     31  C   UNL     1      37.150 -24.079 -14.058  0.00  0.00    +0.007 C 
ATOM     32  C   UNL     1      37.870 -23.909 -12.875  0.00  0.00    +0.137 C 
ATOM     33  C   UNL     1      37.489 -25.106 -14.939  0.00  0.00    -0.001 C 
ATOM     34  C   UNL     1      38.930 -24.765 -12.574  0.00  0.00    +0.041 C 
ATOM     35  C   UNL     1      38.549 -25.962 -14.639  0.00  0.00    +0.011 C 
ATOM     36  C   UNL     1      39.269 -25.791 -13.456  0.00  0.00    +0.060 C 
ENDBRANCH  28  31
ENDBRANCH   9  28
TORSDOF 4
ENDMDL
MODEL 8
REMARK VINA RESULT:      -8.4      3.898      7.081
REMARK  Name = 46213929
REMARK  4 active torsions:
REMARK  status: ('A' for Active; 'I' for Inactive)
REMARK    1  A    between atoms: C_7  and  C_20
REMARK    2  A    between atoms: C_9  and  C_28
REMARK    3  A    between atoms: C_20  and  N_22
REMARK    4  A    between atoms: C_28  and  C_31
REMARK                            x       y       z     vdW  Elec       q    Type
REMARK                         _______ _______ _______ _____ _____    ______ ____
ROOT
ATOM      1  N   UNL     1      34.451 -23.336 -16.162  0.00  0.00    -0.179 N 
ATOM      2  N   UNL     1      34.648 -24.313 -14.170  0.00  0.00    -0.393 NA
ATOM      3  N   UNL     1      34.742 -22.606 -17.267  0.00  0.00    -0.160 NA
ATOM      4  N   UNL     1      36.330 -21.284 -18.334  0.00  0.00    -0.281 N 
ATOM      5  N   UNL     1      34.360 -21.455 -19.747  0.00  0.00    -0.166 NA
ATOM      6  N   UNL     1      34.100 -20.929 -20.955  0.00  0.00    -0.239 N 
ATOM      7  C   UNL     1      36.543 -22.946 -15.046  0.00  0.00    +0.005 C 
ATOM      8  C   UNL     1      35.254 -23.549 -15.059  0.00  0.00    +0.196 C 
ATOM      9  C   UNL     1      33.277 -24.008 -15.943  0.00  0.00    +0.151 C 
ATOM     10  C   UNL     1      36.887 -22.209 -16.116  0.00  0.00    +0.034 C 
ATOM     11  C   UNL     1      33.423 -24.600 -14.712  0.00  0.00    +0.109 C 
ATOM     12  C   UNL     1      35.928 -22.049 -17.262  0.00  0.00    +0.151 C 
ATOM     13  C   UNL     1      32.465 -25.445 -13.981  0.00  0.00    +0.063 C 
ATOM     14  C   UNL     1      35.594 -21.016 -19.484  0.00  0.00    +0.152 C 
ATOM     15  C   UNL     1      36.118 -20.216 -20.517  0.00  0.00    +0.048 C 
ATOM     16  C   UNL     1      35.121 -20.178 -21.461  0.00  0.00    +0.046 C 
ATOM     17  C   UNL     1      35.033 -19.517 -22.773  0.00  0.00    +0.049 C 
ATOM     18  H   UNL     1      37.229 -20.887 -18.282  0.00  0.00    +0.155 HD
ATOM     19  H   UNL     1      33.251 -21.072 -21.432  0.00  0.00    +0.174 HD
ENDROOT
BRANCH   7  20
ATOM     20  C   UNL     1      37.511 -23.101 -13.902  0.00  0.00    -0.046 C 
BRANCH  20  22
ATOM     21  O   UNL     1      37.165 -25.342 -10.370  0.00  0.00    -0.358 OA
ATOM     22  N   UNL     1      36.979 -23.980 -12.862  0.00  0.00    +0.393 N 
ATOM     23  C   UNL     1      37.827 -25.168 -12.697  0.00  0.00    -0.044 C 
ATOM     24  C   UNL     1      36.861 -23.263 -11.585  0.00  0.00    -0.044 C 
ATOM     25  C   UNL     1      37.257 -26.062 -11.600  0.00  0.00    +0.119 C 
ATOM     26  C   UNL     1      36.316 -24.202 -10.513  0.00  0.00    +0.119 C 
ATOM     27  H   UNL     1      36.048 -24.280 -13.154  0.00  0.00    -0.079 HD
ENDBRANCH  20  22
ENDBRANCH   7  20
BRANCH   9  28
ATOM     28  C   UNL     1      32.161 -24.019 -16.907  0.00  0.00    +0.057 C 
BRANCH  28  31
ATOM     29 CL   UNL     1      26.794 -22.628 -14.530  0.00  0.00    -0.082 Cl
ATOM     30  F   UNL     1      30.204 -25.966 -16.227  0.00  0.00    -0.204 F 
ATOM     31  C   UNL     1      30.806 -23.670 -16.308  0.00  0.00    +0.007 C 
ATOM     32  C   UNL     1      29.895 -24.682 -15.999  0.00  0.00    +0.137 C 
ATOM     33  C   UNL     1      30.475 -22.337 -16.066  0.00  0.00    -0.001 C 
ATOM     34  C   UNL     1      28.654 -24.359 -15.449  0.00  0.00    +0.041 C 
ATOM     35  C   UNL     1      29.234 -22.014 -15.516  0.00  0.00    +0.011 C 
ATOM     36  C   UNL     1      28.324 -23.026 -15.207  0.00  0.00    +0.060 C 
ENDBRANCH  28  31
ENDBRANCH   9  28
TORSDOF 4
ENDMDL
