MODEL 1
REMARK VINA RESULT:     -11.0      0.000      0.000
REMARK  Name = 44462738
REMARK  5 active torsions:
REMARK  status: ('A' for Active; 'I' for Inactive)
REMARK    1  A    between atoms: N_1  and  C_17
REMARK    2  A    between atoms: C_8  and  C_30
REMARK    3  A    between atoms: C_12  and  N_19
REMARK    4  A    between atoms: N_18  and  C_26
REMARK    5  A    between atoms: C_33  and  C_36
REMARK                            x       y       z     vdW  Elec       q    Type
REMARK                         _______ _______ _______ _____ _____    ______ ____
ROOT
ATOM      1  N   UNL     1      34.063 -14.334 -24.223  0.00  0.00    -0.296 N 
ATOM      2  N   UNL     1      34.961 -15.314 -22.303  0.00  0.00    -0.225 NA
ATOM      3  N   UNL     1      34.442 -17.894 -23.229  0.00  0.00    -0.167 N 
ATOM      4  N   UNL     1      33.556 -17.116 -25.108  0.00  0.00    -0.203 NA
ATOM      5  N   UNL     1      34.068 -19.002 -23.914  0.00  0.00    -0.150 NA
ATOM      6  C   UNL     1      34.389 -15.445 -23.482  0.00  0.00    +0.166 C 
ATOM      7  C   UNL     1      34.116 -16.780 -23.973  0.00  0.00    +0.188 C 
ATOM      8  C   UNL     1      35.046 -17.723 -21.981  0.00  0.00    +0.098 C 
ATOM      9  C   UNL     1      35.277 -16.453 -21.581  0.00  0.00    +0.117 C 
ATOM     10  C   UNL     1      33.550 -18.477 -25.026  0.00  0.00    +0.219 C 
ATOM     11  H   UNL     1      34.078 -14.444 -25.202  0.00  0.00    +0.154 HD
ENDROOT
BRANCH   1  17
ATOM     12  C   UNL     1      33.010 -10.522 -22.806  0.00  0.00    +0.048 C 
ATOM     13  C   UNL     1      34.102 -10.672 -23.662  0.00  0.00    +0.016 C 
ATOM     14  C   UNL     1      32.268 -11.638 -22.422  0.00  0.00    +0.016 C 
ATOM     15  C   UNL     1      34.452 -11.937 -24.133  0.00  0.00    +0.016 C 
ATOM     16  C   UNL     1      32.618 -12.905 -22.892  0.00  0.00    +0.016 C 
ATOM     17  C   UNL     1      33.709 -13.054 -23.747  0.00  0.00    +0.050 C 
BRANCH  12  19
ATOM     18  N   UNL     1      32.113  -6.577 -23.066  0.00  0.00    +0.392 N 
ATOM     19  N   UNL     1      32.666  -9.277 -22.345  0.00  0.00    -0.313 N 
ATOM     20  C   UNL     1      32.679  -7.021 -21.771  0.00  0.00    -0.036 C 
ATOM     21  C   UNL     1      31.329  -8.668 -22.359  0.00  0.00    +0.050 C 
ATOM     22  C   UNL     1      31.435  -7.686 -21.189  0.00  0.00    -0.002 C 
ATOM     23  C   UNL     1      31.299  -7.712 -23.560  0.00  0.00    -0.057 C 
ATOM     24  C   UNL     1      33.617  -8.249 -21.906  0.00  0.00    +0.070 C 
ATOM     25  H   UNL     1      31.544  -5.742 -22.925  0.00  0.00    -0.079 HD
BRANCH  18  26
ATOM     26  C   UNL     1      33.088  -6.104 -24.033  0.00  0.00    -0.058 C 
ATOM     27  C   UNL     1      32.795  -4.656 -24.414  0.00  0.00    -0.023 C 
ATOM     28  C   UNL     1      33.065  -7.009 -25.261  0.00  0.00    -0.023 C 
ENDBRANCH  18  26
ENDBRANCH  12  19
ENDBRANCH   1  17
BRANCH   8  30
ATOM     29  O   UNL     1      36.717 -20.267 -19.936  0.00  0.00    -0.446 OA
ATOM     30  C   UNL     1      35.434 -18.864 -21.136  0.00  0.00    +0.058 C 
ATOM     31  C   UNL     1      34.608 -19.887 -20.611  0.00  0.00    +0.047 C 
ATOM     32  C   UNL     1      36.708 -19.141 -20.696  0.00  0.00    +0.181 C 
ATOM     33  C   UNL     1      35.436 -20.716 -19.890  0.00  0.00    +0.198 C 
BRANCH  33  36
ATOM     34  O   UNL     1      36.019 -22.427 -18.380  0.00  0.00    -0.267 OA
ATOM     35  N   UNL     1      33.901 -22.498 -19.256  0.00  0.00    -0.323 N 
ATOM     36  C   UNL     1      35.169 -21.900 -19.147  0.00  0.00    +0.277 C 
ATOM     37  H   UNL     1      33.698 -23.318 -18.749  0.00  0.00    +0.145 HD
ATOM     38  H   UNL     1      33.216 -22.098 -19.839  0.00  0.00    +0.145 HD
ENDBRANCH  33  36
ENDBRANCH   8  30
TORSDOF 5
ENDMDL
MODEL 2
REMARK VINA RESULT:     -10.2      2.860      5.217
REMARK  Name = 44462738
REMARK  5 active torsions:
REMARK  status: ('A' for Active; 'I' for Inactive)
REMARK    1  A    between atoms: N_1  and  C_17
REMARK    2  A    between atoms: C_8  and  C_30
REMARK    3  A    between atoms: C_12  and  N_19
REMARK    4  A    between atoms: N_18  and  C_26
REMARK    5  A    between atoms: C_33  and  C_36
REMARK                            x       y       z     vdW  Elec       q    Type
REMARK                         _______ _______ _______ _____ _____    ______ ____
ROOT
ATOM      1  N   UNL     1      32.152 -10.126 -22.948  0.00  0.00    -0.296 N 
ATOM      2  N   UNL     1      33.412 -11.856 -23.882  0.00  0.00    -0.225 NA
ATOM      3  N   UNL     1      33.001 -13.512 -21.674  0.00  0.00    -0.167 N 
ATOM      4  N   UNL     1      31.780 -11.965 -20.654  0.00  0.00    -0.203 NA
ATOM      5  N   UNL     1      32.651 -14.078 -20.493  0.00  0.00    -0.150 NA
ATOM      6  C   UNL     1      32.686 -11.392 -22.887  0.00  0.00    +0.166 C 
ATOM      7  C   UNL     1      32.465 -12.243 -21.736  0.00  0.00    +0.188 C 
ATOM      8  C   UNL     1      33.769 -13.976 -22.744  0.00  0.00    +0.098 C 
ATOM      9  C   UNL     1      33.936 -13.136 -23.789  0.00  0.00    +0.117 C 
ATOM     10  C   UNL     1      31.923 -13.112 -19.930  0.00  0.00    +0.219 C 
ATOM     11  H   UNL     1      31.303  -9.988 -22.467  0.00  0.00    +0.154 HD
ENDROOT
BRANCH   1  17
ATOM     12  C   UNL     1      33.711  -6.777 -24.948  0.00  0.00    +0.048 C 
ATOM     13  C   UNL     1      32.374  -7.137 -25.125  0.00  0.00    +0.016 C 
ATOM     14  C   UNL     1      34.529  -7.530 -24.106  0.00  0.00    +0.016 C 
ATOM     15  C   UNL     1      31.856  -8.249 -24.462  0.00  0.00    +0.016 C 
ATOM     16  C   UNL     1      34.011  -8.642 -23.441  0.00  0.00    +0.016 C 
ATOM     17  C   UNL     1      32.675  -9.001 -23.619  0.00  0.00    +0.050 C 
BRANCH  12  19
ATOM     18  N   UNL     1      34.960  -4.592 -28.125  0.00  0.00    +0.392 N 
ATOM     19  N   UNL     1      34.219  -5.683 -25.600  0.00  0.00    -0.313 N 
ATOM     20  C   UNL     1      35.571  -4.236 -26.823  0.00  0.00    -0.036 C 
ATOM     21  C   UNL     1      33.460  -4.657 -26.327  0.00  0.00    +0.050 C 
ATOM     22  C   UNL     1      34.405  -3.456 -26.223  0.00  0.00    -0.002 C 
ATOM     23  C   UNL     1      33.572  -5.006 -27.818  0.00  0.00    -0.057 C 
ATOM     24  C   UNL     1      35.646  -5.432 -25.839  0.00  0.00    +0.070 C 
ATOM     25  H   UNL     1      34.981  -3.783 -28.747  0.00  0.00    -0.079 HD
BRANCH  18  26
ATOM     26  C   UNL     1      35.696  -5.573 -28.902  0.00  0.00    -0.058 C 
ATOM     27  C   UNL     1      36.524  -4.881 -29.981  0.00  0.00    -0.023 C 
ATOM     28  C   UNL     1      34.718  -6.570 -29.517  0.00  0.00    -0.023 C 
ENDBRANCH  18  26
ENDBRANCH  12  19
ENDBRANCH   1  17
BRANCH   8  30
ATOM     29  O   UNL     1      35.098 -17.304 -23.525  0.00  0.00    -0.446 OA
ATOM     30  C   UNL     1      34.364 -15.323 -22.755  0.00  0.00    +0.058 C 
ATOM     31  C   UNL     1      34.894 -16.056 -21.667  0.00  0.00    +0.047 C 
ATOM     32  C   UNL     1      34.512 -16.125 -23.864  0.00  0.00    +0.181 C 
ATOM     33  C   UNL     1      35.326 -17.254 -22.187  0.00  0.00    +0.198 C 
BRANCH  33  36
ATOM     34  O   UNL     1      35.324 -19.142 -20.778  0.00  0.00    -0.267 OA
ATOM     35  N   UNL     1      37.281 -18.674 -21.877  0.00  0.00    -0.323 N 
ATOM     36  C   UNL     1      35.940 -18.382 -21.572  0.00  0.00    +0.277 C 
ATOM     37  H   UNL     1      37.723 -19.450 -21.461  0.00  0.00    +0.145 HD
ATOM     38  H   UNL     1      37.780 -18.102 -22.504  0.00  0.00    +0.145 HD
ENDBRANCH  33  36
ENDBRANCH   8  30
TORSDOF 5
ENDMDL
MODEL 3
REMARK VINA RESULT:     -10.2      1.444      1.940
REMARK  Name = 44462738
REMARK  5 active torsions:
REMARK  status: ('A' for Active; 'I' for Inactive)
REMARK    1  A    between atoms: N_1  and  C_17
REMARK    2  A    between atoms: C_8  and  C_30
REMARK    3  A    between atoms: C_12  and  N_19
REMARK    4  A    between atoms: N_18  and  C_26
REMARK    5  A    between atoms: C_33  and  C_36
REMARK                            x       y       z     vdW  Elec       q    Type
REMARK                         _______ _______ _______ _____ _____    ______ ____
ROOT
ATOM      1  N   UNL     1      34.436 -15.562 -24.006  0.00  0.00    -0.296 N 
ATOM      2  N   UNL     1      34.869 -16.446 -21.888  0.00  0.00    -0.225 NA
ATOM      3  N   UNL     1      34.850 -19.067 -22.843  0.00  0.00    -0.167 N 
ATOM      4  N   UNL     1      34.436 -18.384 -24.913  0.00  0.00    -0.203 NA
ATOM      5  N   UNL     1      34.774 -20.209 -23.570  0.00  0.00    -0.150 NA
ATOM      6  C   UNL     1      34.649 -16.635 -23.172  0.00  0.00    +0.166 C 
ATOM      7  C   UNL     1      34.637 -17.992 -23.680  0.00  0.00    +0.188 C 
ATOM      8  C   UNL     1      35.078 -18.835 -21.485  0.00  0.00    +0.098 C 
ATOM      9  C   UNL     1      35.079 -17.547 -21.074  0.00  0.00    +0.117 C 
ATOM     10  C   UNL     1      34.529 -19.739 -24.795  0.00  0.00    +0.219 C 
ATOM     11  H   UNL     1      34.724 -15.675 -24.942  0.00  0.00    +0.154 HD
ENDROOT
BRANCH   1  17
ATOM     12  C   UNL     1      32.703 -11.862 -23.035  0.00  0.00    +0.048 C 
ATOM     13  C   UNL     1      32.860 -12.839 -22.051  0.00  0.00    +0.016 C 
ATOM     14  C   UNL     1      33.123 -12.113 -24.341  0.00  0.00    +0.016 C 
ATOM     15  C   UNL     1      33.434 -14.068 -22.373  0.00  0.00    +0.016 C 
ATOM     16  C   UNL     1      33.699 -13.343 -24.664  0.00  0.00    +0.016 C 
ATOM     17  C   UNL     1      33.854 -14.319 -23.680  0.00  0.00    +0.050 C 
BRANCH  12  19
ATOM     18  N   UNL     1      32.608  -7.867 -22.352  0.00  0.00    +0.392 N 
ATOM     19  N   UNL     1      32.138 -10.653 -22.717  0.00  0.00    -0.313 N 
ATOM     20  C   UNL     1      31.566  -8.660 -21.660  0.00  0.00    -0.036 C 
ATOM     21  C   UNL     1      31.720  -9.600 -23.653  0.00  0.00    +0.050 C 
ATOM     22  C   UNL     1      30.629  -8.895 -22.841  0.00  0.00    -0.002 C 
ATOM     23  C   UNL     1      32.834  -8.545 -23.649  0.00  0.00    -0.057 C 
ATOM     24  C   UNL     1      32.008 -10.114 -21.358  0.00  0.00    +0.070 C 
ATOM     25  H   UNL     1      32.282  -6.909 -22.483  0.00  0.00    -0.079 HD
BRANCH  18  26
ATOM     26  C   UNL     1      33.827  -7.656 -21.592  0.00  0.00    -0.058 C 
ATOM     27  C   UNL     1      33.570  -6.693 -20.437  0.00  0.00    -0.023 C 
ATOM     28  C   UNL     1      34.917  -7.125 -22.517  0.00  0.00    -0.023 C 
ENDBRANCH  18  26
ENDBRANCH  12  19
ENDBRANCH   1  17
BRANCH   8  30
ATOM     29  O   UNL     1      36.428 -21.360 -19.192  0.00  0.00    -0.446 OA
ATOM     30  C   UNL     1      35.324 -19.931 -20.533  0.00  0.00    +0.058 C 
ATOM     31  C   UNL     1      34.380 -20.795 -19.928  0.00  0.00    +0.047 C 
ATOM     32  C   UNL     1      36.555 -20.316 -20.053  0.00  0.00    +0.181 C 
ATOM     33  C   UNL     1      35.102 -21.646 -19.123  0.00  0.00    +0.198 C 
BRANCH  33  36
ATOM     34  O   UNL     1      35.326 -23.040 -17.237  0.00  0.00    -0.267 OA
ATOM     35  N   UNL     1      33.526 -23.430 -18.604  0.00  0.00    -0.323 N 
ATOM     36  C   UNL     1      34.693 -22.716 -18.278  0.00  0.00    +0.277 C 
ATOM     37  H   UNL     1      33.228 -24.174 -18.031  0.00  0.00    +0.145 HD
ATOM     38  H   UNL     1      33.008 -23.188 -19.405  0.00  0.00    +0.145 HD
ENDBRANCH  33  36
ENDBRANCH   8  30
TORSDOF 5
ENDMDL
MODEL 4
REMARK VINA RESULT:      -9.6      5.298     10.302
REMARK  Name = 44462738
REMARK  5 active torsions:
REMARK  status: ('A' for Active; 'I' for Inactive)
REMARK    1  A    between atoms: N_1  and  C_17
REMARK    2  A    between atoms: C_8  and  C_30
REMARK    3  A    between atoms: C_12  and  N_19
REMARK    4  A    between atoms: N_18  and  C_26
REMARK    5  A    between atoms: C_33  and  C_36
REMARK                            x       y       z     vdW  Elec       q    Type
REMARK                         _______ _______ _______ _____ _____    ______ ____
ROOT
ATOM      1  N   UNL     1      32.633 -22.784 -18.189  0.00  0.00    -0.296 N 
ATOM      2  N   UNL     1      34.467 -23.298 -16.837  0.00  0.00    -0.225 NA
ATOM      3  N   UNL     1      32.837 -24.007 -14.686  0.00  0.00    -0.167 N 
ATOM      4  N   UNL     1      30.997 -23.559 -15.843  0.00  0.00    -0.203 NA
ATOM      5  N   UNL     1      31.822 -24.270 -13.827  0.00  0.00    -0.150 NA
ATOM      6  C   UNL     1      33.162 -23.212 -16.994  0.00  0.00    +0.166 C 
ATOM      7  C   UNL     1      32.306 -23.578 -15.885  0.00  0.00    +0.188 C 
ATOM      8  C   UNL     1      34.225 -24.085 -14.549  0.00  0.00    +0.098 C 
ATOM      9  C   UNL     1      34.968 -23.733 -15.621  0.00  0.00    +0.117 C 
ATOM     10  C   UNL     1      30.751 -23.988 -14.572  0.00  0.00    +0.219 C 
ATOM     11  H   UNL     1      31.749 -23.147 -18.429  0.00  0.00    +0.154 HD
ENDROOT
BRANCH   1  17
ATOM     12  C   UNL     1      34.342 -20.109 -20.939  0.00  0.00    +0.048 C 
ATOM     13  C   UNL     1      35.157 -20.978 -20.213  0.00  0.00    +0.016 C 
ATOM     14  C   UNL     1      32.961 -20.128 -20.753  0.00  0.00    +0.016 C 
ATOM     15  C   UNL     1      34.590 -21.866 -19.300  0.00  0.00    +0.016 C 
ATOM     16  C   UNL     1      32.393 -21.017 -19.839  0.00  0.00    +0.016 C 
ATOM     17  C   UNL     1      33.207 -21.885 -19.113  0.00  0.00    +0.050 C 
BRANCH  12  19
ATOM     18  N   UNL     1      35.347 -16.496 -22.482  0.00  0.00    +0.392 N 
ATOM     19  N   UNL     1      34.901 -19.236 -21.838  0.00  0.00    -0.313 N 
ATOM     20  C   UNL     1      35.226 -17.600 -23.462  0.00  0.00    -0.036 C 
ATOM     21  C   UNL     1      36.190 -18.541 -21.711  0.00  0.00    +0.050 C 
ATOM     22  C   UNL     1      36.549 -18.307 -23.181  0.00  0.00    -0.002 C 
ATOM     23  C   UNL     1      35.872 -17.115 -21.242  0.00  0.00    -0.057 C 
ATOM     24  C   UNL     1      34.222 -18.697 -23.023  0.00  0.00    +0.070 C 
ATOM     25  H   UNL     1      35.981 -15.784 -22.843  0.00  0.00    -0.079 HD
BRANCH  18  26
ATOM     26  C   UNL     1      34.134 -15.726 -22.272  0.00  0.00    -0.058 C 
ATOM     27  C   UNL     1      33.849 -14.848 -23.487  0.00  0.00    -0.023 C 
ATOM     28  C   UNL     1      34.281 -14.882 -21.009  0.00  0.00    -0.023 C 
ENDBRANCH  18  26
ENDBRANCH  12  19
ENDBRANCH   1  17
BRANCH   8  30
ATOM     29  O   UNL     1      36.118 -25.775 -11.901  0.00  0.00    -0.446 OA
ATOM     30  C   UNL     1      34.864 -24.545 -13.304  0.00  0.00    +0.058 C 
ATOM     31  C   UNL     1      34.757 -23.989 -12.007  0.00  0.00    +0.047 C 
ATOM     32  C   UNL     1      35.703 -25.629 -13.187  0.00  0.00    +0.181 C 
ATOM     33  C   UNL     1      35.537 -24.774 -11.189  0.00  0.00    +0.198 C 
BRANCH  33  36
ATOM     34  O   UNL     1      35.254 -25.453  -8.952  0.00  0.00    -0.267 OA
ATOM     35  N   UNL     1      36.756 -23.764  -9.338  0.00  0.00    -0.323 N 
ATOM     36  C   UNL     1      35.811 -24.700  -9.795  0.00  0.00    +0.277 C 
ATOM     37  H   UNL     1      36.959 -23.698  -8.377  0.00  0.00    +0.145 HD
ATOM     38  H   UNL     1      37.214 -23.173  -9.979  0.00  0.00    +0.145 HD
ENDBRANCH  33  36
ENDBRANCH   8  30
TORSDOF 5
ENDMDL
MODEL 5
REMARK VINA RESULT:      -9.4      2.656      5.211
REMARK  Name = 44462738
REMARK  5 active torsions:
REMARK  status: ('A' for Active; 'I' for Inactive)
REMARK    1  A    between atoms: N_1  and  C_17
REMARK    2  A    between atoms: C_8  and  C_30
REMARK    3  A    between atoms: C_12  and  N_19
REMARK    4  A    between atoms: N_18  and  C_26
REMARK    5  A    between atoms: C_33  and  C_36
REMARK                            x       y       z     vdW  Elec       q    Type
REMARK                         _______ _______ _______ _____ _____    ______ ____
ROOT
ATOM      1  N   UNL     1      32.130 -10.078 -23.047  0.00  0.00    -0.296 N 
ATOM      2  N   UNL     1      33.318 -11.853 -23.990  0.00  0.00    -0.225 NA
ATOM      3  N   UNL     1      33.043 -13.417 -21.696  0.00  0.00    -0.167 N 
ATOM      4  N   UNL     1      31.899 -11.822 -20.662  0.00  0.00    -0.203 NA
ATOM      5  N   UNL     1      32.769 -13.932 -20.473  0.00  0.00    -0.150 NA
ATOM      6  C   UNL     1      32.660 -11.344 -22.970  0.00  0.00    +0.166 C 
ATOM      7  C   UNL     1      32.511 -12.147 -21.774  0.00  0.00    +0.188 C 
ATOM      8  C   UNL     1      33.738 -13.928 -22.794  0.00  0.00    +0.098 C 
ATOM      9  C   UNL     1      33.841 -13.131 -23.881  0.00  0.00    +0.117 C 
ATOM     10  C   UNL     1      32.083 -12.939 -19.903  0.00  0.00    +0.219 C 
ATOM     11  H   UNL     1      31.315  -9.914 -22.518  0.00  0.00    +0.154 HD
ENDROOT
BRANCH   1  17
ATOM     12  C   UNL     1      33.574  -6.822 -25.273  0.00  0.00    +0.048 C 
ATOM     13  C   UNL     1      34.422  -7.500 -24.398  0.00  0.00    +0.016 C 
ATOM     14  C   UNL     1      32.246  -7.225 -25.409  0.00  0.00    +0.016 C 
ATOM     15  C   UNL     1      33.944  -8.581 -23.658  0.00  0.00    +0.016 C 
ATOM     16  C   UNL     1      31.766  -8.307 -24.670  0.00  0.00    +0.016 C 
ATOM     17  C   UNL     1      32.614  -8.984 -23.795  0.00  0.00    +0.050 C 
BRANCH  12  19
ATOM     18  N   UNL     1      33.404  -3.232 -27.149  0.00  0.00    +0.392 N 
ATOM     19  N   UNL     1      34.046  -5.759 -26.001  0.00  0.00    -0.313 N 
ATOM     20  C   UNL     1      34.419  -4.179 -27.669  0.00  0.00    -0.036 C 
ATOM     21  C   UNL     1      34.494  -4.460 -25.478  0.00  0.00    +0.050 C 
ATOM     22  C   UNL     1      35.469  -4.019 -26.574  0.00  0.00    -0.002 C 
ATOM     23  C   UNL     1      33.332  -3.481 -25.691  0.00  0.00    -0.057 C 
ATOM     24  C   UNL     1      34.024  -5.664 -27.465  0.00  0.00    +0.070 C 
ATOM     25  H   UNL     1      33.693  -2.274 -27.352  0.00  0.00    -0.079 HD
BRANCH  18  26
ATOM     26  C   UNL     1      32.113  -3.291 -27.809  0.00  0.00    -0.058 C 
ATOM     27  C   UNL     1      32.259  -2.953 -29.290  0.00  0.00    -0.023 C 
ATOM     28  C   UNL     1      31.146  -2.332 -27.121  0.00  0.00    -0.023 C 
ENDBRANCH  18  26
ENDBRANCH  12  19
ENDBRANCH   1  17
BRANCH   8  30
ATOM     29  O   UNL     1      35.050 -17.272 -23.538  0.00  0.00    -0.446 OA
ATOM     30  C   UNL     1      34.325 -15.279 -22.790  0.00  0.00    +0.058 C 
ATOM     31  C   UNL     1      34.843 -16.006 -21.692  0.00  0.00    +0.047 C 
ATOM     32  C   UNL     1      34.474 -16.092 -23.890  0.00  0.00    +0.181 C 
ATOM     33  C   UNL     1      35.271 -17.212 -22.199  0.00  0.00    +0.198 C 
BRANCH  33  36
ATOM     34  O   UNL     1      35.281 -19.027 -20.698  0.00  0.00    -0.267 OA
ATOM     35  N   UNL     1      37.176 -18.710 -21.951  0.00  0.00    -0.323 N 
ATOM     36  C   UNL     1      35.874 -18.337 -21.571  0.00  0.00    +0.277 C 
ATOM     37  H   UNL     1      37.609 -19.486 -21.527  0.00  0.00    +0.145 HD
ATOM     38  H   UNL     1      37.654 -18.195 -22.639  0.00  0.00    +0.145 HD
ENDBRANCH  33  36
ENDBRANCH   8  30
TORSDOF 5
ENDMDL
MODEL 6
REMARK VINA RESULT:      -9.3      5.362     12.671
REMARK  Name = 44462738
REMARK  5 active torsions:
REMARK  status: ('A' for Active; 'I' for Inactive)
REMARK    1  A    between atoms: N_1  and  C_17
REMARK    2  A    between atoms: C_8  and  C_30
REMARK    3  A    between atoms: C_12  and  N_19
REMARK    4  A    between atoms: N_18  and  C_26
REMARK    5  A    between atoms: C_33  and  C_36
REMARK                            x       y       z     vdW  Elec       q    Type
REMARK                         _______ _______ _______ _____ _____    ______ ____
ROOT
ATOM      1  N   UNL     1      35.581 -21.953 -18.820  0.00  0.00    -0.296 N 
ATOM      2  N   UNL     1      34.098 -21.059 -20.387  0.00  0.00    -0.225 NA
ATOM      3  N   UNL     1      36.025 -19.308 -21.392  0.00  0.00    -0.167 N 
ATOM      4  N   UNL     1      37.548 -20.053 -19.962  0.00  0.00    -0.203 NA
ATOM      5  N   UNL     1      37.133 -18.578 -21.664  0.00  0.00    -0.150 NA
ATOM      6  C   UNL     1      35.299 -21.084 -19.848  0.00  0.00    +0.166 C 
ATOM      7  C   UNL     1      36.307 -20.180 -20.362  0.00  0.00    +0.188 C 
ATOM      8  C   UNL     1      34.741 -19.303 -21.942  0.00  0.00    +0.098 C 
ATOM      9  C   UNL     1      33.846 -20.172 -21.421  0.00  0.00    +0.117 C 
ATOM     10  C   UNL     1      38.008 -19.068 -20.784  0.00  0.00    +0.219 C 
ATOM     11  H   UNL     1      36.513 -22.268 -18.760  0.00  0.00    +0.154 HD
ENDROOT
BRANCH   1  17
ATOM     12  C   UNL     1      32.939 -23.428 -15.907  0.00  0.00    +0.048 C 
ATOM     13  C   UNL     1      34.294 -23.280 -15.610  0.00  0.00    +0.016 C 
ATOM     14  C   UNL     1      32.462 -23.086 -17.172  0.00  0.00    +0.016 C 
ATOM     15  C   UNL     1      35.172 -22.790 -16.576  0.00  0.00    +0.016 C 
ATOM     16  C   UNL     1      33.339 -22.596 -18.140  0.00  0.00    +0.016 C 
ATOM     17  C   UNL     1      34.694 -22.448 -17.842  0.00  0.00    +0.050 C 
BRANCH  12  19
ATOM     18  N   UNL     1      29.455 -24.906 -14.453  0.00  0.00    +0.392 N 
ATOM     19  N   UNL     1      32.077 -23.909 -14.955  0.00  0.00    -0.313 N 
ATOM     20  C   UNL     1      30.297 -24.174 -13.478  0.00  0.00    -0.036 C 
ATOM     21  C   UNL     1      31.750 -25.317 -14.690  0.00  0.00    +0.050 C 
ATOM     22  C   UNL     1      31.342 -25.255 -13.214  0.00  0.00    -0.002 C 
ATOM     23  C   UNL     1      30.400 -25.586 -15.369  0.00  0.00    -0.057 C 
ATOM     24  C   UNL     1      31.181 -23.083 -14.135  0.00  0.00    +0.070 C 
ATOM     25  H   UNL     1      28.863 -25.575 -13.962  0.00  0.00    -0.079 HD
BRANCH  18  26
ATOM     26  C   UNL     1      28.467 -24.095 -15.142  0.00  0.00    -0.058 C 
ATOM     27  C   UNL     1      28.353 -24.527 -16.601  0.00  0.00    -0.023 C 
ATOM     28  C   UNL     1      28.854 -22.623 -15.034  0.00  0.00    -0.023 C 
ENDBRANCH  18  26
ENDBRANCH  12  19
ENDBRANCH   1  17
BRANCH   8  30
ATOM     29  O   UNL     1      33.659 -17.732 -25.076  0.00  0.00    -0.446 OA
ATOM     30  C   UNL     1      34.367 -18.409 -23.051  0.00  0.00    +0.058 C 
ATOM     31  C   UNL     1      34.394 -16.994 -23.084  0.00  0.00    +0.047 C 
ATOM     32  C   UNL     1      33.912 -18.810 -24.287  0.00  0.00    +0.181 C 
ATOM     33  C   UNL     1      33.956 -16.632 -24.336  0.00  0.00    +0.198 C 
BRANCH  33  36
ATOM     34  O   UNL     1      33.602 -15.207 -26.178  0.00  0.00    -0.267 OA
ATOM     35  N   UNL     1      33.773 -14.212 -24.119  0.00  0.00    -0.323 N 
ATOM     36  C   UNL     1      33.776 -15.355 -24.939  0.00  0.00    +0.277 C 
ATOM     37  H   UNL     1      33.650 -13.320 -24.518  0.00  0.00    +0.145 HD
ATOM     38  H   UNL     1      33.895 -14.303 -23.147  0.00  0.00    +0.145 HD
ENDBRANCH  33  36
ENDBRANCH   8  30
TORSDOF 5
ENDMDL
MODEL 7
REMARK VINA RESULT:      -8.8      3.234      6.640
REMARK  Name = 44462738
REMARK  5 active torsions:
REMARK  status: ('A' for Active; 'I' for Inactive)
REMARK    1  A    between atoms: N_1  and  C_17
REMARK    2  A    between atoms: C_8  and  C_30
REMARK    3  A    between atoms: C_12  and  N_19
REMARK    4  A    between atoms: N_18  and  C_26
REMARK    5  A    between atoms: C_33  and  C_36
REMARK                            x       y       z     vdW  Elec       q    Type
REMARK                         _______ _______ _______ _____ _____    ______ ____
ROOT
ATOM      1  N   UNL     1      31.244  -8.382 -22.686  0.00  0.00    -0.296 N 
ATOM      2  N   UNL     1      32.362 -10.160 -23.708  0.00  0.00    -0.225 NA
ATOM      3  N   UNL     1      32.371 -11.665 -21.358  0.00  0.00    -0.167 N 
ATOM      4  N   UNL     1      31.311 -10.064 -20.247  0.00  0.00    -0.203 NA
ATOM      5  N   UNL     1      32.242 -12.152 -20.100  0.00  0.00    -0.150 NA
ATOM      6  C   UNL     1      31.807  -9.636 -22.635  0.00  0.00    +0.166 C 
ATOM      7  C   UNL     1      31.805 -10.408 -21.410  0.00  0.00    +0.188 C 
ATOM      8  C   UNL     1      32.954 -12.193 -22.513  0.00  0.00    +0.098 C 
ATOM      9  C   UNL     1      32.921 -11.425 -23.624  0.00  0.00    +0.117 C 
ATOM     10  C   UNL     1      31.600 -11.157 -19.485  0.00  0.00    +0.219 C 
ATOM     11  H   UNL     1      30.488  -8.220 -22.076  0.00  0.00    +0.154 HD
ENDROOT
BRANCH   1  17
ATOM     12  C   UNL     1      32.364  -5.162 -25.139  0.00  0.00    +0.048 C 
ATOM     13  C   UNL     1      31.599  -4.935 -23.994  0.00  0.00    +0.016 C 
ATOM     14  C   UNL     1      32.757  -6.459 -25.468  0.00  0.00    +0.016 C 
ATOM     15  C   UNL     1      31.227  -6.003 -23.180  0.00  0.00    +0.016 C 
ATOM     16  C   UNL     1      32.385  -7.529 -24.654  0.00  0.00    +0.016 C 
ATOM     17  C   UNL     1      31.620  -7.301 -23.510  0.00  0.00    +0.050 C 
BRANCH  12  19
ATOM     18  N   UNL     1      34.772  -3.031 -27.608  0.00  0.00    +0.392 N 
ATOM     19  N   UNL     1      32.730  -4.110 -25.939  0.00  0.00    -0.313 N 
ATOM     20  C   UNL     1      33.792  -2.239 -26.828  0.00  0.00    -0.036 C 
ATOM     21  C   UNL     1      32.675  -4.056 -27.407  0.00  0.00    +0.050 C 
ATOM     22  C   UNL     1      32.540  -2.548 -27.645  0.00  0.00    -0.002 C 
ATOM     23  C   UNL     1      34.102  -4.318 -27.906  0.00  0.00    -0.057 C 
ATOM     24  C   UNL     1      33.416  -2.897 -25.476  0.00  0.00    +0.070 C 
ATOM     25  H   UNL     1      35.018  -2.530 -28.461  0.00  0.00    -0.079 HD
BRANCH  18  26
ATOM     26  C   UNL     1      36.072  -3.190 -26.980  0.00  0.00    -0.058 C 
ATOM     27  C   UNL     1      37.147  -2.490 -27.807  0.00  0.00    -0.023 C 
ATOM     28  C   UNL     1      36.381  -4.676 -26.823  0.00  0.00    -0.023 C 
ENDBRANCH  18  26
ENDBRANCH  12  19
ENDBRANCH   1  17
BRANCH   8  30
ATOM     29  O   UNL     1      34.549 -15.422 -21.818  0.00  0.00    -0.446 OA
ATOM     30  C   UNL     1      33.567 -13.532 -22.538  0.00  0.00    +0.058 C 
ATOM     31  C   UNL     1      33.782 -14.377 -23.654  0.00  0.00    +0.047 C 
ATOM     32  C   UNL     1      34.051 -14.214 -21.445  0.00  0.00    +0.181 C 
ATOM     33  C   UNL     1      34.383 -15.513 -23.163  0.00  0.00    +0.198 C 
BRANCH  33  36
ATOM     34  O   UNL     1      34.667 -16.900 -25.046  0.00  0.00    -0.267 OA
ATOM     35  N   UNL     1      35.496 -17.677 -23.054  0.00  0.00    -0.323 N 
ATOM     36  C   UNL     1      34.829 -16.698 -23.812  0.00  0.00    +0.277 C 
ATOM     37  H   UNL     1      35.812 -18.503 -23.486  0.00  0.00    +0.145 HD
ATOM     38  H   UNL     1      35.646 -17.537 -22.092  0.00  0.00    +0.145 HD
ENDBRANCH  33  36
ENDBRANCH   8  30
TORSDOF 5
ENDMDL
MODEL 8
REMARK VINA RESULT:      -8.8      3.069      5.739
REMARK  Name = 44462738
REMARK  5 active torsions:
REMARK  status: ('A' for Active; 'I' for Inactive)
REMARK    1  A    between atoms: N_1  and  C_17
REMARK    2  A    between atoms: C_8  and  C_30
REMARK    3  A    between atoms: C_12  and  N_19
REMARK    4  A    between atoms: N_18  and  C_26
REMARK    5  A    between atoms: C_33  and  C_36
REMARK                            x       y       z     vdW  Elec       q    Type
REMARK                         _______ _______ _______ _____ _____    ______ ____
ROOT
ATOM      1  N   UNL     1      32.161  -9.526 -23.101  0.00  0.00    -0.296 N 
ATOM      2  N   UNL     1      33.475 -11.367 -23.684  0.00  0.00    -0.225 NA
ATOM      3  N   UNL     1      32.781 -12.752 -21.363  0.00  0.00    -0.167 N 
ATOM      4  N   UNL     1      31.492 -11.084 -20.670  0.00  0.00    -0.203 NA
ATOM      5  N   UNL     1      32.289 -13.173 -20.173  0.00  0.00    -0.150 NA
ATOM      6  C   UNL     1      32.654 -10.783 -22.837  0.00  0.00    +0.166 C 
ATOM      7  C   UNL     1      32.286 -11.492 -21.629  0.00  0.00    +0.188 C 
ATOM      8  C   UNL     1      33.652 -13.345 -22.280  0.00  0.00    +0.098 C 
ATOM      9  C   UNL     1      33.954 -12.633 -23.389  0.00  0.00    +0.117 C 
ATOM     10  C   UNL     1      31.526 -12.141 -19.809  0.00  0.00    +0.219 C 
ATOM     11  H   UNL     1      31.268  -9.324 -22.738  0.00  0.00    +0.154 HD
ENDROOT
BRANCH   1  17
ATOM     12  C   UNL     1      34.013  -6.449 -25.278  0.00  0.00    +0.048 C 
ATOM     13  C   UNL     1      32.663  -6.734 -25.484  0.00  0.00    +0.016 C 
ATOM     14  C   UNL     1      34.748  -7.185 -24.349  0.00  0.00    +0.016 C 
ATOM     15  C   UNL     1      32.048  -7.756 -24.761  0.00  0.00    +0.016 C 
ATOM     16  C   UNL     1      34.133  -8.207 -23.626  0.00  0.00    +0.016 C 
ATOM     17  C   UNL     1      32.783  -8.493 -23.832  0.00  0.00    +0.050 C 
BRANCH  12  19
ATOM     18  N   UNL     1      35.106  -4.368 -28.581  0.00  0.00    +0.392 N 
ATOM     19  N   UNL     1      34.617  -5.443 -25.989  0.00  0.00    -0.313 N 
ATOM     20  C   UNL     1      36.004  -4.229 -27.411  0.00  0.00    -0.036 C 
ATOM     21  C   UNL     1      33.976  -4.238 -26.533  0.00  0.00    +0.050 C 
ATOM     22  C   UNL     1      35.160  -3.266 -26.582  0.00  0.00    -0.002 C 
ATOM     23  C   UNL     1      33.740  -4.507 -28.026  0.00  0.00    -0.057 C 
ATOM     24  C   UNL     1      35.997  -5.475 -26.488  0.00  0.00    +0.070 C 
ATOM     25  H   UNL     1      35.186  -3.543 -29.176  0.00  0.00    -0.079 HD
BRANCH  18  26
ATOM     26  C   UNL     1      35.462  -5.428 -29.508  0.00  0.00    -0.058 C 
ATOM     27  C   UNL     1      34.507  -6.608 -29.354  0.00  0.00    -0.023 C 
ATOM     28  C   UNL     1      36.906  -5.855 -29.259  0.00  0.00    -0.023 C 
ENDBRANCH  18  26
ENDBRANCH  12  19
ENDBRANCH   1  17
BRANCH   8  30
ATOM     29  O   UNL     1      35.070 -16.485 -21.022  0.00  0.00    -0.446 OA
ATOM     30  C   UNL     1      34.211 -14.691 -22.072  0.00  0.00    +0.058 C 
ATOM     31  C   UNL     1      34.464 -15.695 -23.037  0.00  0.00    +0.047 C 
ATOM     32  C   UNL     1      34.596 -15.221 -20.861  0.00  0.00    +0.181 C 
ATOM     33  C   UNL     1      34.987 -16.765 -22.349  0.00  0.00    +0.198 C 
BRANCH  33  36
ATOM     34  O   UNL     1      34.785 -18.732 -23.628  0.00  0.00    -0.267 OA
ATOM     35  N   UNL     1      36.636 -18.557 -22.285  0.00  0.00    -0.323 N 
ATOM     36  C   UNL     1      35.427 -18.044 -22.789  0.00  0.00    +0.277 C 
ATOM     37  H   UNL     1      36.956 -19.441 -22.579  0.00  0.00    +0.145 HD
ATOM     38  H   UNL     1      37.161 -18.033 -21.639  0.00  0.00    +0.145 HD
ENDBRANCH  33  36
ENDBRANCH   8  30
TORSDOF 5
ENDMDL
MODEL 9
REMARK VINA RESULT:      -8.2      4.478     11.564
REMARK  Name = 44462738
REMARK  5 active torsions:
REMARK  status: ('A' for Active; 'I' for Inactive)
REMARK    1  A    between atoms: N_1  and  C_17
REMARK    2  A    between atoms: C_8  and  C_30
REMARK    3  A    between atoms: C_12  and  N_19
REMARK    4  A    between atoms: N_18  and  C_26
REMARK    5  A    between atoms: C_33  and  C_36
REMARK                            x       y       z     vdW  Elec       q    Type
REMARK                         _______ _______ _______ _____ _____    ______ ____
ROOT
ATOM      1  N   UNL     1      32.797 -12.214 -21.862  0.00  0.00    -0.296 N 
ATOM      2  N   UNL     1      34.400 -10.872 -22.903  0.00  0.00    -0.225 NA
ATOM      3  N   UNL     1      32.528  -8.894 -23.509  0.00  0.00    -0.167 N 
ATOM      4  N   UNL     1      30.893 -10.051 -22.557  0.00  0.00    -0.203 NA
ATOM      5  N   UNL     1      31.425  -8.124 -23.675  0.00  0.00    -0.150 NA
ATOM      6  C   UNL     1      33.152 -11.065 -22.530  0.00  0.00    +0.166 C 
ATOM      7  C   UNL     1      32.172 -10.045 -22.838  0.00  0.00    +0.188 C 
ATOM      8  C   UNL     1      33.859  -8.718 -23.895  0.00  0.00    +0.098 C 
ATOM      9  C   UNL     1      34.726  -9.705 -23.575  0.00  0.00    +0.117 C 
ATOM     10  C   UNL     1      30.483  -8.863 -23.085  0.00  0.00    +0.219 C 
ATOM     11  H   UNL     1      32.044 -12.135 -21.231  0.00  0.00    +0.154 HD
ENDROOT
BRANCH   1  17
ATOM     12  C   UNL     1      34.544 -16.019 -22.190  0.00  0.00    +0.048 C 
ATOM     13  C   UNL     1      34.430 -15.408 -20.941  0.00  0.00    +0.016 C 
ATOM     14  C   UNL     1      34.076 -15.366 -23.330  0.00  0.00    +0.016 C 
ATOM     15  C   UNL     1      33.851 -14.145 -20.831  0.00  0.00    +0.016 C 
ATOM     16  C   UNL     1      33.496 -14.102 -23.221  0.00  0.00    +0.016 C 
ATOM     17  C   UNL     1      33.383 -13.492 -21.972  0.00  0.00    +0.050 C 
BRANCH  12  19
ATOM     18  N   UNL     1      34.834 -20.031 -21.688  0.00  0.00    +0.392 N 
ATOM     19  N   UNL     1      35.113 -17.262 -22.297  0.00  0.00    -0.313 N 
ATOM     20  C   UNL     1      36.120 -19.310 -21.835  0.00  0.00    -0.036 C 
ATOM     21  C   UNL     1      34.775 -18.308 -23.273  0.00  0.00    +0.050 C 
ATOM     22  C   UNL     1      36.091 -19.087 -23.344  0.00  0.00    -0.002 C 
ATOM     23  C   UNL     1      33.866 -19.307 -22.544  0.00  0.00    -0.057 C 
ATOM     24  C   UNL     1      36.055 -17.844 -21.333  0.00  0.00    +0.070 C 
ATOM     25  H   UNL     1      34.948 -21.000 -21.988  0.00  0.00    -0.079 HD
BRANCH  18  26
ATOM     26  C   UNL     1      34.378 -20.203 -20.320  0.00  0.00    -0.058 C 
ATOM     27  C   UNL     1      35.199 -21.283 -19.620  0.00  0.00    -0.023 C 
ATOM     28  C   UNL     1      32.894 -20.556 -20.320  0.00  0.00    -0.023 C 
ENDBRANCH  18  26
ENDBRANCH  12  19
ENDBRANCH   1  17
BRANCH   8  30
ATOM     29  O   UNL     1      35.430  -5.605 -25.031  0.00  0.00    -0.446 OA
ATOM     30  C   UNL     1      34.317  -7.511 -24.604  0.00  0.00    +0.058 C 
ATOM     31  C   UNL     1      33.929  -7.046 -25.882  0.00  0.00    +0.047 C 
ATOM     32  C   UNL     1      35.232  -6.600 -24.127  0.00  0.00    +0.181 C 
ATOM     33  C   UNL     1      34.632  -5.883 -26.096  0.00  0.00    +0.198 C 
BRANCH  33  36
ATOM     34  O   UNL     1      34.066  -5.227 -28.286  0.00  0.00    -0.267 OA
ATOM     35  N   UNL     1      35.332  -3.759 -27.061  0.00  0.00    -0.323 N 
ATOM     36  C   UNL     1      34.651  -4.982 -27.197  0.00  0.00    +0.277 C 
ATOM     37  H   UNL     1      35.356  -3.122 -27.813  0.00  0.00    +0.145 HD
ATOM     38  H   UNL     1      35.787  -3.539 -26.216  0.00  0.00    +0.145 HD
ENDBRANCH  33  36
ENDBRANCH   8  30
TORSDOF 5
ENDMDL
