MODEL 1
REMARK VINA RESULT:     -11.9      0.000      0.000
REMARK  Name = 4413
REMARK  6 active torsions:
REMARK  status: ('A' for Active; 'I' for Inactive)
REMARK    1  A    between atoms: O_1  and  C_9
REMARK    2  A    between atoms: O_1  and  C_19
REMARK    3  A    between atoms: C_6  and  C_14
REMARK    4  A    between atoms: C_19  and  C_20
REMARK    5  A    between atoms: C_23  and  N_26
REMARK    6  A    between atoms: N_26  and  C_29
REMARK                            x       y       z     vdW  Elec       q    Type
REMARK                         _______ _______ _______ _____ _____    ______ ____
ROOT
ATOM      1  O   UNL     1      32.728 -22.888 -17.904  0.00  0.00    -0.421 OA
ENDROOT
BRANCH   1   9
ATOM      2  C   UNL     1      33.817 -23.913 -14.011  0.00  0.00    +0.000 C 
ATOM      3  C   UNL     1      34.797 -23.447 -14.921  0.00  0.00    +0.003 C 
ATOM      4  C   UNL     1      34.201 -24.253 -12.704  0.00  0.00    +0.003 C 
ATOM      5  C   UNL     1      34.413 -23.107 -16.228  0.00  0.00    +0.038 C 
ATOM      6  C   UNL     1      35.531 -24.136 -12.299  0.00  0.00    +0.031 C 
ATOM      7  C   UNL     1      36.130 -23.335 -14.497  0.00  0.00    +0.000 C 
ATOM      8  C   UNL     1      32.483 -24.025 -14.436  0.00  0.00    +0.003 C 
ATOM      9  C   UNL     1      33.083 -23.224 -16.634  0.00  0.00    +0.149 C 
ATOM     10  C   UNL     1      36.494 -23.678 -13.194  0.00  0.00    +0.003 C 
ATOM     11  C   UNL     1      32.121 -23.682 -15.739  0.00  0.00    +0.038 C 
BRANCH   6  14
ATOM     12  N   UNL     1      36.923 -23.809 -10.269  0.00  0.00    -0.343 N 
ATOM     13  N   UNL     1      35.296 -25.486 -10.325  0.00  0.00    -0.285 NA
ATOM     14  C   UNL     1      35.912 -24.493 -10.942  0.00  0.00    +0.117 C 
ATOM     15  H   UNL     1      37.164 -24.068  -9.350  0.00  0.00    +0.144 HD
ATOM     16  H   UNL     1      37.395 -23.068 -10.712  0.00  0.00    +0.144 HD
ATOM     17  H   UNL     1      35.553 -25.729  -9.406  0.00  0.00    +0.188 HD
ENDBRANCH   6  14
ENDBRANCH   1   9
BRANCH   1  19
ATOM     18  O   UNL     1      33.870 -24.407 -19.252  0.00  0.00    -0.244 OA
ATOM     19  C   UNL     1      33.654 -23.264 -18.879  0.00  0.00    +0.346 C 
BRANCH  19  20
ATOM     20  C   UNL     1      34.360 -22.081 -19.435  0.00  0.00    +0.076 C 
ATOM     21  C   UNL     1      35.728 -21.991 -19.288  0.00  0.00    +0.008 C 
ATOM     22  C   UNL     1      33.624 -21.111 -20.083  0.00  0.00    +0.008 C 
ATOM     23  C   UNL     1      35.671 -19.886 -20.473  0.00  0.00    +0.084 C 
ATOM     24  C   UNL     1      36.391 -20.881 -19.812  0.00  0.00    +0.019 C 
ATOM     25  C   UNL     1      34.287 -20.000 -20.608  0.00  0.00    +0.019 C 
BRANCH  23  26
ATOM     26  N   UNL     1      36.334 -18.773 -20.997  0.00  0.00    -0.214 NA
BRANCH  26  29
ATOM     27  N   UNL     1      35.439 -17.494 -22.735  0.00  0.00    -0.370 N 
ATOM     28  N   UNL     1      34.997 -16.806 -20.605  0.00  0.00    -0.370 N 
ATOM     29  C   UNL     1      35.625 -17.743 -21.396  0.00  0.00    +0.193 C 
ATOM     30  H   UNL     1      35.838 -18.093 -23.407  0.00  0.00    +0.159 HD
ATOM     31  H   UNL     1      34.905 -16.718 -23.023  0.00  0.00    +0.159 HD
ATOM     32  H   UNL     1      35.054 -16.871 -19.625  0.00  0.00    +0.159 HD
ATOM     33  H   UNL     1      34.490 -16.071 -21.021  0.00  0.00    +0.159 HD
ENDBRANCH  26  29
ENDBRANCH  23  26
ENDBRANCH  19  20
ENDBRANCH   1  19
TORSDOF 6
ENDMDL
MODEL 2
REMARK VINA RESULT:     -11.6      2.952      4.850
REMARK  Name = 4413
REMARK  6 active torsions:
REMARK  status: ('A' for Active; 'I' for Inactive)
REMARK    1  A    between atoms: O_1  and  C_9
REMARK    2  A    between atoms: O_1  and  C_19
REMARK    3  A    between atoms: C_6  and  C_14
REMARK    4  A    between atoms: C_19  and  C_20
REMARK    5  A    between atoms: C_23  and  N_26
REMARK    6  A    between atoms: N_26  and  C_29
REMARK                            x       y       z     vdW  Elec       q    Type
REMARK                         _______ _______ _______ _____ _____    ______ ____
ROOT
ATOM      1  O   UNL     1      35.183 -20.486 -21.165  0.00  0.00    -0.421 OA
ENDROOT
BRANCH   1   9
ATOM      2  C   UNL     1      35.301 -22.453 -17.490  0.00  0.00    +0.000 C 
ATOM      3  C   UNL     1      34.075 -22.327 -18.186  0.00  0.00    +0.003 C 
ATOM      4  C   UNL     1      35.324 -23.119 -16.254  0.00  0.00    +0.003 C 
ATOM      5  C   UNL     1      34.053 -21.661 -19.422  0.00  0.00    +0.038 C 
ATOM      6  C   UNL     1      34.154 -23.653 -15.712  0.00  0.00    +0.031 C 
ATOM      7  C   UNL     1      32.908 -22.870 -17.626  0.00  0.00    +0.000 C 
ATOM      8  C   UNL     1      36.469 -21.909 -18.051  0.00  0.00    +0.003 C 
ATOM      9  C   UNL     1      35.222 -21.127 -19.965  0.00  0.00    +0.149 C 
ATOM     10  C   UNL     1      32.948 -23.529 -16.396  0.00  0.00    +0.003 C 
ATOM     11  C   UNL     1      36.427 -21.251 -19.280  0.00  0.00    +0.038 C 
BRANCH   6  14
ATOM     12  N   UNL     1      33.457 -23.881 -13.339  0.00  0.00    -0.343 N 
ATOM     13  N   UNL     1      34.943 -25.418 -14.285  0.00  0.00    -0.285 NA
ATOM     14  C   UNL     1      34.194 -24.339 -14.430  0.00  0.00    +0.117 C 
ATOM     15  H   UNL     1      33.499 -24.362 -12.481  0.00  0.00    +0.144 HD
ATOM     16  H   UNL     1      32.896 -23.078 -13.427  0.00  0.00    +0.144 HD
ATOM     17  H   UNL     1      34.971 -25.884 -13.418  0.00  0.00    +0.188 HD
ENDBRANCH   6  14
ENDBRANCH   1   9
BRANCH   1  19
ATOM     18  O   UNL     1      36.536 -18.782 -20.332  0.00  0.00    -0.244 OA
ATOM     19  C   UNL     1      35.731 -19.202 -21.150  0.00  0.00    +0.346 C 
BRANCH  19  20
ATOM     20  C   UNL     1      35.217 -18.384 -22.278  0.00  0.00    +0.076 C 
ATOM     21  C   UNL     1      34.554 -19.013 -23.311  0.00  0.00    +0.008 C 
ATOM     22  C   UNL     1      35.416 -17.018 -22.255  0.00  0.00    +0.008 C 
ATOM     23  C   UNL     1      34.257 -16.863 -24.370  0.00  0.00    +0.084 C 
ATOM     24  C   UNL     1      34.070 -18.244 -24.369  0.00  0.00    +0.019 C 
ATOM     25  C   UNL     1      34.932 -16.249 -23.314  0.00  0.00    +0.019 C 
BRANCH  23  26
ATOM     26  N   UNL     1      33.774 -16.092 -25.431  0.00  0.00    -0.214 NA
BRANCH  26  29
ATOM     27  N   UNL     1      33.541 -13.877 -26.137  0.00  0.00    -0.370 N 
ATOM     28  N   UNL     1      32.781 -14.386 -24.047  0.00  0.00    -0.370 N 
ATOM     29  C   UNL     1      33.378 -14.863 -25.193  0.00  0.00    +0.193 C 
ATOM     30  H   UNL     1      33.957 -14.088 -27.003  0.00  0.00    +0.159 HD
ATOM     31  H   UNL     1      33.241 -12.958 -25.946  0.00  0.00    +0.159 HD
ATOM     32  H   UNL     1      32.607 -14.994 -23.293  0.00  0.00    +0.159 HD
ATOM     33  H   UNL     1      32.525 -13.437 -23.983  0.00  0.00    +0.159 HD
ENDBRANCH  26  29
ENDBRANCH  23  26
ENDBRANCH  19  20
ENDBRANCH   1  19
TORSDOF 6
ENDMDL
MODEL 3
REMARK VINA RESULT:     -11.5      4.553      7.430
REMARK  Name = 4413
REMARK  6 active torsions:
REMARK  status: ('A' for Active; 'I' for Inactive)
REMARK    1  A    between atoms: O_1  and  C_9
REMARK    2  A    between atoms: O_1  and  C_19
REMARK    3  A    between atoms: C_6  and  C_14
REMARK    4  A    between atoms: C_19  and  C_20
REMARK    5  A    between atoms: C_23  and  N_26
REMARK    6  A    between atoms: N_26  and  C_29
REMARK                            x       y       z     vdW  Elec       q    Type
REMARK                         _______ _______ _______ _____ _____    ______ ____
ROOT
ATOM      1  O   UNL     1      35.998 -17.511 -22.807  0.00  0.00    -0.421 OA
ENDROOT
BRANCH   1   9
ATOM      2  C   UNL     1      35.650 -20.591 -20.019  0.00  0.00    +0.000 C 
ATOM      3  C   UNL     1      34.492 -20.063 -20.638  0.00  0.00    +0.003 C 
ATOM      4  C   UNL     1      35.516 -21.629 -19.082  0.00  0.00    +0.003 C 
ATOM      5  C   UNL     1      34.627 -19.025 -21.574  0.00  0.00    +0.038 C 
ATOM      6  C   UNL     1      34.258 -22.139 -18.761  0.00  0.00    +0.031 C 
ATOM      7  C   UNL     1      33.234 -20.588 -20.303  0.00  0.00    +0.000 C 
ATOM      8  C   UNL     1      36.909 -20.066 -20.355  0.00  0.00    +0.003 C 
ATOM      9  C   UNL     1      35.885 -18.515 -21.897  0.00  0.00    +0.149 C 
ATOM     10  C   UNL     1      33.119 -21.619 -19.369  0.00  0.00    +0.003 C 
ATOM     11  C   UNL     1      37.023 -19.035 -21.288  0.00  0.00    +0.038 C 
BRANCH   6  14
ATOM     12  N   UNL     1      34.609 -23.069 -16.485  0.00  0.00    -0.343 N 
ATOM     13  N   UNL     1      33.568 -24.354 -18.137  0.00  0.00    -0.285 NA
ATOM     14  C   UNL     1      34.135 -23.213 -17.788  0.00  0.00    +0.117 C 
ATOM     15  H   UNL     1      34.514 -23.810 -15.843  0.00  0.00    +0.144 HD
ATOM     16  H   UNL     1      35.036 -22.227 -16.207  0.00  0.00    +0.144 HD
ATOM     17  H   UNL     1      33.484 -25.083 -17.480  0.00  0.00    +0.188 HD
ENDBRANCH   6  14
ENDBRANCH   1   9
BRANCH   1  19
ATOM     18  O   UNL     1      34.311 -18.186 -24.266  0.00  0.00    -0.244 OA
ATOM     19  C   UNL     1      34.865 -17.323 -23.601  0.00  0.00    +0.346 C 
BRANCH  19  20
ATOM     20  C   UNL     1      34.388 -15.918 -23.535  0.00  0.00    +0.076 C 
ATOM     21  C   UNL     1      34.666 -15.171 -22.410  0.00  0.00    +0.008 C 
ATOM     22  C   UNL     1      33.682 -15.404 -24.604  0.00  0.00    +0.008 C 
ATOM     23  C   UNL     1      33.505 -13.306 -23.417  0.00  0.00    +0.084 C 
ATOM     24  C   UNL     1      34.220 -13.851 -22.350  0.00  0.00    +0.019 C 
ATOM     25  C   UNL     1      33.235 -14.083 -24.544  0.00  0.00    +0.019 C 
BRANCH  23  26
ATOM     26  N   UNL     1      33.056 -11.984 -23.356  0.00  0.00    -0.214 NA
BRANCH  26  29
ATOM     27  N   UNL     1      32.223 -10.372 -21.886  0.00  0.00    -0.370 N 
ATOM     28  N   UNL     1      31.255 -12.437 -21.820  0.00  0.00    -0.370 N 
ATOM     29  C   UNL     1      32.214 -11.643 -22.409  0.00  0.00    +0.193 C 
ATOM     30  H   UNL     1      32.864  -9.705 -22.222  0.00  0.00    +0.159 HD
ATOM     31  H   UNL     1      31.586 -10.128 -21.175  0.00  0.00    +0.159 HD
ATOM     32  H   UNL     1      31.146 -13.372 -22.107  0.00  0.00    +0.159 HD
ATOM     33  H   UNL     1      30.676 -12.068 -21.113  0.00  0.00    +0.159 HD
ENDBRANCH  26  29
ENDBRANCH  23  26
ENDBRANCH  19  20
ENDBRANCH   1  19
TORSDOF 6
ENDMDL
MODEL 4
REMARK VINA RESULT:     -11.5      4.414     10.526
REMARK  Name = 4413
REMARK  6 active torsions:
REMARK  status: ('A' for Active; 'I' for Inactive)
REMARK    1  A    between atoms: O_1  and  C_9
REMARK    2  A    between atoms: O_1  and  C_19
REMARK    3  A    between atoms: C_6  and  C_14
REMARK    4  A    between atoms: C_19  and  C_20
REMARK    5  A    between atoms: C_23  and  N_26
REMARK    6  A    between atoms: N_26  and  C_29
REMARK                            x       y       z     vdW  Elec       q    Type
REMARK                         _______ _______ _______ _____ _____    ______ ____
ROOT
ATOM      1  O   UNL     1      35.822 -18.769 -22.101  0.00  0.00    -0.421 OA
ENDROOT
BRANCH   1   9
ATOM      2  C   UNL     1      34.190 -14.943 -21.805  0.00  0.00    +0.000 C 
ATOM      3  C   UNL     1      34.327 -15.558 -23.073  0.00  0.00    +0.003 C 
ATOM      4  C   UNL     1      33.639 -13.654 -21.722  0.00  0.00    +0.003 C 
ATOM      5  C   UNL     1      34.878 -16.847 -23.154  0.00  0.00    +0.038 C 
ATOM      6  C   UNL     1      33.226 -12.982 -22.873  0.00  0.00    +0.031 C 
ATOM      7  C   UNL     1      33.906 -14.867 -24.219  0.00  0.00    +0.000 C 
ATOM      8  C   UNL     1      34.611 -15.635 -20.657  0.00  0.00    +0.003 C 
ATOM      9  C   UNL     1      35.291 -17.520 -22.003  0.00  0.00    +0.149 C 
ATOM     10  C   UNL     1      33.360 -13.587 -24.120  0.00  0.00    +0.003 C 
ATOM     11  C   UNL     1      35.157 -16.915 -20.758  0.00  0.00    +0.038 C 
BRANCH   6  14
ATOM     12  N   UNL     1      31.461 -11.419 -22.092  0.00  0.00    -0.343 N 
ATOM     13  N   UNL     1      33.276 -10.624 -23.331  0.00  0.00    -0.285 NA
ATOM     14  C   UNL     1      32.657 -11.648 -22.771  0.00  0.00    +0.117 C 
ATOM     15  H   UNL     1      31.095 -10.507 -22.036  0.00  0.00    +0.144 HD
ATOM     16  H   UNL     1      30.984 -12.169 -21.670  0.00  0.00    +0.144 HD
ATOM     17  H   UNL     1      32.892  -9.719 -23.263  0.00  0.00    +0.188 HD
ENDBRANCH   6  14
ENDBRANCH   1   9
BRANCH   1  19
ATOM     18  O   UNL     1      37.465 -18.822 -20.449  0.00  0.00    -0.244 OA
ATOM     19  C   UNL     1      36.418 -19.234 -20.927  0.00  0.00    +0.346 C 
BRANCH  19  20
ATOM     20  C   UNL     1      35.608 -20.310 -20.301  0.00  0.00    +0.076 C 
ATOM     21  C   UNL     1      34.241 -20.308 -20.483  0.00  0.00    +0.008 C 
ATOM     22  C   UNL     1      36.250 -21.280 -19.558  0.00  0.00    +0.008 C 
ATOM     23  C   UNL     1      34.105 -22.312 -19.142  0.00  0.00    +0.084 C 
ATOM     24  C   UNL     1      33.482 -21.320 -19.897  0.00  0.00    +0.019 C 
ATOM     25  C   UNL     1      35.490 -22.292 -18.971  0.00  0.00    +0.019 C 
BRANCH  23  26
ATOM     26  N   UNL     1      33.344 -23.326 -18.553  0.00  0.00    -0.214 NA
BRANCH  26  29
ATOM     27  N   UNL     1      31.598 -22.762 -17.106  0.00  0.00    -0.370 N 
ATOM     28  N   UNL     1      33.596 -23.320 -16.155  0.00  0.00    -0.370 N 
ATOM     29  C   UNL     1      32.897 -23.154 -17.331  0.00  0.00    +0.193 C 
ATOM     30  H   UNL     1      30.992 -22.608 -17.866  0.00  0.00    +0.159 HD
ATOM     31  H   UNL     1      31.274 -22.636 -16.184  0.00  0.00    +0.159 HD
ATOM     32  H   UNL     1      34.539 -23.600 -16.179  0.00  0.00    +0.159 HD
ATOM     33  H   UNL     1      33.151 -23.161 -15.291  0.00  0.00    +0.159 HD
ENDBRANCH  26  29
ENDBRANCH  23  26
ENDBRANCH  19  20
ENDBRANCH   1  19
TORSDOF 6
ENDMDL
MODEL 5
REMARK VINA RESULT:     -11.4      2.163      8.509
REMARK  Name = 4413
REMARK  6 active torsions:
REMARK  status: ('A' for Active; 'I' for Inactive)
REMARK    1  A    between atoms: O_1  and  C_9
REMARK    2  A    between atoms: O_1  and  C_19
REMARK    3  A    between atoms: C_6  and  C_14
REMARK    4  A    between atoms: C_19  and  C_20
REMARK    5  A    between atoms: C_23  and  N_26
REMARK    6  A    between atoms: N_26  and  C_29
REMARK                            x       y       z     vdW  Elec       q    Type
REMARK                         _______ _______ _______ _____ _____    ______ ____
ROOT
ATOM      1  O   UNL     1      34.008 -23.774 -17.838  0.00  0.00    -0.421 OA
ENDROOT
BRANCH   1   9
ATOM      2  C   UNL     1      34.021 -20.366 -20.240  0.00  0.00    +0.000 C 
ATOM      3  C   UNL     1      35.245 -20.949 -19.832  0.00  0.00    +0.003 C 
ATOM      4  C   UNL     1      34.043 -19.219 -21.049  0.00  0.00    +0.003 C 
ATOM      5  C   UNL     1      35.222 -22.097 -19.023  0.00  0.00    +0.038 C 
ATOM      6  C   UNL     1      35.253 -18.654 -21.451  0.00  0.00    +0.031 C 
ATOM      7  C   UNL     1      36.454 -20.368 -20.246  0.00  0.00    +0.000 C 
ATOM      8  C   UNL     1      32.811 -20.948 -19.826  0.00  0.00    +0.003 C 
ATOM      9  C   UNL     1      34.012 -22.662 -18.621  0.00  0.00    +0.149 C 
ATOM     10  C   UNL     1      36.457 -19.227 -21.050  0.00  0.00    +0.003 C 
ATOM     11  C   UNL     1      32.809 -22.088 -19.022  0.00  0.00    +0.038 C 
BRANCH   6  14
ATOM     12  N   UNL     1      35.122 -16.191 -21.741  0.00  0.00    -0.343 N 
ATOM     13  N   UNL     1      35.393 -17.584 -23.598  0.00  0.00    -0.285 NA
ATOM     14  C   UNL     1      35.259 -17.466 -22.289  0.00  0.00    +0.117 C 
ATOM     15  H   UNL     1      35.130 -15.401 -22.327  0.00  0.00    +0.144 HD
ATOM     16  H   UNL     1      35.019 -16.082 -20.768  0.00  0.00    +0.144 HD
ATOM     17  H   UNL     1      35.397 -16.780 -24.167  0.00  0.00    +0.188 HD
ENDBRANCH   6  14
ENDBRANCH   1   9
BRANCH   1  19
ATOM     18  O   UNL     1      32.840 -23.155 -15.919  0.00  0.00    -0.244 OA
ATOM     19  C   UNL     1      33.868 -23.518 -16.473  0.00  0.00    +0.346 C 
BRANCH  19  20
ATOM     20  C   UNL     1      35.142 -23.752 -15.746  0.00  0.00    +0.076 C 
ATOM     21  C   UNL     1      35.279 -24.900 -14.993  0.00  0.00    +0.008 C 
ATOM     22  C   UNL     1      36.149 -22.815 -15.849  0.00  0.00    +0.008 C 
ATOM     23  C   UNL     1      37.511 -24.190 -14.401  0.00  0.00    +0.084 C 
ATOM     24  C   UNL     1      36.476 -25.121 -14.313  0.00  0.00    +0.019 C 
ATOM     25  C   UNL     1      37.348 -23.036 -15.169  0.00  0.00    +0.019 C 
BRANCH  23  26
ATOM     26  N   UNL     1      38.711 -24.410 -13.719  0.00  0.00    -0.214 NA
BRANCH  26  29
ATOM     27  N   UNL     1      39.556 -26.518 -13.170  0.00  0.00    -0.370 N 
ATOM     28  N   UNL     1      40.153 -25.655 -15.196  0.00  0.00    -0.370 N 
ATOM     29  C   UNL     1      39.437 -25.456 -14.036  0.00  0.00    +0.193 C 
ATOM     30  H   UNL     1      39.091 -26.500 -12.302  0.00  0.00    +0.159 HD
ATOM     31  H   UNL     1      40.104 -27.297 -13.419  0.00  0.00    +0.159 HD
ATOM     32  H   UNL     1      40.150 -24.967 -15.899  0.00  0.00    +0.159 HD
ATOM     33  H   UNL     1      40.665 -26.487 -15.323  0.00  0.00    +0.159 HD
ENDBRANCH  26  29
ENDBRANCH  23  26
ENDBRANCH  19  20
ENDBRANCH   1  19
TORSDOF 6
ENDMDL
MODEL 6
REMARK VINA RESULT:     -11.3      2.790      9.001
REMARK  Name = 4413
REMARK  6 active torsions:
REMARK  status: ('A' for Active; 'I' for Inactive)
REMARK    1  A    between atoms: O_1  and  C_9
REMARK    2  A    between atoms: O_1  and  C_19
REMARK    3  A    between atoms: C_6  and  C_14
REMARK    4  A    between atoms: C_19  and  C_20
REMARK    5  A    between atoms: C_23  and  N_26
REMARK    6  A    between atoms: N_26  and  C_29
REMARK                            x       y       z     vdW  Elec       q    Type
REMARK                         _______ _______ _______ _____ _____    ______ ____
ROOT
ATOM      1  O   UNL     1      34.954 -23.284 -17.920  0.00  0.00    -0.421 OA
ENDROOT
BRANCH   1   9
ATOM      2  C   UNL     1      34.393 -20.170 -20.636  0.00  0.00    +0.000 C 
ATOM      3  C   UNL     1      35.699 -20.505 -20.203  0.00  0.00    +0.003 C 
ATOM      4  C   UNL     1      34.222 -19.119 -21.551  0.00  0.00    +0.003 C 
ATOM      5  C   UNL     1      35.870 -21.556 -19.288  0.00  0.00    +0.038 C 
ATOM      6  C   UNL     1      35.321 -18.408 -22.033  0.00  0.00    +0.031 C 
ATOM      7  C   UNL     1      36.794 -19.780 -20.699  0.00  0.00    +0.000 C 
ATOM      8  C   UNL     1      33.298 -20.896 -20.139  0.00  0.00    +0.003 C 
ATOM      9  C   UNL     1      34.770 -22.267 -18.805  0.00  0.00    +0.149 C 
ATOM     10  C   UNL     1      36.605 -18.738 -21.608  0.00  0.00    +0.003 C 
ATOM     11  C   UNL     1      33.487 -21.937 -19.231  0.00  0.00    +0.038 C 
BRANCH   6  14
ATOM     12  N   UNL     1      34.548 -17.544 -24.229  0.00  0.00    -0.343 N 
ATOM     13  N   UNL     1      35.506 -16.097 -22.663  0.00  0.00    -0.285 NA
ATOM     14  C   UNL     1      35.127 -17.322 -22.980  0.00  0.00    +0.117 C 
ATOM     15  H   UNL     1      34.426 -16.793 -24.854  0.00  0.00    +0.144 HD
ATOM     16  H   UNL     1      34.262 -18.450 -24.485  0.00  0.00    +0.144 HD
ATOM     17  H   UNL     1      35.375 -15.360 -23.303  0.00  0.00    +0.188 HD
ENDBRANCH   6  14
ENDBRANCH   1   9
BRANCH   1  19
ATOM     18  O   UNL     1      35.984 -22.267 -16.095  0.00  0.00    -0.244 OA
ATOM     19  C   UNL     1      35.047 -22.877 -16.588  0.00  0.00    +0.346 C 
BRANCH  19  20
ATOM     20  C   UNL     1      33.841 -23.273 -15.818  0.00  0.00    +0.076 C 
ATOM     21  C   UNL     1      32.614 -23.265 -16.449  0.00  0.00    +0.008 C 
ATOM     22  C   UNL     1      33.985 -23.639 -14.495  0.00  0.00    +0.008 C 
ATOM     23  C   UNL     1      31.600 -24.014 -14.388  0.00  0.00    +0.084 C 
ATOM     24  C   UNL     1      31.482 -23.639 -15.726  0.00  0.00    +0.019 C 
ATOM     25  C   UNL     1      32.852 -24.014 -13.772  0.00  0.00    +0.019 C 
BRANCH  23  26
ATOM     26  N   UNL     1      30.465 -24.387 -13.663  0.00  0.00    -0.214 NA
BRANCH  26  29
ATOM     27  N   UNL     1      29.425 -26.436 -14.086  0.00  0.00    -0.370 N 
ATOM     28  N   UNL     1      28.556 -24.597 -15.120  0.00  0.00    -0.370 N 
ATOM     29  C   UNL     1      29.526 -25.076 -14.266  0.00  0.00    +0.193 C 
ATOM     30  H   UNL     1      30.060 -26.903 -13.496  0.00  0.00    +0.159 HD
ATOM     31  H   UNL     1      28.715 -26.943 -14.544  0.00  0.00    +0.159 HD
ATOM     32  H   UNL     1      28.520 -23.637 -15.333  0.00  0.00    +0.159 HD
ATOM     33  H   UNL     1      27.899 -25.215 -15.516  0.00  0.00    +0.159 HD
ENDBRANCH  26  29
ENDBRANCH  23  26
ENDBRANCH  19  20
ENDBRANCH   1  19
TORSDOF 6
ENDMDL
MODEL 7
REMARK VINA RESULT:     -11.2      1.265      9.118
REMARK  Name = 4413
REMARK  6 active torsions:
REMARK  status: ('A' for Active; 'I' for Inactive)
REMARK    1  A    between atoms: O_1  and  C_9
REMARK    2  A    between atoms: O_1  and  C_19
REMARK    3  A    between atoms: C_6  and  C_14
REMARK    4  A    between atoms: C_19  and  C_20
REMARK    5  A    between atoms: C_23  and  N_26
REMARK    6  A    between atoms: N_26  and  C_29
REMARK                            x       y       z     vdW  Elec       q    Type
REMARK                         _______ _______ _______ _____ _____    ______ ____
ROOT
ATOM      1  O   UNL     1      34.617 -23.120 -17.855  0.00  0.00    -0.421 OA
ENDROOT
BRANCH   1   9
ATOM      2  C   UNL     1      34.247 -20.132 -20.740  0.00  0.00    +0.000 C 
ATOM      3  C   UNL     1      35.523 -20.467 -20.228  0.00  0.00    +0.003 C 
ATOM      4  C   UNL     1      34.139 -19.124 -21.712  0.00  0.00    +0.003 C 
ATOM      5  C   UNL     1      35.630 -21.475 -19.256  0.00  0.00    +0.038 C 
ATOM      6  C   UNL     1      35.274 -18.456 -22.172  0.00  0.00    +0.031 C 
ATOM      7  C   UNL     1      36.654 -19.784 -20.702  0.00  0.00    +0.000 C 
ATOM      8  C   UNL     1      33.115 -20.816 -20.265  0.00  0.00    +0.003 C 
ATOM      9  C   UNL     1      34.495 -22.144 -18.796  0.00  0.00    +0.149 C 
ATOM     10  C   UNL     1      36.529 -18.784 -21.668  0.00  0.00    +0.003 C 
ATOM     11  C   UNL     1      33.241 -21.815 -19.300  0.00  0.00    +0.038 C 
BRANCH   6  14
ATOM     12  N   UNL     1      34.531 -17.661 -24.405  0.00  0.00    -0.343 N 
ATOM     13  N   UNL     1      35.621 -16.204 -22.937  0.00  0.00    -0.285 NA
ATOM     14  C   UNL     1      35.146 -17.413 -23.178  0.00  0.00    +0.117 C 
ATOM     15  H   UNL     1      34.455 -16.940 -25.071  0.00  0.00    +0.144 HD
ATOM     16  H   UNL     1      34.173 -18.556 -24.604  0.00  0.00    +0.144 HD
ATOM     17  H   UNL     1      35.535 -15.497 -23.617  0.00  0.00    +0.188 HD
ENDBRANCH   6  14
ENDBRANCH   1   9
BRANCH   1  19
ATOM     18  O   UNL     1      32.331 -23.195 -17.413  0.00  0.00    -0.244 OA
ATOM     19  C   UNL     1      33.492 -23.281 -17.043  0.00  0.00    +0.346 C 
BRANCH  19  20
ATOM     20  C   UNL     1      33.878 -23.587 -15.642  0.00  0.00    +0.076 C 
ATOM     21  C   UNL     1      32.922 -24.078 -14.779  0.00  0.00    +0.008 C 
ATOM     22  C   UNL     1      35.184 -23.373 -15.249  0.00  0.00    +0.008 C 
ATOM     23  C   UNL     1      34.598 -24.161 -13.041  0.00  0.00    +0.084 C 
ATOM     24  C   UNL     1      33.286 -24.368 -13.464  0.00  0.00    +0.019 C 
ATOM     25  C   UNL     1      35.548 -23.663 -13.934  0.00  0.00    +0.019 C 
BRANCH  23  26
ATOM     26  N   UNL     1      34.963 -24.450 -11.723  0.00  0.00    -0.214 NA
BRANCH  26  29
ATOM     27  N   UNL     1      36.618 -26.093 -11.853  0.00  0.00    -0.370 N 
ATOM     28  N   UNL     1      37.185 -24.126 -10.847  0.00  0.00    -0.370 N 
ATOM     29  C   UNL     1      36.191 -24.841 -11.477  0.00  0.00    +0.193 C 
ATOM     30  H   UNL     1      36.000 -26.706 -12.315  0.00  0.00    +0.159 HD
ATOM     31  H   UNL     1      37.542 -26.377 -11.663  0.00  0.00    +0.159 HD
ATOM     32  H   UNL     1      37.007 -23.212 -10.528  0.00  0.00    +0.159 HD
ATOM     33  H   UNL     1      38.075 -24.528 -10.718  0.00  0.00    +0.159 HD
ENDBRANCH  26  29
ENDBRANCH  23  26
ENDBRANCH  19  20
ENDBRANCH   1  19
TORSDOF 6
ENDMDL
MODEL 8
REMARK VINA RESULT:     -10.9      4.215      6.810
REMARK  Name = 4413
REMARK  6 active torsions:
REMARK  status: ('A' for Active; 'I' for Inactive)
REMARK    1  A    between atoms: O_1  and  C_9
REMARK    2  A    between atoms: O_1  and  C_19
REMARK    3  A    between atoms: C_6  and  C_14
REMARK    4  A    between atoms: C_19  and  C_20
REMARK    5  A    between atoms: C_23  and  N_26
REMARK    6  A    between atoms: N_26  and  C_29
REMARK                            x       y       z     vdW  Elec       q    Type
REMARK                         _______ _______ _______ _____ _____    ______ ____
ROOT
ATOM      1  O   UNL     1      35.655 -18.419 -22.893  0.00  0.00    -0.421 OA
ENDROOT
BRANCH   1   9
ATOM      2  C   UNL     1      34.140 -20.958 -19.953  0.00  0.00    +0.000 C 
ATOM      3  C   UNL     1      35.534 -20.724 -20.036  0.00  0.00    +0.003 C 
ATOM      4  C   UNL     1      33.646 -21.815 -18.957  0.00  0.00    +0.003 C 
ATOM      5  C   UNL     1      36.027 -19.867 -21.033  0.00  0.00    +0.038 C 
ATOM      6  C   UNL     1      34.513 -22.433 -18.055  0.00  0.00    +0.031 C 
ATOM      7  C   UNL     1      36.392 -21.354 -19.121  0.00  0.00    +0.000 C 
ATOM      8  C   UNL     1      33.282 -20.328 -20.869  0.00  0.00    +0.003 C 
ATOM      9  C   UNL     1      35.160 -19.248 -21.935  0.00  0.00    +0.149 C 
ATOM     10  C   UNL     1      35.884 -22.203 -18.137  0.00  0.00    +0.003 C 
ATOM     11  C   UNL     1      33.790 -19.479 -21.852  0.00  0.00    +0.038 C 
BRANCH   6  14
ATOM     12  N   UNL     1      32.613 -23.485 -16.850  0.00  0.00    -0.343 N 
ATOM     13  N   UNL     1      34.815 -23.982 -16.243  0.00  0.00    -0.285 NA
ATOM     14  C   UNL     1      33.986 -23.319 -17.029  0.00  0.00    +0.117 C 
ATOM     15  H   UNL     1      32.279 -24.090 -16.149  0.00  0.00    +0.144 HD
ATOM     16  H   UNL     1      31.979 -22.997 -17.424  0.00  0.00    +0.144 HD
ATOM     17  H   UNL     1      34.460 -24.583 -15.548  0.00  0.00    +0.188 HD
ENDBRANCH   6  14
ENDBRANCH   1   9
BRANCH   1  19
ATOM     18  O   UNL     1      34.161 -18.697 -24.659  0.00  0.00    -0.244 OA
ATOM     19  C   UNL     1      34.711 -17.990 -23.828  0.00  0.00    +0.346 C 
BRANCH  19  20
ATOM     20  C   UNL     1      34.433 -16.538 -23.686  0.00  0.00    +0.076 C 
ATOM     21  C   UNL     1      33.756 -15.886 -24.695  0.00  0.00    +0.008 C 
ATOM     22  C   UNL     1      34.861 -15.887 -22.547  0.00  0.00    +0.008 C 
ATOM     23  C   UNL     1      33.915 -13.841 -23.418  0.00  0.00    +0.084 C 
ATOM     24  C   UNL     1      33.494 -14.523 -24.559  0.00  0.00    +0.019 C 
ATOM     25  C   UNL     1      34.599 -14.523 -22.412  0.00  0.00    +0.019 C 
BRANCH  23  26
ATOM     26  N   UNL     1      33.654 -12.475 -23.283  0.00  0.00    -0.214 NA
BRANCH  26  29
ATOM     27  N   UNL     1      31.770 -13.014 -22.011  0.00  0.00    -0.370 N 
ATOM     28  N   UNL     1      32.058 -10.818 -22.562  0.00  0.00    -0.370 N 
ATOM     29  C   UNL     1      32.562 -12.097 -22.661  0.00  0.00    +0.193 C 
ATOM     30  H   UNL     1      32.021 -13.966 -22.007  0.00  0.00    +0.159 HD
ATOM     31  H   UNL     1      30.952 -12.718 -21.548  0.00  0.00    +0.159 HD
ATOM     32  H   UNL     1      32.533 -10.068 -22.986  0.00  0.00    +0.159 HD
ATOM     33  H   UNL     1      31.223 -10.655 -22.065  0.00  0.00    +0.159 HD
ENDBRANCH  26  29
ENDBRANCH  23  26
ENDBRANCH  19  20
ENDBRANCH   1  19
TORSDOF 6
ENDMDL
MODEL 9
REMARK VINA RESULT:     -10.3      3.813      8.448
REMARK  Name = 4413
REMARK  6 active torsions:
REMARK  status: ('A' for Active; 'I' for Inactive)
REMARK    1  A    between atoms: O_1  and  C_9
REMARK    2  A    between atoms: O_1  and  C_19
REMARK    3  A    between atoms: C_6  and  C_14
REMARK    4  A    between atoms: C_19  and  C_20
REMARK    5  A    between atoms: C_23  and  N_26
REMARK    6  A    between atoms: N_26  and  C_29
REMARK                            x       y       z     vdW  Elec       q    Type
REMARK                         _______ _______ _______ _____ _____    ______ ____
ROOT
ATOM      1  O   UNL     1      34.324 -23.972 -16.338  0.00  0.00    -0.421 OA
ENDROOT
BRANCH   1   9
ATOM      2  C   UNL     1      35.392 -21.250 -19.312  0.00  0.00    +0.000 C 
ATOM      3  C   UNL     1      34.041 -21.650 -19.170  0.00  0.00    +0.003 C 
ATOM      4  C   UNL     1      35.735 -20.333 -20.318  0.00  0.00    +0.003 C 
ATOM      5  C   UNL     1      33.699 -22.567 -18.163  0.00  0.00    +0.038 C 
ATOM      6  C   UNL     1      34.760 -19.816 -21.172  0.00  0.00    +0.031 C 
ATOM      7  C   UNL     1      33.073 -21.119 -20.037  0.00  0.00    +0.000 C 
ATOM      8  C   UNL     1      36.360 -21.781 -18.444  0.00  0.00    +0.003 C 
ATOM      9  C   UNL     1      34.674 -23.085 -17.309  0.00  0.00    +0.149 C 
ATOM     10  C   UNL     1      33.432 -20.208 -21.033  0.00  0.00    +0.003 C 
ATOM     11  C   UNL     1      36.001 -22.692 -17.449  0.00  0.00    +0.038 C 
BRANCH   6  14
ATOM     12  N   UNL     1      34.419 -18.784 -23.405  0.00  0.00    -0.343 N 
ATOM     13  N   UNL     1      36.164 -18.064 -22.027  0.00  0.00    -0.285 NA
ATOM     14  C   UNL     1      35.131 -18.867 -22.210  0.00  0.00    +0.117 C 
ATOM     15  H   UNL     1      34.687 -18.134 -24.093  0.00  0.00    +0.144 HD
ATOM     16  H   UNL     1      33.647 -19.375 -23.560  0.00  0.00    +0.144 HD
ATOM     17  H   UNL     1      36.417 -17.421 -22.729  0.00  0.00    +0.188 HD
ENDBRANCH   6  14
ENDBRANCH   1   9
BRANCH   1  19
ATOM     18  O   UNL     1      34.460 -22.834 -14.310  0.00  0.00    -0.244 OA
ATOM     19  C   UNL     1      33.805 -23.385 -15.182  0.00  0.00    +0.346 C 
BRANCH  19  20
ATOM     20  C   UNL     1      32.326 -23.501 -15.137  0.00  0.00    +0.076 C 
ATOM     21  C   UNL     1      31.608 -22.601 -14.376  0.00  0.00    +0.008 C 
ATOM     22  C   UNL     1      31.714 -24.506 -15.859  0.00  0.00    +0.008 C 
ATOM     23  C   UNL     1      29.576 -23.715 -15.057  0.00  0.00    +0.084 C 
ATOM     24  C   UNL     1      30.219 -22.710 -14.336  0.00  0.00    +0.019 C 
ATOM     25  C   UNL     1      30.323 -24.614 -15.819  0.00  0.00    +0.019 C 
BRANCH  23  26
ATOM     26  N   UNL     1      28.183 -23.825 -15.016  0.00  0.00    -0.214 NA
BRANCH  26  29
ATOM     27  N   UNL     1      26.419 -22.341 -15.393  0.00  0.00    -0.370 N 
ATOM     28  N   UNL     1      27.622 -23.007 -17.214  0.00  0.00    -0.370 N 
ATOM     29  C   UNL     1      27.466 -23.107 -15.848  0.00  0.00    +0.193 C 
ATOM     30  H   UNL     1      26.201 -22.325 -14.433  0.00  0.00    +0.159 HD
ATOM     31  H   UNL     1      25.887 -21.806 -16.027  0.00  0.00    +0.159 HD
ATOM     32  H   UNL     1      28.339 -23.509 -17.664  0.00  0.00    +0.159 HD
ATOM     33  H   UNL     1      27.018 -22.432 -17.738  0.00  0.00    +0.159 HD
ENDBRANCH  26  29
ENDBRANCH  23  26
ENDBRANCH  19  20
ENDBRANCH   1  19
TORSDOF 6
ENDMDL
