MODEL 1
REMARK VINA RESULT:     -11.7      0.000      0.000
REMARK  Name = 656913
REMARK  7 active torsions:
REMARK  status: ('A' for Active; 'I' for Inactive)
REMARK    1  A    between atoms: N_3  and  C_22
REMARK    2  A    between atoms: N_4  and  C_11
REMARK    3  A    between atoms: C_11  and  C_14
REMARK    4  A    between atoms: C_14  and  C_17
REMARK    5  A    between atoms: C_22  and  C_25
REMARK    6  A    between atoms: N_24  and  C_27
REMARK    7  A    between atoms: C_27  and  C_29
REMARK                            x       y       z     vdW  Elec       q    Type
REMARK                         _______ _______ _______ _____ _____    ______ ____
ROOT
ATOM      1 CL   UNL     1      32.985 -13.473 -26.158  0.00  0.00    -0.064 Cl
ATOM      2  O   UNL     1      35.034 -14.489 -21.682  0.00  0.00    -0.266 OA
ATOM      3  N   UNL     1      34.076 -13.978 -23.761  0.00  0.00    -0.233 N 
ATOM      4  N   UNL     1      35.141 -17.136 -22.163  0.00  0.00    -0.310 N 
ATOM      5  N   UNL     1      34.187 -16.744 -24.268  0.00  0.00    -0.223 NA
ATOM      6  C   UNL     1      34.628 -16.303 -23.124  0.00  0.00    +0.183 C 
ATOM      7  C   UNL     1      34.600 -14.820 -22.780  0.00  0.00    +0.285 C 
ATOM      8  C   UNL     1      33.629 -14.520 -24.950  0.00  0.00    +0.133 C 
ATOM      9  C   UNL     1      33.695 -15.838 -25.161  0.00  0.00    +0.127 C 
ATOM     10  H   UNL     1      35.461 -16.748 -21.316  0.00  0.00    +0.149 HD
ENDROOT
BRANCH   4  11
ATOM     11  C   UNL     1      35.229 -18.551 -22.349  0.00  0.00    +0.162 C 
BRANCH  11  14
ATOM     12  F   UNL     1      36.353 -18.200 -20.317  0.00  0.00    -0.196 F 
ATOM     13  F   UNL     1      37.088 -19.779 -21.611  0.00  0.00    -0.196 F 
ATOM     14  C   UNL     1      35.940 -19.194 -21.159  0.00  0.00    +0.317 C 
BRANCH  14  17
ATOM     15  O   UNL     1      36.893 -21.180 -19.504  0.00  0.00    -0.163 OA
ATOM     16  N   UNL     1      35.629 -21.129 -19.664  0.00  0.00    -0.128 N 
ATOM     17  C   UNL     1      35.037 -20.184 -20.464  0.00  0.00    +0.142 C 
ATOM     18  C   UNL     1      33.668 -20.117 -20.645  0.00  0.00    +0.022 C 
ATOM     19  C   UNL     1      34.817 -22.043 -19.021  0.00  0.00    +0.121 C 
ATOM     20  C   UNL     1      32.860 -21.042 -19.992  0.00  0.00    +0.003 C 
ATOM     21  C   UNL     1      33.435 -22.010 -19.175  0.00  0.00    +0.022 C 
ENDBRANCH  14  17
ENDBRANCH  11  14
ENDBRANCH   4  11
BRANCH   3  22
ATOM     22  C   UNL     1      34.015 -12.543 -23.504  0.00  0.00    +0.184 C 
BRANCH  22  25
ATOM     23  O   UNL     1      31.989 -13.076 -22.297  0.00  0.00    -0.273 OA
ATOM     24  N   UNL     1      32.505 -10.850 -22.721  0.00  0.00    -0.299 N 
ATOM     25  C   UNL     1      32.736 -12.217 -22.760  0.00  0.00    +0.243 C 
ATOM     26  H   UNL     1      33.175 -10.251 -23.125  0.00  0.00    +0.150 HD
BRANCH  24  27
ATOM     27  C   UNL     1      31.332 -10.260 -22.116  0.00  0.00    +0.119 C 
BRANCH  27  29
ATOM     28  F   UNL     1      32.549  -9.373 -19.724  0.00  0.00    -0.204 F 
ATOM     29  C   UNL     1      31.535  -8.807 -21.795  0.00  0.00    +0.025 C 
ATOM     30  C   UNL     1      32.142  -8.442 -20.599  0.00  0.00    +0.138 C 
ATOM     31  C   UNL     1      31.113  -7.841 -22.701  0.00  0.00    -0.000 C 
ATOM     32  C   UNL     1      32.329  -7.092 -20.305  0.00  0.00    +0.029 C 
ATOM     33  C   UNL     1      31.301  -6.491 -22.406  0.00  0.00    -0.000 C 
ATOM     34  C   UNL     1      31.908  -6.116 -21.209  0.00  0.00    +0.002 C 
ENDBRANCH  27  29
ENDBRANCH  24  27
ENDBRANCH  22  25
ENDBRANCH   3  22
TORSDOF 7
ENDMDL
MODEL 2
REMARK VINA RESULT:     -11.5      2.053      2.869
REMARK  Name = 656913
REMARK  7 active torsions:
REMARK  status: ('A' for Active; 'I' for Inactive)
REMARK    1  A    between atoms: N_3  and  C_22
REMARK    2  A    between atoms: N_4  and  C_11
REMARK    3  A    between atoms: C_11  and  C_14
REMARK    4  A    between atoms: C_14  and  C_17
REMARK    5  A    between atoms: C_22  and  C_25
REMARK    6  A    between atoms: N_24  and  C_27
REMARK    7  A    between atoms: C_27  and  C_29
REMARK                            x       y       z     vdW  Elec       q    Type
REMARK                         _______ _______ _______ _____ _____    ______ ____
ROOT
ATOM      1 CL   UNL     1      34.329 -15.627 -25.136  0.00  0.00    -0.064 Cl
ATOM      2  O   UNL     1      35.109 -16.534 -20.255  0.00  0.00    -0.266 OA
ATOM      3  N   UNL     1      34.744 -16.074 -22.526  0.00  0.00    -0.233 N 
ATOM      4  N   UNL     1      35.127 -19.204 -20.599  0.00  0.00    -0.310 N 
ATOM      5  N   UNL     1      34.762 -18.864 -22.889  0.00  0.00    -0.223 NA
ATOM      6  C   UNL     1      34.937 -18.391 -21.687  0.00  0.00    +0.183 C 
ATOM      7  C   UNL     1      34.939 -16.894 -21.414  0.00  0.00    +0.285 C 
ATOM      8  C   UNL     1      34.567 -16.647 -23.769  0.00  0.00    +0.133 C 
ATOM      9  C   UNL     1      34.581 -17.977 -23.909  0.00  0.00    +0.127 C 
ATOM     10  H   UNL     1      35.254 -18.793 -19.713  0.00  0.00    +0.149 HD
ENDROOT
BRANCH   4  11
ATOM     11  C   UNL     1      35.149 -20.629 -20.706  0.00  0.00    +0.162 C 
BRANCH  11  14
ATOM     12  F   UNL     1      36.734 -20.216 -19.024  0.00  0.00    -0.196 F 
ATOM     13  F   UNL     1      36.948 -22.041 -20.177  0.00  0.00    -0.196 F 
ATOM     14  C   UNL     1      36.017 -21.227 -19.599  0.00  0.00    +0.317 C 
BRANCH  14  17
ATOM     15  O   UNL     1      37.008 -22.131 -17.192  0.00  0.00    -0.163 OA
ATOM     16  N   UNL     1      35.776 -22.366 -17.426  0.00  0.00    -0.128 N 
ATOM     17  C   UNL     1      35.170 -21.964 -18.590  0.00  0.00    +0.142 C 
ATOM     18  C   UNL     1      33.836 -22.210 -18.855  0.00  0.00    +0.022 C 
ATOM     19  C   UNL     1      35.016 -23.042 -16.492  0.00  0.00    +0.121 C 
ATOM     20  C   UNL     1      33.079 -22.891 -17.907  0.00  0.00    +0.003 C 
ATOM     21  C   UNL     1      33.670 -23.310 -16.719  0.00  0.00    +0.022 C 
ENDBRANCH  14  17
ENDBRANCH  11  14
ENDBRANCH   4  11
BRANCH   3  22
ATOM     22  C   UNL     1      34.731 -14.626 -22.343  0.00  0.00    +0.184 C 
BRANCH  22  25
ATOM     23  O   UNL     1      32.518 -14.148 -23.187  0.00  0.00    -0.273 OA
ATOM     24  N   UNL     1      33.019 -13.651 -20.973  0.00  0.00    -0.299 N 
ATOM     25  C   UNL     1      33.301 -14.141 -22.240  0.00  0.00    +0.243 C 
ATOM     26  H   UNL     1      33.725 -13.695 -20.288  0.00  0.00    +0.150 HD
BRANCH  24  27
ATOM     27  C   UNL     1      31.742 -13.078 -20.609  0.00  0.00    +0.119 C 
BRANCH  27  29
ATOM     28  F   UNL     1      31.788 -11.188 -22.709  0.00  0.00    -0.204 F 
ATOM     29  C   UNL     1      31.837 -11.599 -20.371  0.00  0.00    +0.025 C 
ATOM     30  C   UNL     1      31.854 -10.725 -21.453  0.00  0.00    +0.138 C 
ATOM     31  C   UNL     1      31.907 -11.118 -19.069  0.00  0.00    -0.000 C 
ATOM     32  C   UNL     1      31.942  -9.352 -21.228  0.00  0.00    +0.029 C 
ATOM     33  C   UNL     1      31.994  -9.744 -18.845  0.00  0.00    -0.000 C 
ATOM     34  C   UNL     1      32.012  -8.861 -19.924  0.00  0.00    +0.002 C 
ENDBRANCH  27  29
ENDBRANCH  24  27
ENDBRANCH  22  25
ENDBRANCH   3  22
TORSDOF 7
ENDMDL
MODEL 3
REMARK VINA RESULT:     -11.5      3.232     10.846
REMARK  Name = 656913
REMARK  7 active torsions:
REMARK  status: ('A' for Active; 'I' for Inactive)
REMARK    1  A    between atoms: N_3  and  C_22
REMARK    2  A    between atoms: N_4  and  C_11
REMARK    3  A    between atoms: C_11  and  C_14
REMARK    4  A    between atoms: C_14  and  C_17
REMARK    5  A    between atoms: C_22  and  C_25
REMARK    6  A    between atoms: N_24  and  C_27
REMARK    7  A    between atoms: C_27  and  C_29
REMARK                            x       y       z     vdW  Elec       q    Type
REMARK                         _______ _______ _______ _____ _____    ______ ____
ROOT
ATOM      1 CL   UNL     1      32.035 -13.966 -20.034  0.00  0.00    -0.064 Cl
ATOM      2  O   UNL     1      32.031 -10.545 -23.716  0.00  0.00    -0.266 OA
ATOM      3  N   UNL     1      32.036 -12.169 -22.024  0.00  0.00    -0.233 N 
ATOM      4  N   UNL     1      31.713  -8.487 -22.009  0.00  0.00    -0.310 N 
ATOM      5  N   UNL     1      31.704 -10.020 -20.237  0.00  0.00    -0.223 NA
ATOM      6  C   UNL     1      31.785  -9.763 -21.512  0.00  0.00    +0.183 C 
ATOM      7  C   UNL     1      31.964 -10.874 -22.538  0.00  0.00    +0.285 C 
ATOM      8  C   UNL     1      31.944 -12.364 -20.660  0.00  0.00    +0.133 C 
ATOM      9  C   UNL     1      31.787 -11.322 -19.837  0.00  0.00    +0.127 C 
ATOM     10  H   UNL     1      31.780  -8.350 -22.983  0.00  0.00    +0.149 HD
ENDROOT
BRANCH   4  11
ATOM     11  C   UNL     1      31.546  -7.347 -21.164  0.00  0.00    +0.162 C 
BRANCH  11  14
ATOM     12  F   UNL     1      33.591  -7.178 -20.022  0.00  0.00    -0.196 F 
ATOM     13  F   UNL     1      32.600  -5.331 -20.583  0.00  0.00    -0.196 F 
ATOM     14  C   UNL     1      32.869  -6.595 -21.026  0.00  0.00    +0.317 C 
BRANCH  14  17
ATOM     15  O   UNL     1      32.250  -4.886 -23.097  0.00  0.00    -0.163 OA
ATOM     16  N   UNL     1      33.221  -5.690 -23.291  0.00  0.00    -0.128 N 
ATOM     17  C   UNL     1      33.622  -6.588 -22.333  0.00  0.00    +0.142 C 
ATOM     18  C   UNL     1      34.674  -7.462 -22.531  0.00  0.00    +0.022 C 
ATOM     19  C   UNL     1      33.899  -5.670 -24.495  0.00  0.00    +0.121 C 
ATOM     20  C   UNL     1      35.350  -7.433 -23.746  0.00  0.00    +0.003 C 
ATOM     21  C   UNL     1      34.962  -6.533 -24.734  0.00  0.00    +0.022 C 
ENDBRANCH  14  17
ENDBRANCH  11  14
ENDBRANCH   4  11
BRANCH   3  22
ATOM     22  C   UNL     1      32.206 -13.287 -22.946  0.00  0.00    +0.184 C 
BRANCH  22  25
ATOM     23  O   UNL     1      34.571 -12.855 -23.191  0.00  0.00    -0.273 OA
ATOM     24  N   UNL     1      33.841 -15.042 -22.899  0.00  0.00    -0.299 N 
ATOM     25  C   UNL     1      33.669 -13.670 -23.013  0.00  0.00    +0.243 C 
ATOM     26  H   UNL     1      33.044 -15.603 -22.757  0.00  0.00    +0.150 HD
BRANCH  24  27
ATOM     27  C   UNL     1      35.132 -15.689 -22.978  0.00  0.00    +0.119 C 
BRANCH  27  29
ATOM     28  F   UNL     1      34.367 -17.622 -24.893  0.00  0.00    -0.204 F 
ATOM     29  C   UNL     1      35.045 -17.155 -22.666  0.00  0.00    +0.025 C 
ATOM     30  C   UNL     1      34.662 -18.051 -23.657  0.00  0.00    +0.138 C 
ATOM     31  C   UNL     1      35.350 -17.601 -21.385  0.00  0.00    -0.000 C 
ATOM     32  C   UNL     1      34.583 -19.412 -23.364  0.00  0.00    +0.029 C 
ATOM     33  C   UNL     1      35.271 -18.963 -21.093  0.00  0.00    -0.000 C 
ATOM     34  C   UNL     1      34.888 -19.868 -22.081  0.00  0.00    +0.002 C 
ENDBRANCH  27  29
ENDBRANCH  24  27
ENDBRANCH  22  25
ENDBRANCH   3  22
TORSDOF 7
ENDMDL
MODEL 4
REMARK VINA RESULT:     -11.4      1.338      1.655
REMARK  Name = 656913
REMARK  7 active torsions:
REMARK  status: ('A' for Active; 'I' for Inactive)
REMARK    1  A    between atoms: N_3  and  C_22
REMARK    2  A    between atoms: N_4  and  C_11
REMARK    3  A    between atoms: C_11  and  C_14
REMARK    4  A    between atoms: C_14  and  C_17
REMARK    5  A    between atoms: C_22  and  C_25
REMARK    6  A    between atoms: N_24  and  C_27
REMARK    7  A    between atoms: C_27  and  C_29
REMARK                            x       y       z     vdW  Elec       q    Type
REMARK                         _______ _______ _______ _____ _____    ______ ____
ROOT
ATOM      1 CL   UNL     1      33.157 -14.140 -25.949  0.00  0.00    -0.064 Cl
ATOM      2  O   UNL     1      35.200 -14.675 -21.389  0.00  0.00    -0.266 OA
ATOM      3  N   UNL     1      34.243 -14.388 -23.510  0.00  0.00    -0.233 N 
ATOM      4  N   UNL     1      35.503 -17.336 -21.670  0.00  0.00    -0.310 N 
ATOM      5  N   UNL     1      34.557 -17.169 -23.808  0.00  0.00    -0.223 NA
ATOM      6  C   UNL     1      34.948 -16.614 -22.696  0.00  0.00    +0.183 C 
ATOM      7  C   UNL     1      34.809 -15.116 -22.463  0.00  0.00    +0.285 C 
ATOM      8  C   UNL     1      33.854 -15.046 -24.660  0.00  0.00    +0.133 C 
ATOM      9  C   UNL     1      34.017 -16.368 -24.772  0.00  0.00    +0.127 C 
ATOM     10  H   UNL     1      35.780 -16.864 -20.851  0.00  0.00    +0.149 HD
ENDROOT
BRANCH   4  11
ATOM     11  C   UNL     1      35.694 -18.750 -21.749  0.00  0.00    +0.162 C 
BRANCH  11  14
ATOM     12  F   UNL     1      33.811 -20.014 -22.357  0.00  0.00    -0.196 F 
ATOM     13  F   UNL     1      33.568 -18.550 -20.774  0.00  0.00    -0.196 F 
ATOM     14  C   UNL     1      34.440 -19.478 -21.268  0.00  0.00    +0.317 C 
BRANCH  14  17
ATOM     15  O   UNL     1      32.540 -21.039 -20.024  0.00  0.00    -0.163 OA
ATOM     16  N   UNL     1      33.754 -21.244 -19.691  0.00  0.00    -0.128 N 
ATOM     17  C   UNL     1      34.788 -20.529 -20.242  0.00  0.00    +0.142 C 
ATOM     18  C   UNL     1      36.108 -20.742 -19.891  0.00  0.00    +0.022 C 
ATOM     19  C   UNL     1      34.055 -22.210 -18.750  0.00  0.00    +0.121 C 
ATOM     20  C   UNL     1      36.399 -21.717 -18.942  0.00  0.00    +0.003 C 
ATOM     21  C   UNL     1      35.370 -22.456 -18.368  0.00  0.00    +0.022 C 
ENDBRANCH  14  17
ENDBRANCH  11  14
ENDBRANCH   4  11
BRANCH   3  22
ATOM     22  C   UNL     1      34.075 -12.947 -23.360  0.00  0.00    +0.184 C 
BRANCH  22  25
ATOM     23  O   UNL     1      32.055 -13.538 -22.174  0.00  0.00    -0.273 OA
ATOM     24  N   UNL     1      32.470 -11.305 -22.663  0.00  0.00    -0.299 N 
ATOM     25  C   UNL     1      32.768 -12.659 -22.652  0.00  0.00    +0.243 C 
ATOM     26  H   UNL     1      33.117 -10.687 -23.075  0.00  0.00    +0.150 HD
BRANCH  24  27
ATOM     27  C   UNL     1      31.258 -10.754 -22.099  0.00  0.00    +0.119 C 
BRANCH  27  29
ATOM     28  F   UNL     1      32.234  -9.957 -19.570  0.00  0.00    -0.204 F 
ATOM     29  C   UNL     1      31.424  -9.314 -21.707  0.00  0.00    +0.025 C 
ATOM     30  C   UNL     1      31.911  -8.994 -20.445  0.00  0.00    +0.138 C 
ATOM     31  C   UNL     1      31.088  -8.315 -22.613  0.00  0.00    -0.000 C 
ATOM     32  C   UNL     1      32.064  -7.656 -20.084  0.00  0.00    +0.029 C 
ATOM     33  C   UNL     1      31.242  -6.977 -22.251  0.00  0.00    -0.000 C 
ATOM     34  C   UNL     1      31.729  -6.647 -20.987  0.00  0.00    +0.002 C 
ENDBRANCH  27  29
ENDBRANCH  24  27
ENDBRANCH  22  25
ENDBRANCH   3  22
TORSDOF 7
ENDMDL
MODEL 5
REMARK VINA RESULT:     -11.4      7.351     13.154
REMARK  Name = 656913
REMARK  7 active torsions:
REMARK  status: ('A' for Active; 'I' for Inactive)
REMARK    1  A    between atoms: N_3  and  C_22
REMARK    2  A    between atoms: N_4  and  C_11
REMARK    3  A    between atoms: C_11  and  C_14
REMARK    4  A    between atoms: C_14  and  C_17
REMARK    5  A    between atoms: C_22  and  C_25
REMARK    6  A    between atoms: N_24  and  C_27
REMARK    7  A    between atoms: C_27  and  C_29
REMARK                            x       y       z     vdW  Elec       q    Type
REMARK                         _______ _______ _______ _____ _____    ______ ____
ROOT
ATOM      1 CL   UNL     1      29.694 -23.917 -14.656  0.00  0.00    -0.064 Cl
ATOM      2  O   UNL     1      34.505 -24.416 -16.019  0.00  0.00    -0.266 OA
ATOM      3  N   UNL     1      32.266 -24.208 -15.354  0.00  0.00    -0.233 N 
ATOM      4  N   UNL     1      34.235 -22.767 -18.130  0.00  0.00    -0.310 N 
ATOM      5  N   UNL     1      31.980 -22.484 -17.560  0.00  0.00    -0.223 NA
ATOM      6  C   UNL     1      33.147 -23.016 -17.333  0.00  0.00    +0.183 C 
ATOM      7  C   UNL     1      33.377 -23.958 -16.160  0.00  0.00    +0.285 C 
ATOM      8  C   UNL     1      31.061 -23.605 -15.656  0.00  0.00    +0.133 C 
ATOM      9  C   UNL     1      30.956 -22.791 -16.711  0.00  0.00    +0.127 C 
ATOM     10  H   UNL     1      35.094 -23.197 -17.912  0.00  0.00    +0.149 HD
ENDROOT
BRANCH   4  11
ATOM     11  C   UNL     1      34.166 -21.903 -19.267  0.00  0.00    +0.162 C 
BRANCH  11  14
ATOM     12  F   UNL     1      36.318 -22.426 -20.047  0.00  0.00    -0.196 F 
ATOM     13  F   UNL     1      36.156 -20.956 -18.460  0.00  0.00    -0.196 F 
ATOM     14  C   UNL     1      35.559 -21.376 -19.613  0.00  0.00    +0.317 C 
BRANCH  14  17
ATOM     15  O   UNL     1      37.498 -19.438 -19.884  0.00  0.00    -0.163 OA
ATOM     16  N   UNL     1      36.504 -19.366 -20.680  0.00  0.00    -0.128 N 
ATOM     17  C   UNL     1      35.476 -20.274 -20.641  0.00  0.00    +0.142 C 
ATOM     18  C   UNL     1      34.395 -20.208 -21.499  0.00  0.00    +0.022 C 
ATOM     19  C   UNL     1      36.446 -18.351 -21.615  0.00  0.00    +0.121 C 
ATOM     20  C   UNL     1      34.346 -19.182 -22.437  0.00  0.00    +0.003 C 
ATOM     21  C   UNL     1      35.375 -18.248 -22.497  0.00  0.00    +0.022 C 
ENDBRANCH  14  17
ENDBRANCH  11  14
ENDBRANCH   4  11
BRANCH   3  22
ATOM     22  C   UNL     1      32.408 -25.102 -14.210  0.00  0.00    +0.184 C 
BRANCH  22  25
ATOM     23  O   UNL     1      33.078 -23.535 -12.498  0.00  0.00    -0.273 OA
ATOM     24  N   UNL     1      34.603 -25.123 -13.241  0.00  0.00    -0.299 N 
ATOM     25  C   UNL     1      33.367 -24.495 -13.208  0.00  0.00    +0.243 C 
ATOM     26  H   UNL     1      34.723 -25.886 -13.852  0.00  0.00    +0.150 HD
BRANCH  24  27
ATOM     27  C   UNL     1      35.723 -24.715 -12.423  0.00  0.00    +0.119 C 
BRANCH  27  29
ATOM     28  F   UNL     1      37.668 -26.565 -11.541  0.00  0.00    -0.204 F 
ATOM     29  C   UNL     1      37.035 -24.915 -13.126  0.00  0.00    +0.025 C 
ATOM     30  C   UNL     1      37.946 -25.844 -12.637  0.00  0.00    +0.138 C 
ATOM     31  C   UNL     1      37.325 -24.168 -14.261  0.00  0.00    -0.000 C 
ATOM     32  C   UNL     1      39.163 -26.028 -13.292  0.00  0.00    +0.029 C 
ATOM     33  C   UNL     1      38.542 -24.352 -14.917  0.00  0.00    -0.000 C 
ATOM     34  C   UNL     1      39.461 -25.282 -14.432  0.00  0.00    +0.002 C 
ENDBRANCH  27  29
ENDBRANCH  24  27
ENDBRANCH  22  25
ENDBRANCH   3  22
TORSDOF 7
ENDMDL
MODEL 6
REMARK VINA RESULT:     -11.4      2.683      3.139
REMARK  Name = 656913
REMARK  7 active torsions:
REMARK  status: ('A' for Active; 'I' for Inactive)
REMARK    1  A    between atoms: N_3  and  C_22
REMARK    2  A    between atoms: N_4  and  C_11
REMARK    3  A    between atoms: C_11  and  C_14
REMARK    4  A    between atoms: C_14  and  C_17
REMARK    5  A    between atoms: C_22  and  C_25
REMARK    6  A    between atoms: N_24  and  C_27
REMARK    7  A    between atoms: C_27  and  C_29
REMARK                            x       y       z     vdW  Elec       q    Type
REMARK                         _______ _______ _______ _____ _____    ______ ____
ROOT
ATOM      1 CL   UNL     1      31.148 -11.562 -20.673  0.00  0.00    -0.064 Cl
ATOM      2  O   UNL     1      34.290 -13.839 -23.866  0.00  0.00    -0.266 OA
ATOM      3  N   UNL     1      32.818 -12.750 -22.402  0.00  0.00    -0.233 N 
ATOM      4  N   UNL     1      34.900 -15.790 -22.112  0.00  0.00    -0.310 N 
ATOM      5  N   UNL     1      33.452 -14.786 -20.566  0.00  0.00    -0.223 NA
ATOM      6  C   UNL     1      34.014 -14.810 -21.742  0.00  0.00    +0.183 C 
ATOM      7  C   UNL     1      33.719 -13.742 -22.786  0.00  0.00    +0.285 C 
ATOM      8  C   UNL     1      32.261 -12.791 -21.138  0.00  0.00    +0.133 C 
ATOM      9  C   UNL     1      32.583 -13.772 -20.289  0.00  0.00    +0.127 C 
ATOM     10  H   UNL     1      35.295 -15.758 -23.014  0.00  0.00    +0.149 HD
ENDROOT
BRANCH   4  11
ATOM     11  C   UNL     1      35.270 -16.855 -21.235  0.00  0.00    +0.162 C 
BRANCH  11  14
ATOM     12  F   UNL     1      36.471 -18.166 -22.768  0.00  0.00    -0.196 F 
ATOM     13  F   UNL     1      34.306 -18.199 -22.901  0.00  0.00    -0.196 F 
ATOM     14  C   UNL     1      35.337 -18.173 -22.006  0.00  0.00    +0.317 C 
BRANCH  14  17
ATOM     15  O   UNL     1      37.561 -19.084 -20.658  0.00  0.00    -0.163 OA
ATOM     16  N   UNL     1      36.470 -19.711 -20.449  0.00  0.00    -0.128 N 
ATOM     17  C   UNL     1      35.297 -19.351 -21.063  0.00  0.00    +0.142 C 
ATOM     18  C   UNL     1      34.108 -20.021 -20.843  0.00  0.00    +0.022 C 
ATOM     19  C   UNL     1      36.452 -20.787 -19.583  0.00  0.00    +0.121 C 
ATOM     20  C   UNL     1      34.101 -21.103 -19.969  0.00  0.00    +0.003 C 
ATOM     21  C   UNL     1      35.277 -21.489 -19.334  0.00  0.00    +0.022 C 
ENDBRANCH  14  17
ENDBRANCH  11  14
ENDBRANCH   4  11
BRANCH   3  22
ATOM     22  C   UNL     1      32.486 -11.690 -23.348  0.00  0.00    +0.184 C 
BRANCH  22  25
ATOM     23  O   UNL     1      34.577 -10.477 -23.363  0.00  0.00    -0.273 OA
ATOM     24  N   UNL     1      32.678  -9.455 -22.495  0.00  0.00    -0.299 N 
ATOM     25  C   UNL     1      33.377 -10.491 -23.098  0.00  0.00    +0.243 C 
ATOM     26  H   UNL     1      31.715  -9.575 -22.330  0.00  0.00    +0.150 HD
BRANCH  24  27
ATOM     27  C   UNL     1      33.293  -8.208 -22.100  0.00  0.00    +0.119 C 
BRANCH  27  29
ATOM     28  F   UNL     1      35.875  -7.290 -22.794  0.00  0.00    -0.204 F 
ATOM     29  C   UNL     1      33.550  -7.310 -23.275  0.00  0.00    +0.025 C 
ATOM     30  C   UNL     1      34.847  -6.897 -23.559  0.00  0.00    +0.138 C 
ATOM     31  C   UNL     1      32.485  -6.900 -24.069  0.00  0.00    -0.000 C 
ATOM     32  C   UNL     1      35.081  -6.063 -24.652  0.00  0.00    +0.029 C 
ATOM     33  C   UNL     1      32.720  -6.067 -25.162  0.00  0.00    -0.000 C 
ATOM     34  C   UNL     1      34.018  -5.648 -25.454  0.00  0.00    +0.002 C 
ENDBRANCH  27  29
ENDBRANCH  24  27
ENDBRANCH  22  25
ENDBRANCH   3  22
TORSDOF 7
ENDMDL
MODEL 7
REMARK VINA RESULT:     -11.4      2.959     10.788
REMARK  Name = 656913
REMARK  7 active torsions:
REMARK  status: ('A' for Active; 'I' for Inactive)
REMARK    1  A    between atoms: N_3  and  C_22
REMARK    2  A    between atoms: N_4  and  C_11
REMARK    3  A    between atoms: C_11  and  C_14
REMARK    4  A    between atoms: C_14  and  C_17
REMARK    5  A    between atoms: C_22  and  C_25
REMARK    6  A    between atoms: N_24  and  C_27
REMARK    7  A    between atoms: C_27  and  C_29
REMARK                            x       y       z     vdW  Elec       q    Type
REMARK                         _______ _______ _______ _____ _____    ______ ____
ROOT
ATOM      1 CL   UNL     1      32.008 -14.143 -19.994  0.00  0.00    -0.064 Cl
ATOM      2  O   UNL     1      32.257 -10.796 -23.735  0.00  0.00    -0.266 OA
ATOM      3  N   UNL     1      32.146 -12.386 -22.014  0.00  0.00    -0.233 N 
ATOM      4  N   UNL     1      31.841  -8.703 -22.093  0.00  0.00    -0.310 N 
ATOM      5  N   UNL     1      31.710 -10.201 -20.295  0.00  0.00    -0.223 NA
ATOM      6  C   UNL     1      31.874  -9.969 -21.566  0.00  0.00    +0.183 C 
ATOM      7  C   UNL     1      32.114 -11.101 -22.557  0.00  0.00    +0.285 C 
ATOM      8  C   UNL     1      31.965 -12.553 -20.655  0.00  0.00    +0.133 C 
ATOM      9  C   UNL     1      31.761 -11.495 -19.865  0.00  0.00    +0.127 C 
ATOM     10  H   UNL     1      31.971  -8.586 -23.062  0.00  0.00    +0.149 HD
ENDROOT
BRANCH   4  11
ATOM     11  C   UNL     1      31.625  -7.546 -21.282  0.00  0.00    +0.162 C 
BRANCH  11  14
ATOM     12  F   UNL     1      33.714  -7.458 -20.214  0.00  0.00    -0.196 F 
ATOM     13  F   UNL     1      32.652  -5.588 -20.494  0.00  0.00    -0.196 F 
ATOM     14  C   UNL     1      32.933  -6.776 -21.104  0.00  0.00    +0.317 C 
BRANCH  14  17
ATOM     15  O   UNL     1      32.062  -4.969 -22.993  0.00  0.00    -0.163 OA
ATOM     16  N   UNL     1      33.099  -5.651 -23.291  0.00  0.00    -0.128 N 
ATOM     17  C   UNL     1      33.627  -6.581 -22.431  0.00  0.00    +0.142 C 
ATOM     18  C   UNL     1      34.750  -7.323 -22.740  0.00  0.00    +0.022 C 
ATOM     19  C   UNL     1      33.720  -5.459 -24.509  0.00  0.00    +0.121 C 
ATOM     20  C   UNL     1      35.368  -7.122 -23.969  0.00  0.00    +0.003 C 
ATOM     21  C   UNL     1      34.853  -6.186 -24.860  0.00  0.00    +0.022 C 
ENDBRANCH  14  17
ENDBRANCH  11  14
ENDBRANCH   4  11
BRANCH   3  22
ATOM     22  C   UNL     1      32.369 -13.523 -22.901  0.00  0.00    +0.184 C 
BRANCH  22  25
ATOM     23  O   UNL     1      34.626 -13.472 -22.038  0.00  0.00    -0.273 OA
ATOM     24  N   UNL     1      33.957 -15.263 -23.359  0.00  0.00    -0.299 N 
ATOM     25  C   UNL     1      33.768 -14.063 -22.689  0.00  0.00    +0.243 C 
ATOM     26  H   UNL     1      33.196 -15.648 -23.852  0.00  0.00    +0.150 HD
BRANCH  24  27
ATOM     27  C   UNL     1      35.214 -15.976 -23.370  0.00  0.00    +0.119 C 
BRANCH  27  29
ATOM     28  F   UNL     1      35.272 -16.563 -20.606  0.00  0.00    -0.204 F 
ATOM     29  C   UNL     1      35.074 -17.371 -22.830  0.00  0.00    +0.025 C 
ATOM     30  C   UNL     1      35.111 -17.586 -21.457  0.00  0.00    +0.138 C 
ATOM     31  C   UNL     1      34.907 -18.432 -23.711  0.00  0.00    -0.000 C 
ATOM     32  C   UNL     1      34.980 -18.882 -20.959  0.00  0.00    +0.029 C 
ATOM     33  C   UNL     1      34.776 -19.728 -23.212  0.00  0.00    -0.000 C 
ATOM     34  C   UNL     1      34.812 -19.953 -21.837  0.00  0.00    +0.002 C 
ENDBRANCH  27  29
ENDBRANCH  24  27
ENDBRANCH  22  25
ENDBRANCH   3  22
TORSDOF 7
ENDMDL
MODEL 8
REMARK VINA RESULT:     -11.2      3.308      4.718
REMARK  Name = 656913
REMARK  7 active torsions:
REMARK  status: ('A' for Active; 'I' for Inactive)
REMARK    1  A    between atoms: N_3  and  C_22
REMARK    2  A    between atoms: N_4  and  C_11
REMARK    3  A    between atoms: C_11  and  C_14
REMARK    4  A    between atoms: C_14  and  C_17
REMARK    5  A    between atoms: C_22  and  C_25
REMARK    6  A    between atoms: N_24  and  C_27
REMARK    7  A    between atoms: C_27  and  C_29
REMARK                            x       y       z     vdW  Elec       q    Type
REMARK                         _______ _______ _______ _____ _____    ______ ____
ROOT
ATOM      1 CL   UNL     1      30.623 -10.710 -19.577  0.00  0.00    -0.064 Cl
ATOM      2  O   UNL     1      33.089 -11.452 -23.893  0.00  0.00    -0.266 OA
ATOM      3  N   UNL     1      31.925 -11.073 -21.893  0.00  0.00    -0.233 N 
ATOM      4  N   UNL     1      34.208 -13.746 -23.035  0.00  0.00    -0.310 N 
ATOM      5  N   UNL     1      33.092 -13.470 -20.992  0.00  0.00    -0.223 NA
ATOM      6  C   UNL     1      33.370 -13.056 -22.196  0.00  0.00    +0.183 C 
ATOM      7  C   UNL     1      32.776 -11.769 -22.752  0.00  0.00    +0.285 C 
ATOM      8  C   UNL     1      31.677 -11.575 -20.630  0.00  0.00    +0.133 C 
ATOM      9  C   UNL     1      32.246 -12.716 -20.231  0.00  0.00    +0.127 C 
ATOM     10  H   UNL     1      34.383 -13.386 -23.935  0.00  0.00    +0.149 HD
ENDROOT
BRANCH   4  11
ATOM     11  C   UNL     1      34.837 -14.969 -22.647  0.00  0.00    +0.162 C 
BRANCH  11  14
ATOM     12  F   UNL     1      35.349 -15.846 -24.764  0.00  0.00    -0.196 F 
ATOM     13  F   UNL     1      33.273 -15.889 -24.136  0.00  0.00    -0.196 F 
ATOM     14  C   UNL     1      34.548 -16.059 -23.678  0.00  0.00    +0.317 C 
BRANCH  14  17
ATOM     15  O   UNL     1      33.794 -18.376 -24.965  0.00  0.00    -0.163 OA
ATOM     16  N   UNL     1      34.338 -18.511 -23.820  0.00  0.00    -0.128 N 
ATOM     17  C   UNL     1      34.756 -17.431 -23.083  0.00  0.00    +0.142 C 
ATOM     18  C   UNL     1      35.349 -17.564 -21.842  0.00  0.00    +0.022 C 
ATOM     19  C   UNL     1      34.521 -19.774 -23.290  0.00  0.00    +0.121 C 
ATOM     20  C   UNL     1      35.528 -18.840 -21.319  0.00  0.00    +0.003 C 
ATOM     21  C   UNL     1      35.113 -19.952 -22.045  0.00  0.00    +0.022 C 
ENDBRANCH  14  17
ENDBRANCH  11  14
ENDBRANCH   4  11
BRANCH   3  22
ATOM     22  C   UNL     1      31.318  -9.829 -22.354  0.00  0.00    +0.184 C 
BRANCH  22  25
ATOM     23  O   UNL     1      31.798  -7.940 -20.925  0.00  0.00    -0.273 OA
ATOM     24  N   UNL     1      33.273  -8.468 -22.642  0.00  0.00    -0.299 N 
ATOM     25  C   UNL     1      32.139  -8.654 -21.865  0.00  0.00    +0.243 C 
ATOM     26  H   UNL     1      33.449  -9.104 -23.373  0.00  0.00    +0.150 HD
BRANCH  24  27
ATOM     27  C   UNL     1      34.212  -7.389 -22.430  0.00  0.00    +0.119 C 
BRANCH  27  29
ATOM     28  F   UNL     1      32.167  -5.503 -22.929  0.00  0.00    -0.204 F 
ATOM     29  C   UNL     1      34.246  -6.438 -23.591  0.00  0.00    +0.025 C 
ATOM     30  C   UNL     1      33.205  -5.536 -23.776  0.00  0.00    +0.138 C 
ATOM     31  C   UNL     1      35.321  -6.472 -24.472  0.00  0.00    -0.000 C 
ATOM     32  C   UNL     1      33.240  -4.654 -24.856  0.00  0.00    +0.029 C 
ATOM     33  C   UNL     1      35.356  -5.589 -25.551  0.00  0.00    -0.000 C 
ATOM     34  C   UNL     1      34.316  -4.681 -25.743  0.00  0.00    +0.002 C 
ENDBRANCH  27  29
ENDBRANCH  24  27
ENDBRANCH  22  25
ENDBRANCH   3  22
TORSDOF 7
ENDMDL
MODEL 9
REMARK VINA RESULT:     -11.2      8.402     12.107
REMARK  Name = 656913
REMARK  7 active torsions:
REMARK  status: ('A' for Active; 'I' for Inactive)
REMARK    1  A    between atoms: N_3  and  C_22
REMARK    2  A    between atoms: N_4  and  C_11
REMARK    3  A    between atoms: C_11  and  C_14
REMARK    4  A    between atoms: C_14  and  C_17
REMARK    5  A    between atoms: C_22  and  C_25
REMARK    6  A    between atoms: N_24  and  C_27
REMARK    7  A    between atoms: C_27  and  C_29
REMARK                            x       y       z     vdW  Elec       q    Type
REMARK                         _______ _______ _______ _____ _____    ______ ____
ROOT
ATOM      1 CL   UNL     1      29.747 -24.602 -15.819  0.00  0.00    -0.064 Cl
ATOM      2  O   UNL     1      34.356 -22.707 -15.172  0.00  0.00    -0.266 OA
ATOM      3  N   UNL     1      32.203 -23.573 -15.507  0.00  0.00    -0.233 N 
ATOM      4  N   UNL     1      34.650 -23.846 -12.750  0.00  0.00    -0.310 N 
ATOM      5  N   UNL     1      32.506 -24.766 -12.976  0.00  0.00    -0.223 NA
ATOM      6  C   UNL     1      33.484 -24.044 -13.445  0.00  0.00    +0.183 C 
ATOM      7  C   UNL     1      33.392 -23.368 -14.807  0.00  0.00    +0.285 C 
ATOM      8  C   UNL     1      31.211 -24.353 -14.946  0.00  0.00    +0.133 C 
ATOM      9  C   UNL     1      31.385 -24.906 -13.741  0.00  0.00    +0.127 C 
ATOM     10  H   UNL     1      35.356 -23.290 -13.153  0.00  0.00    +0.149 HD
ENDROOT
BRANCH   4  11
ATOM     11  C   UNL     1      34.875 -24.419 -11.460  0.00  0.00    +0.162 C 
BRANCH  11  14
ATOM     12  F   UNL     1      36.484 -24.693  -9.773  0.00  0.00    -0.196 F 
ATOM     13  F   UNL     1      36.612 -22.909 -11.001  0.00  0.00    -0.196 F 
ATOM     14  C   UNL     1      36.339 -24.245 -11.056  0.00  0.00    +0.317 C 
BRANCH  14  17
ATOM     15  O   UNL     1      38.971 -23.530 -11.443  0.00  0.00    -0.163 OA
ATOM     16  N   UNL     1      38.543 -24.521 -12.122  0.00  0.00    -0.128 N 
ATOM     17  C   UNL     1      37.251 -24.971 -12.015  0.00  0.00    +0.142 C 
ATOM     18  C   UNL     1      36.776 -26.045 -12.743  0.00  0.00    +0.022 C 
ATOM     19  C   UNL     1      39.392 -25.173 -12.996  0.00  0.00    +0.121 C 
ATOM     20  C   UNL     1      37.639 -26.694 -13.619  0.00  0.00    +0.003 C 
ATOM     21  C   UNL     1      38.954 -26.258 -13.748  0.00  0.00    +0.022 C 
ENDBRANCH  14  17
ENDBRANCH  11  14
ENDBRANCH   4  11
BRANCH   3  22
ATOM     22  C   UNL     1      32.040 -22.956 -16.819  0.00  0.00    +0.184 C 
BRANCH  22  25
ATOM     23  O   UNL     1      33.453 -24.582 -17.914  0.00  0.00    -0.273 OA
ATOM     24  N   UNL     1      33.835 -22.319 -18.279  0.00  0.00    -0.299 N 
ATOM     25  C   UNL     1      33.163 -23.402 -17.732  0.00  0.00    +0.243 C 
ATOM     26  H   UNL     1      33.514 -21.413 -18.064  0.00  0.00    +0.150 HD
BRANCH  24  27
ATOM     27  C   UNL     1      34.982 -22.454 -19.149  0.00  0.00    +0.119 C 
BRANCH  27  29
ATOM     28  F   UNL     1      33.060 -20.903 -20.522  0.00  0.00    -0.204 F 
ATOM     29  C   UNL     1      35.319 -21.163 -19.839  0.00  0.00    +0.025 C 
ATOM     30  C   UNL     1      34.322 -20.451 -20.495  0.00  0.00    +0.138 C 
ATOM     31  C   UNL     1      36.627 -20.694 -19.813  0.00  0.00    -0.000 C 
ATOM     32  C   UNL     1      34.637 -19.253 -21.135  0.00  0.00    +0.029 C 
ATOM     33  C   UNL     1      36.942 -19.496 -20.452  0.00  0.00    -0.000 C 
ATOM     34  C   UNL     1      35.948 -18.775 -21.113  0.00  0.00    +0.002 C 
ENDBRANCH  27  29
ENDBRANCH  24  27
ENDBRANCH  22  25
ENDBRANCH   3  22
TORSDOF 7
ENDMDL
