MODEL 1
REMARK VINA RESULT:     -12.8      0.000      0.000
REMARK  Name = 17748441
REMARK  5 active torsions:
REMARK  status: ('A' for Active; 'I' for Inactive)
REMARK    1  A    between atoms: C_2  and  N_10
REMARK    2  A    between atoms: C_3  and  O_24
REMARK    3  A    between atoms: C_12  and  C_16
REMARK    4  A    between atoms: C_16  and  C_18
REMARK    5  A    between atoms: O_24  and  C_27
REMARK                            x       y       z     vdW  Elec       q    Type
REMARK                         _______ _______ _______ _____ _____    ______ ____
ROOT
ATOM      1  F   UNL     1      30.825 -11.941 -20.743  0.00  0.00    -0.201 F 
ATOM      2  C   UNL     1      33.667 -13.920 -21.852  0.00  0.00    +0.054 C 
ATOM      3  C   UNL     1      32.330 -11.571 -22.539  0.00  0.00    +0.173 C 
ATOM      4  C   UNL     1      32.558 -13.507 -21.114  0.00  0.00    +0.047 C 
ATOM      5  C   UNL     1      34.107 -13.157 -22.934  0.00  0.00    +0.018 C 
ATOM      6  C   UNL     1      31.890 -12.332 -21.457  0.00  0.00    +0.176 C 
ATOM      7  C   UNL     1      33.438 -11.983 -23.278  0.00  0.00    +0.041 C 
ENDROOT
BRANCH   2  10
ATOM      8  O   UNL     1      35.592 -18.812 -23.251  0.00  0.00    -0.274 OA
ATOM      9  O   UNL     1      34.326 -16.336 -23.510  0.00  0.00    -0.252 OA
ATOM     10  N   UNL     1      34.345 -15.112 -21.505  0.00  0.00    -0.268 N 
ATOM     11  N   UNL     1      35.319 -17.194 -21.594  0.00  0.00    -0.239 N 
ATOM     12  C   UNL     1      35.754 -18.423 -22.098  0.00  0.00    +0.234 C 
ATOM     13  C   UNL     1      34.624 -16.210 -22.325  0.00  0.00    +0.310 C 
ATOM     14  H   UNL     1      34.658 -15.176 -20.573  0.00  0.00    +0.156 HD
ATOM     15  H   UNL     1      35.513 -17.000 -20.647  0.00  0.00    +0.159 HD
BRANCH  12  16
ATOM     16  C   UNL     1      36.466 -19.234 -21.032  0.00  0.00    +0.112 C 
BRANCH  16  18
ATOM     17  F   UNL     1      33.104 -22.926 -18.421  0.00  0.00    -0.204 F 
ATOM     18  C   UNL     1      35.568 -20.221 -20.334  0.00  0.00    -0.013 C 
ATOM     19  C   UNL     1      34.188 -20.160 -20.522  0.00  0.00    -0.001 C 
ATOM     20  C   UNL     1      36.116 -21.196 -19.500  0.00  0.00    -0.001 C 
ATOM     21  C   UNL     1      33.355 -21.074 -19.876  0.00  0.00    +0.029 C 
ATOM     22  C   UNL     1      35.284 -22.109 -18.854  0.00  0.00    +0.029 C 
ATOM     23  C   UNL     1      33.903 -22.049 -19.042  0.00  0.00    +0.140 C 
ENDBRANCH  16  18
ENDBRANCH  12  16
ENDBRANCH   2  10
BRANCH   3  24
ATOM     24  O   UNL     1      31.676 -10.425 -22.876  0.00  0.00    -0.451 OA
BRANCH  24  27
ATOM     25  N   UNL     1      33.444  -6.793 -21.799  0.00  0.00    -0.229 NA
ATOM     26  N   UNL     1      33.189  -7.369 -19.500  0.00  0.00    -0.343 N 
ATOM     27  C   UNL     1      32.261  -9.221 -22.519  0.00  0.00    +0.150 C 
ATOM     28  C   UNL     1      32.432  -8.899 -21.177  0.00  0.00    +0.071 C 
ATOM     29  C   UNL     1      32.682  -8.332 -23.500  0.00  0.00    +0.058 C 
ATOM     30  C   UNL     1      33.023  -7.683 -20.872  0.00  0.00    +0.128 C 
ATOM     31  C   UNL     1      33.262  -7.141 -23.092  0.00  0.00    +0.103 C 
ATOM     32  H   UNL     1      33.605  -6.516 -19.238  0.00  0.00    +0.144 HD
ATOM     33  H   UNL     1      32.890  -8.004 -18.810  0.00  0.00    +0.144 HD
ENDBRANCH  24  27
ENDBRANCH   3  24
TORSDOF 5
ENDMDL
MODEL 2
REMARK VINA RESULT:     -12.3      4.048     10.885
REMARK  Name = 17748441
REMARK  5 active torsions:
REMARK  status: ('A' for Active; 'I' for Inactive)
REMARK    1  A    between atoms: C_2  and  N_10
REMARK    2  A    between atoms: C_3  and  O_24
REMARK    3  A    between atoms: C_12  and  C_16
REMARK    4  A    between atoms: C_16  and  C_18
REMARK    5  A    between atoms: O_24  and  C_27
REMARK                            x       y       z     vdW  Elec       q    Type
REMARK                         _______ _______ _______ _____ _____    ______ ____
ROOT
ATOM      1  F   UNL     1      36.703 -22.455 -18.548  0.00  0.00    -0.201 F 
ATOM      2  C   UNL     1      34.576 -20.110 -20.338  0.00  0.00    +0.054 C 
ATOM      3  C   UNL     1      34.354 -22.479 -18.882  0.00  0.00    +0.173 C 
ATOM      4  C   UNL     1      35.715 -20.705 -19.796  0.00  0.00    +0.047 C 
ATOM      5  C   UNL     1      33.326 -20.701 -20.152  0.00  0.00    +0.018 C 
ATOM      6  C   UNL     1      35.604 -21.890 -19.068  0.00  0.00    +0.176 C 
ATOM      7  C   UNL     1      33.215 -21.886 -19.425  0.00  0.00    +0.041 C 
ENDROOT
BRANCH   2  10
ATOM      8  O   UNL     1      34.603 -17.519 -25.121  0.00  0.00    -0.274 OA
ATOM      9  O   UNL     1      34.440 -19.630 -23.299  0.00  0.00    -0.252 OA
ATOM     10  N   UNL     1      34.688 -18.909 -21.077  0.00  0.00    -0.268 N 
ATOM     11  N   UNL     1      34.776 -17.387 -22.799  0.00  0.00    -0.239 N 
ATOM     12  C   UNL     1      34.761 -16.863 -24.095  0.00  0.00    +0.234 C 
ATOM     13  C   UNL     1      34.616 -18.746 -22.464  0.00  0.00    +0.310 C 
ATOM     14  H   UNL     1      34.835 -18.090 -20.551  0.00  0.00    +0.156 HD
ATOM     15  H   UNL     1      34.912 -16.752 -22.058  0.00  0.00    +0.159 HD
BRANCH  12  16
ATOM     16  C   UNL     1      34.965 -15.360 -24.083  0.00  0.00    +0.112 C 
BRANCH  16  18
ATOM     17  F   UNL     1      31.941 -12.725 -20.126  0.00  0.00    -0.204 F 
ATOM     18  C   UNL     1      34.157 -14.656 -23.026  0.00  0.00    -0.013 C 
ATOM     19  C   UNL     1      33.083 -13.847 -23.393  0.00  0.00    -0.001 C 
ATOM     20  C   UNL     1      34.482 -14.814 -21.678  0.00  0.00    -0.001 C 
ATOM     21  C   UNL     1      32.334 -13.194 -22.414  0.00  0.00    +0.029 C 
ATOM     22  C   UNL     1      33.734 -14.161 -20.699  0.00  0.00    +0.029 C 
ATOM     23  C   UNL     1      32.659 -13.351 -21.066  0.00  0.00    +0.140 C 
ENDBRANCH  16  18
ENDBRANCH  12  16
ENDBRANCH   2  10
BRANCH   3  24
ATOM     24  O   UNL     1      34.246 -23.637 -18.173  0.00  0.00    -0.451 OA
BRANCH  24  27
ATOM     25  N   UNL     1      32.814 -23.385 -14.255  0.00  0.00    -0.229 NA
ATOM     26  N   UNL     1      35.055 -23.445 -13.448  0.00  0.00    -0.343 N 
ATOM     27  C   UNL     1      33.772 -23.554 -16.875  0.00  0.00    +0.150 C 
ATOM     28  C   UNL     1      34.661 -23.541 -15.806  0.00  0.00    +0.071 C 
ATOM     29  C   UNL     1      32.405 -23.482 -16.635  0.00  0.00    +0.058 C 
ATOM     30  C   UNL     1      34.136 -23.456 -14.526  0.00  0.00    +0.128 C 
ATOM     31  C   UNL     1      31.980 -23.400 -15.318  0.00  0.00    +0.103 C 
ATOM     32  H   UNL     1      34.726 -23.386 -12.522  0.00  0.00    +0.144 HD
ATOM     33  H   UNL     1      36.022 -23.496 -13.625  0.00  0.00    +0.144 HD
ENDBRANCH  24  27
ENDBRANCH   3  24
TORSDOF 5
ENDMDL
MODEL 3
REMARK VINA RESULT:     -12.0      5.966      9.478
REMARK  Name = 17748441
REMARK  5 active torsions:
REMARK  status: ('A' for Active; 'I' for Inactive)
REMARK    1  A    between atoms: C_2  and  N_10
REMARK    2  A    between atoms: C_3  and  O_24
REMARK    3  A    between atoms: C_12  and  C_16
REMARK    4  A    between atoms: C_16  and  C_18
REMARK    5  A    between atoms: O_24  and  C_27
REMARK                            x       y       z     vdW  Elec       q    Type
REMARK                         _______ _______ _______ _____ _____    ______ ____
ROOT
ATOM      1  F   UNL     1      37.061 -21.614 -19.870  0.00  0.00    -0.201 F 
ATOM      2  C   UNL     1      33.572 -21.862 -18.872  0.00  0.00    +0.054 C 
ATOM      3  C   UNL     1      35.168 -20.407 -20.637  0.00  0.00    +0.173 C 
ATOM      4  C   UNL     1      34.945 -22.104 -18.932  0.00  0.00    +0.047 C 
ATOM      5  C   UNL     1      32.998 -20.893 -19.694  0.00  0.00    +0.018 C 
ATOM      6  C   UNL     1      35.743 -21.376 -19.815  0.00  0.00    +0.176 C 
ATOM      7  C   UNL     1      33.796 -20.165 -20.576  0.00  0.00    +0.041 C 
ENDROOT
BRANCH   2  10
ATOM      8  O   UNL     1      33.017 -24.609 -14.209  0.00  0.00    -0.274 OA
ATOM      9  O   UNL     1      34.244 -23.122 -16.229  0.00  0.00    -0.252 OA
ATOM     10  N   UNL     1      32.763 -22.600 -17.976  0.00  0.00    -0.268 N 
ATOM     11  N   UNL     1      32.029 -23.819 -16.168  0.00  0.00    -0.239 N 
ATOM     12  C   UNL     1      32.040 -24.494 -14.945  0.00  0.00    +0.234 C 
ATOM     13  C   UNL     1      33.133 -23.165 -16.752  0.00  0.00    +0.310 C 
ATOM     14  H   UNL     1      31.825 -22.731 -18.249  0.00  0.00    +0.156 HD
ATOM     15  H   UNL     1      31.179 -23.799 -16.665  0.00  0.00    +0.159 HD
BRANCH  12  16
ATOM     16  C   UNL     1      30.677 -25.079 -14.627  0.00  0.00    +0.112 C 
BRANCH  16  18
ATOM     17  F   UNL     1      26.413 -22.107 -16.803  0.00  0.00    -0.204 F 
ATOM     18  C   UNL     1      29.537 -24.285 -15.208  0.00  0.00    -0.013 C 
ATOM     19  C   UNL     1      28.783 -24.812 -16.255  0.00  0.00    -0.001 C 
ATOM     20  C   UNL     1      29.237 -23.021 -14.700  0.00  0.00    -0.001 C 
ATOM     21  C   UNL     1      27.727 -24.077 -16.794  0.00  0.00    +0.029 C 
ATOM     22  C   UNL     1      28.182 -22.285 -15.239  0.00  0.00    +0.029 C 
ATOM     23  C   UNL     1      27.426 -22.813 -16.286  0.00  0.00    +0.140 C 
ENDBRANCH  16  18
ENDBRANCH  12  16
ENDBRANCH   2  10
BRANCH   3  24
ATOM     24  O   UNL     1      35.947 -19.695 -21.497  0.00  0.00    -0.451 OA
BRANCH  24  27
ATOM     25  N   UNL     1      34.035 -17.586 -24.558  0.00  0.00    -0.229 NA
ATOM     26  N   UNL     1      34.811 -15.541 -23.613  0.00  0.00    -0.343 N 
ATOM     27  C   UNL     1      35.313 -18.996 -22.511  0.00  0.00    +0.150 C 
ATOM     28  C   UNL     1      35.382 -17.608 -22.551  0.00  0.00    +0.071 C 
ATOM     29  C   UNL     1      34.606 -19.679 -23.493  0.00  0.00    +0.058 C 
ATOM     30  C   UNL     1      34.732 -16.956 -23.586  0.00  0.00    +0.128 C 
ATOM     31  C   UNL     1      33.990 -18.935 -24.486  0.00  0.00    +0.103 C 
ATOM     32  H   UNL     1      34.364 -15.036 -24.330  0.00  0.00    +0.144 HD
ATOM     33  H   UNL     1      35.314 -15.063 -22.914  0.00  0.00    +0.144 HD
ENDBRANCH  24  27
ENDBRANCH   3  24
TORSDOF 5
ENDMDL
MODEL 4
REMARK VINA RESULT:     -11.9      5.330     12.793
REMARK  Name = 17748441
REMARK  5 active torsions:
REMARK  status: ('A' for Active; 'I' for Inactive)
REMARK    1  A    between atoms: C_2  and  N_10
REMARK    2  A    between atoms: C_3  and  O_24
REMARK    3  A    between atoms: C_12  and  C_16
REMARK    4  A    between atoms: C_16  and  C_18
REMARK    5  A    between atoms: O_24  and  C_27
REMARK                            x       y       z     vdW  Elec       q    Type
REMARK                         _______ _______ _______ _____ _____    ______ ____
ROOT
ATOM      1  F   UNL     1      33.965 -23.938 -16.105  0.00  0.00    -0.201 F 
ATOM      2  C   UNL     1      36.111 -21.697 -18.003  0.00  0.00    +0.054 C 
ATOM      3  C   UNL     1      36.130 -23.110 -15.598  0.00  0.00    +0.173 C 
ATOM      4  C   UNL     1      35.013 -22.479 -17.645  0.00  0.00    +0.047 C 
ATOM      5  C   UNL     1      37.218 -21.621 -17.158  0.00  0.00    +0.018 C 
ATOM      6  C   UNL     1      35.023 -23.186 -16.443  0.00  0.00    +0.176 C 
ATOM      7  C   UNL     1      37.227 -22.328 -15.955  0.00  0.00    +0.041 C 
ENDROOT
BRANCH   2  10
ATOM      8  O   UNL     1      33.396 -19.781 -22.310  0.00  0.00    -0.274 OA
ATOM      9  O   UNL     1      33.853 -21.101 -19.891  0.00  0.00    -0.252 OA
ATOM     10  N   UNL     1      36.102 -20.979 -19.222  0.00  0.00    -0.268 N 
ATOM     11  N   UNL     1      35.426 -19.978 -21.180  0.00  0.00    -0.239 N 
ATOM     12  C   UNL     1      34.599 -19.554 -22.224  0.00  0.00    +0.234 C 
ATOM     13  C   UNL     1      35.012 -20.732 -20.064  0.00  0.00    +0.310 C 
ATOM     14  H   UNL     1      36.967 -20.609 -19.512  0.00  0.00    +0.156 HD
ATOM     15  H   UNL     1      36.378 -19.730 -21.229  0.00  0.00    +0.159 HD
BRANCH  12  16
ATOM     16  C   UNL     1      35.380 -18.765 -23.258  0.00  0.00    +0.112 C 
BRANCH  16  18
ATOM     17  F   UNL     1      33.553 -13.470 -23.867  0.00  0.00    -0.204 F 
ATOM     18  C   UNL     1      34.892 -17.350 -23.421  0.00  0.00    -0.013 C 
ATOM     19  C   UNL     1      35.046 -16.435 -22.380  0.00  0.00    -0.001 C 
ATOM     20  C   UNL     1      34.286 -16.953 -24.613  0.00  0.00    -0.001 C 
ATOM     21  C   UNL     1      34.594 -15.124 -22.531  0.00  0.00    +0.029 C 
ATOM     22  C   UNL     1      33.833 -15.643 -24.764  0.00  0.00    +0.029 C 
ATOM     23  C   UNL     1      33.987 -14.728 -23.723  0.00  0.00    +0.140 C 
ENDBRANCH  16  18
ENDBRANCH  12  16
ENDBRANCH   2  10
BRANCH   3  24
ATOM     24  O   UNL     1      36.139 -23.799 -14.424  0.00  0.00    -0.451 OA
BRANCH  24  27
ATOM     25  N   UNL     1      38.193 -27.437 -14.320  0.00  0.00    -0.229 NA
ATOM     26  N   UNL     1      40.157 -26.291 -13.609  0.00  0.00    -0.343 N 
ATOM     27  C   UNL     1      36.820 -25.004 -14.390  0.00  0.00    +0.150 C 
ATOM     28  C   UNL     1      38.158 -25.040 -14.013  0.00  0.00    +0.071 C 
ATOM     29  C   UNL     1      36.168 -26.183 -14.731  0.00  0.00    +0.058 C 
ATOM     30  C   UNL     1      38.793 -26.271 -13.995  0.00  0.00    +0.128 C 
ATOM     31  C   UNL     1      36.892 -27.364 -14.680  0.00  0.00    +0.103 C 
ATOM     32  H   UNL     1      40.648 -27.143 -13.581  0.00  0.00    +0.144 HD
ATOM     33  H   UNL     1      40.613 -25.452 -13.368  0.00  0.00    +0.144 HD
ENDBRANCH  24  27
ENDBRANCH   3  24
TORSDOF 5
ENDMDL
MODEL 5
REMARK VINA RESULT:     -11.6      2.874     10.970
REMARK  Name = 17748441
REMARK  5 active torsions:
REMARK  status: ('A' for Active; 'I' for Inactive)
REMARK    1  A    between atoms: C_2  and  N_10
REMARK    2  A    between atoms: C_3  and  O_24
REMARK    3  A    between atoms: C_12  and  C_16
REMARK    4  A    between atoms: C_16  and  C_18
REMARK    5  A    between atoms: O_24  and  C_27
REMARK                            x       y       z     vdW  Elec       q    Type
REMARK                         _______ _______ _______ _____ _____    ______ ____
ROOT
ATOM      1  F   UNL     1      34.922 -18.861 -24.189  0.00  0.00    -0.201 F 
ATOM      2  C   UNL     1      34.501 -15.602 -22.630  0.00  0.00    +0.054 C 
ATOM      3  C   UNL     1      35.300 -18.186 -21.946  0.00  0.00    +0.173 C 
ATOM      4  C   UNL     1      34.512 -16.608 -23.597  0.00  0.00    +0.047 C 
ATOM      5  C   UNL     1      34.889 -15.889 -21.322  0.00  0.00    +0.018 C 
ATOM      6  C   UNL     1      34.912 -17.899 -23.255  0.00  0.00    +0.176 C 
ATOM      7  C   UNL     1      35.288 -17.181 -20.980  0.00  0.00    +0.041 C 
ENDROOT
BRANCH   2  10
ATOM      8  O   UNL     1      31.440 -11.214 -21.647  0.00  0.00    -0.274 OA
ATOM      9  O   UNL     1      32.512 -13.772 -21.321  0.00  0.00    -0.252 OA
ATOM     10  N   UNL     1      34.096 -14.291 -22.977  0.00  0.00    -0.268 N 
ATOM     11  N   UNL     1      33.044 -12.246 -22.989  0.00  0.00    -0.239 N 
ATOM     12  C   UNL     1      32.199 -11.199 -22.612  0.00  0.00    +0.234 C 
ATOM     13  C   UNL     1      33.159 -13.484 -22.325  0.00  0.00    +0.310 C 
ATOM     14  H   UNL     1      34.525 -13.902 -23.773  0.00  0.00    +0.156 HD
ATOM     15  H   UNL     1      33.605 -12.108 -23.787  0.00  0.00    +0.159 HD
BRANCH  12  16
ATOM     16  C   UNL     1      32.332 -10.018 -23.555  0.00  0.00    +0.112 C 
BRANCH  16  18
ATOM     17  F   UNL     1      32.310  -5.040 -20.915  0.00  0.00    -0.204 F 
ATOM     18  C   UNL     1      32.326  -8.688 -22.849  0.00  0.00    -0.013 C 
ATOM     19  C   UNL     1      31.180  -7.894 -22.867  0.00  0.00    -0.001 C 
ATOM     20  C   UNL     1      33.468  -8.248 -22.178  0.00  0.00    -0.001 C 
ATOM     21  C   UNL     1      31.174  -6.662 -22.213  0.00  0.00    +0.029 C 
ATOM     22  C   UNL     1      33.463  -7.016 -21.525  0.00  0.00    +0.029 C 
ATOM     23  C   UNL     1      32.316  -6.223 -21.542  0.00  0.00    +0.140 C 
ENDBRANCH  16  18
ENDBRANCH  12  16
ENDBRANCH   2  10
BRANCH   3  24
ATOM     24  O   UNL     1      35.687 -19.447 -21.612  0.00  0.00    -0.451 OA
BRANCH  24  27
ATOM     25  N   UNL     1      33.164 -21.656 -19.118  0.00  0.00    -0.229 NA
ATOM     26  N   UNL     1      35.072 -22.633 -18.077  0.00  0.00    -0.343 N 
ATOM     27  C   UNL     1      34.852 -20.179 -20.786  0.00  0.00    +0.150 C 
ATOM     28  C   UNL     1      35.388 -21.046 -19.839  0.00  0.00    +0.071 C 
ATOM     29  C   UNL     1      33.472 -20.051 -20.898  0.00  0.00    +0.058 C 
ATOM     30  C   UNL     1      34.509 -21.755 -19.037  0.00  0.00    +0.128 C 
ATOM     31  C   UNL     1      32.678 -20.805 -20.048  0.00  0.00    +0.103 C 
ATOM     32  H   UNL     1      34.485 -23.157 -17.486  0.00  0.00    +0.144 HD
ATOM     33  H   UNL     1      36.050 -22.719 -18.003  0.00  0.00    +0.144 HD
ENDBRANCH  24  27
ENDBRANCH   3  24
TORSDOF 5
ENDMDL
MODEL 6
REMARK VINA RESULT:     -11.6      2.977     11.099
REMARK  Name = 17748441
REMARK  5 active torsions:
REMARK  status: ('A' for Active; 'I' for Inactive)
REMARK    1  A    between atoms: C_2  and  N_10
REMARK    2  A    between atoms: C_3  and  O_24
REMARK    3  A    between atoms: C_12  and  C_16
REMARK    4  A    between atoms: C_16  and  C_18
REMARK    5  A    between atoms: O_24  and  C_27
REMARK                            x       y       z     vdW  Elec       q    Type
REMARK                         _______ _______ _______ _____ _____    ______ ____
ROOT
ATOM      1  F   UNL     1      35.021 -17.113 -24.642  0.00  0.00    -0.201 F 
ATOM      2  C   UNL     1      33.834 -14.665 -22.229  0.00  0.00    +0.054 C 
ATOM      3  C   UNL     1      35.288 -17.044 -22.286  0.00  0.00    +0.173 C 
ATOM      4  C   UNL     1      34.069 -15.310 -23.443  0.00  0.00    +0.047 C 
ATOM      5  C   UNL     1      34.325 -15.211 -21.043  0.00  0.00    +0.018 C 
ATOM      6  C   UNL     1      34.797 -16.499 -23.472  0.00  0.00    +0.176 C 
ATOM      7  C   UNL     1      35.052 -16.401 -21.072  0.00  0.00    +0.041 C 
ENDROOT
BRANCH   2  10
ATOM      8  O   UNL     1      33.163  -9.522 -23.871  0.00  0.00    -0.274 OA
ATOM      9  O   UNL     1      34.308 -12.060 -23.645  0.00  0.00    -0.252 OA
ATOM     10  N   UNL     1      33.095 -13.459 -22.199  0.00  0.00    -0.268 N 
ATOM     11  N   UNL     1      32.386 -11.304 -22.582  0.00  0.00    -0.239 N 
ATOM     12  C   UNL     1      32.347 -10.002 -23.089  0.00  0.00    +0.234 C 
ATOM     13  C   UNL     1      33.367 -12.270 -22.885  0.00  0.00    +0.310 C 
ATOM     14  H   UNL     1      32.294 -13.456 -21.626  0.00  0.00    +0.156 HD
ATOM     15  H   UNL     1      31.670 -11.568 -21.960  0.00  0.00    +0.159 HD
BRANCH  12  16
ATOM     16  C   UNL     1      31.153  -9.238 -22.549  0.00  0.00    +0.112 C 
BRANCH  16  18
ATOM     17  F   UNL     1      32.375  -3.938 -21.078  0.00  0.00    -0.204 F 
ATOM     18  C   UNL     1      31.480  -7.821 -22.156  0.00  0.00    -0.013 C 
ATOM     19  C   UNL     1      32.201  -7.570 -20.990  0.00  0.00    -0.001 C 
ATOM     20  C   UNL     1      31.061  -6.760 -22.959  0.00  0.00    -0.001 C 
ATOM     21  C   UNL     1      32.504  -6.258 -20.625  0.00  0.00    +0.029 C 
ATOM     22  C   UNL     1      31.363  -5.448 -22.594  0.00  0.00    +0.029 C 
ATOM     23  C   UNL     1      32.085  -5.197 -21.428  0.00  0.00    +0.140 C 
ENDBRANCH  16  18
ENDBRANCH  12  16
ENDBRANCH   2  10
BRANCH   3  24
ATOM     24  O   UNL     1      35.997 -18.207 -22.313  0.00  0.00    -0.451 OA
BRANCH  24  27
ATOM     25  N   UNL     1      35.036 -21.135 -19.489  0.00  0.00    -0.229 NA
ATOM     26  N   UNL     1      32.739 -20.944 -20.094  0.00  0.00    -0.343 N 
ATOM     27  C   UNL     1      35.678 -19.177 -21.377  0.00  0.00    +0.150 C 
ATOM     28  C   UNL     1      34.357 -19.575 -21.206  0.00  0.00    +0.071 C 
ATOM     29  C   UNL     1      36.678 -19.757 -20.606  0.00  0.00    +0.058 C 
ATOM     30  C   UNL     1      34.091 -20.549 -20.257  0.00  0.00    +0.128 C 
ATOM     31  C   UNL     1      36.309 -20.723 -19.684  0.00  0.00    +0.103 C 
ATOM     32  H   UNL     1      32.505 -21.633 -19.432  0.00  0.00    +0.144 HD
ATOM     33  H   UNL     1      32.036 -20.528 -20.644  0.00  0.00    +0.144 HD
ENDBRANCH  24  27
ENDBRANCH   3  24
TORSDOF 5
ENDMDL
MODEL 7
REMARK VINA RESULT:     -11.5      2.967     10.571
REMARK  Name = 17748441
REMARK  5 active torsions:
REMARK  status: ('A' for Active; 'I' for Inactive)
REMARK    1  A    between atoms: C_2  and  N_10
REMARK    2  A    between atoms: C_3  and  O_24
REMARK    3  A    between atoms: C_12  and  C_16
REMARK    4  A    between atoms: C_16  and  C_18
REMARK    5  A    between atoms: O_24  and  C_27
REMARK                            x       y       z     vdW  Elec       q    Type
REMARK                         _______ _______ _______ _____ _____    ______ ____
ROOT
ATOM      1  F   UNL     1      34.442 -17.648 -25.059  0.00  0.00    -0.201 F 
ATOM      2  C   UNL     1      33.886 -14.762 -22.917  0.00  0.00    +0.054 C 
ATOM      3  C   UNL     1      35.146 -17.248 -22.829  0.00  0.00    +0.173 C 
ATOM      4  C   UNL     1      33.849 -15.603 -24.030  0.00  0.00    +0.047 C 
ATOM      5  C   UNL     1      34.553 -15.165 -21.760  0.00  0.00    +0.018 C 
ATOM      6  C   UNL     1      34.480 -16.846 -23.985  0.00  0.00    +0.176 C 
ATOM      7  C   UNL     1      35.183 -16.409 -21.716  0.00  0.00    +0.041 C 
ENDROOT
BRANCH   2  10
ATOM      8  O   UNL     1      30.747 -10.998 -20.557  0.00  0.00    -0.274 OA
ATOM      9  O   UNL     1      32.161 -13.384 -20.881  0.00  0.00    -0.252 OA
ATOM     10  N   UNL     1      33.246 -13.501 -22.961  0.00  0.00    -0.268 N 
ATOM     11  N   UNL     1      32.003 -11.645 -22.412  0.00  0.00    -0.239 N 
ATOM     12  C   UNL     1      31.186 -10.777 -21.682  0.00  0.00    +0.234 C 
ATOM     13  C   UNL     1      32.451 -12.908 -21.976  0.00  0.00    +0.310 C 
ATOM     14  H   UNL     1      33.377 -12.978 -23.786  0.00  0.00    +0.156 HD
ATOM     15  H   UNL     1      32.289 -11.350 -23.308  0.00  0.00    +0.159 HD
BRANCH  12  16
ATOM     16  C   UNL     1      30.901  -9.506 -22.459  0.00  0.00    +0.112 C 
BRANCH  16  18
ATOM     17  F   UNL     1      35.532  -6.512 -23.614  0.00  0.00    -0.204 F 
ATOM     18  C   UNL     1      32.138  -8.705 -22.768  0.00  0.00    -0.013 C 
ATOM     19  C   UNL     1      32.450  -8.386 -24.089  0.00  0.00    -0.001 C 
ATOM     20  C   UNL     1      32.973  -8.284 -21.733  0.00  0.00    -0.001 C 
ATOM     21  C   UNL     1      33.597  -7.644 -24.375  0.00  0.00    +0.029 C 
ATOM     22  C   UNL     1      34.120  -7.544 -22.019  0.00  0.00    +0.029 C 
ATOM     23  C   UNL     1      34.432  -7.223 -23.340  0.00  0.00    +0.140 C 
ENDBRANCH  16  18
ENDBRANCH  12  16
ENDBRANCH   2  10
BRANCH   3  24
ATOM     24  O   UNL     1      35.760 -18.463 -22.785  0.00  0.00    -0.451 OA
BRANCH  24  27
ATOM     25  N   UNL     1      34.929 -20.944 -19.525  0.00  0.00    -0.229 NA
ATOM     26  N   UNL     1      32.621 -20.923 -20.117  0.00  0.00    -0.343 N 
ATOM     27  C   UNL     1      35.484 -19.285 -21.704  0.00  0.00    +0.150 C 
ATOM     28  C   UNL     1      34.179 -19.693 -21.453  0.00  0.00    +0.071 C 
ATOM     29  C   UNL     1      36.511 -19.705 -20.867  0.00  0.00    +0.058 C 
ATOM     30  C   UNL     1      33.956 -20.515 -20.360  0.00  0.00    +0.128 C 
ATOM     31  C   UNL     1      36.184 -20.526 -19.800  0.00  0.00    +0.103 C 
ATOM     32  H   UNL     1      32.416 -21.508 -19.352  0.00  0.00    +0.144 HD
ATOM     33  H   UNL     1      31.898 -20.622 -20.715  0.00  0.00    +0.144 HD
ENDBRANCH  24  27
ENDBRANCH   3  24
TORSDOF 5
ENDMDL
MODEL 8
REMARK VINA RESULT:     -11.4      4.713      7.642
REMARK  Name = 17748441
REMARK  5 active torsions:
REMARK  status: ('A' for Active; 'I' for Inactive)
REMARK    1  A    between atoms: C_2  and  N_10
REMARK    2  A    between atoms: C_3  and  O_24
REMARK    3  A    between atoms: C_12  and  C_16
REMARK    4  A    between atoms: C_16  and  C_18
REMARK    5  A    between atoms: O_24  and  C_27
REMARK                            x       y       z     vdW  Elec       q    Type
REMARK                         _______ _______ _______ _____ _____    ______ ____
ROOT
ATOM      1  F   UNL     1      37.841 -18.681 -21.696  0.00  0.00    -0.201 F 
ATOM      2  C   UNL     1      35.250 -20.693 -20.126  0.00  0.00    +0.054 C 
ATOM      3  C   UNL     1      35.543 -18.902 -22.244  0.00  0.00    +0.173 C 
ATOM      4  C   UNL     1      36.495 -20.121 -20.389  0.00  0.00    +0.047 C 
ATOM      5  C   UNL     1      34.152 -20.368 -20.923  0.00  0.00    +0.018 C 
ATOM      6  C   UNL     1      36.642 -19.226 -21.448  0.00  0.00    +0.176 C 
ATOM      7  C   UNL     1      34.299 -19.472 -21.981  0.00  0.00    +0.041 C 
ENDROOT
BRANCH   2  10
ATOM      8  O   UNL     1      36.969 -22.650 -15.351  0.00  0.00    -0.274 OA
ATOM      9  O   UNL     1      36.897 -21.053 -17.641  0.00  0.00    -0.252 OA
ATOM     10  N   UNL     1      35.100 -21.601 -19.051  0.00  0.00    -0.268 N 
ATOM     11  N   UNL     1      35.413 -22.751 -17.084  0.00  0.00    -0.239 N 
ATOM     12  C   UNL     1      35.972 -23.147 -15.866  0.00  0.00    +0.234 C 
ATOM     13  C   UNL     1      35.904 -21.723 -17.913  0.00  0.00    +0.310 C 
ATOM     14  H   UNL     1      34.338 -22.222 -19.114  0.00  0.00    +0.156 HD
ATOM     15  H   UNL     1      34.609 -23.232 -17.389  0.00  0.00    +0.159 HD
BRANCH  12  16
ATOM     16  C   UNL     1      35.185 -24.285 -15.244  0.00  0.00    +0.112 C 
BRANCH  16  18
ATOM     17  F   UNL     1      29.808 -22.970 -14.192  0.00  0.00    -0.204 F 
ATOM     18  C   UNL     1      33.748 -23.933 -14.963  0.00  0.00    -0.013 C 
ATOM     19  C   UNL     1      33.280 -23.911 -13.650  0.00  0.00    -0.001 C 
ATOM     20  C   UNL     1      32.885 -23.630 -16.016  0.00  0.00    -0.001 C 
ATOM     21  C   UNL     1      31.949 -23.585 -13.389  0.00  0.00    +0.029 C 
ATOM     22  C   UNL     1      31.554 -23.305 -15.756  0.00  0.00    +0.029 C 
ATOM     23  C   UNL     1      31.086 -23.282 -14.442  0.00  0.00    +0.140 C 
ENDBRANCH  16  18
ENDBRANCH  12  16
ENDBRANCH   2  10
BRANCH   3  24
ATOM     24  O   UNL     1      35.686 -18.026 -23.277  0.00  0.00    -0.451 OA
BRANCH  24  27
ATOM     25  N   UNL     1      33.642 -14.388 -23.033  0.00  0.00    -0.229 NA
ATOM     26  N   UNL     1      32.973 -14.630 -25.308  0.00  0.00    -0.343 N 
ATOM     27  C   UNL     1      35.009 -16.821 -23.197  0.00  0.00    +0.150 C 
ATOM     28  C   UNL     1      34.326 -16.328 -24.303  0.00  0.00    +0.071 C 
ATOM     29  C   UNL     1      35.009 -16.098 -22.009  0.00  0.00    +0.058 C 
ATOM     30  C   UNL     1      33.664 -15.118 -24.171  0.00  0.00    +0.128 C 
ATOM     31  C   UNL     1      34.317 -14.898 -21.979  0.00  0.00    +0.103 C 
ATOM     32  H   UNL     1      32.488 -13.774 -25.259  0.00  0.00    +0.144 HD
ATOM     33  H   UNL     1      32.977 -15.147 -26.146  0.00  0.00    +0.144 HD
ENDBRANCH  24  27
ENDBRANCH   3  24
TORSDOF 5
ENDMDL
MODEL 9
REMARK VINA RESULT:     -11.3      5.525      9.157
REMARK  Name = 17748441
REMARK  5 active torsions:
REMARK  status: ('A' for Active; 'I' for Inactive)
REMARK    1  A    between atoms: C_2  and  N_10
REMARK    2  A    between atoms: C_3  and  O_24
REMARK    3  A    between atoms: C_12  and  C_16
REMARK    4  A    between atoms: C_16  and  C_18
REMARK    5  A    between atoms: O_24  and  C_27
REMARK                            x       y       z     vdW  Elec       q    Type
REMARK                         _______ _______ _______ _____ _____    ______ ____
ROOT
ATOM      1  F   UNL     1      32.999 -19.990 -21.464  0.00  0.00    -0.201 F 
ATOM      2  C   UNL     1      34.043 -22.019 -18.632  0.00  0.00    +0.054 C 
ATOM      3  C   UNL     1      35.177 -20.602 -20.750  0.00  0.00    +0.173 C 
ATOM      4  C   UNL     1      33.224 -21.346 -19.539  0.00  0.00    +0.047 C 
ATOM      5  C   UNL     1      35.429 -21.984 -18.785  0.00  0.00    +0.018 C 
ATOM      6  C   UNL     1      33.791 -20.637 -20.597  0.00  0.00    +0.176 C 
ATOM      7  C   UNL     1      35.996 -21.276 -19.844  0.00  0.00    +0.041 C 
ENDROOT
BRANCH   2  10
ATOM      8  O   UNL     1      34.532 -24.362 -13.747  0.00  0.00    -0.274 OA
ATOM      9  O   UNL     1      35.258 -22.966 -16.054  0.00  0.00    -0.252 OA
ATOM     10  N   UNL     1      33.468 -22.739 -17.558  0.00  0.00    -0.268 N 
ATOM     11  N   UNL     1      33.165 -23.845 -15.564  0.00  0.00    -0.239 N 
ATOM     12  C   UNL     1      33.443 -24.401 -14.313  0.00  0.00    +0.234 C 
ATOM     13  C   UNL     1      34.088 -23.154 -16.375  0.00  0.00    +0.310 C 
ATOM     14  H   UNL     1      32.517 -22.976 -17.656  0.00  0.00    +0.156 HD
ATOM     15  H   UNL     1      32.248 -23.946 -15.909  0.00  0.00    +0.159 HD
BRANCH  12  16
ATOM     16  C   UNL     1      32.216 -25.072 -13.724  0.00  0.00    +0.112 C 
BRANCH  16  18
ATOM     17  F   UNL     1      27.378 -23.203 -15.926  0.00  0.00    -0.204 F 
ATOM     18  C   UNL     1      30.923 -24.572 -14.313  0.00  0.00    -0.013 C 
ATOM     19  C   UNL     1      30.585 -23.224 -14.207  0.00  0.00    -0.001 C 
ATOM     20  C   UNL     1      30.064 -25.458 -14.963  0.00  0.00    -0.001 C 
ATOM     21  C   UNL     1      29.387 -22.761 -14.752  0.00  0.00    +0.029 C 
ATOM     22  C   UNL     1      28.866 -24.996 -15.507  0.00  0.00    +0.029 C 
ATOM     23  C   UNL     1      28.527 -23.647 -15.403  0.00  0.00    +0.140 C 
ENDBRANCH  16  18
ENDBRANCH  12  16
ENDBRANCH   2  10
BRANCH   3  24
ATOM     24  O   UNL     1      35.731 -19.912 -21.784  0.00  0.00    -0.451 OA
BRANCH  24  27
ATOM     25  N   UNL     1      34.726 -15.874 -22.182  0.00  0.00    -0.229 NA
ATOM     26  N   UNL     1      34.480 -16.182 -24.532  0.00  0.00    -0.343 N 
ATOM     27  C   UNL     1      35.398 -18.574 -21.917  0.00  0.00    +0.150 C 
ATOM     28  C   UNL     1      35.104 -18.048 -23.170  0.00  0.00    +0.071 C 
ATOM     29  C   UNL     1      35.356 -17.752 -20.797  0.00  0.00    +0.058 C 
ATOM     30  C   UNL     1      34.777 -16.704 -23.248  0.00  0.00    +0.128 C 
ATOM     31  C   UNL     1      35.017 -16.421 -20.981  0.00  0.00    +0.103 C 
ATOM     32  H   UNL     1      34.242 -15.233 -24.635  0.00  0.00    +0.144 HD
ATOM     33  H   UNL     1      34.512 -16.770 -25.321  0.00  0.00    +0.144 HD
ENDBRANCH  24  27
ENDBRANCH   3  24
TORSDOF 5
ENDMDL
