MODEL 1
REMARK VINA RESULT:     -13.5      0.000      0.000
REMARK  Name = 115237
REMARK  5 active torsions:
REMARK  status: ('A' for Active; 'I' for Inactive)
REMARK    1  A    between atoms: N_1  and  C_18
REMARK    2  A    between atoms: C_2  and  C_11
REMARK    3  A    between atoms: C_18  and  C_19
REMARK    4  A    between atoms: C_19  and  C_23
REMARK    5  A    between atoms: C_25  and  O_32
REMARK                            x       y       z     vdW  Elec       q    Type
REMARK                         _______ _______ _______ _____ _____    ______ ____
ROOT
ATOM      1  N   UNL     1      34.466 -20.680 -19.962  0.00  0.00    +0.387 N 
ATOM      2  C   UNL     1      34.234 -22.837 -17.988  0.00  0.00    +0.039 C 
ATOM      3  C   UNL     1      35.562 -22.113 -18.268  0.00  0.00    -0.017 C 
ATOM      4  C   UNL     1      33.054 -21.921 -18.354  0.00  0.00    -0.017 C 
ATOM      5  C   UNL     1      35.606 -21.569 -19.697  0.00  0.00    -0.077 C 
ATOM      6  C   UNL     1      33.190 -21.384 -19.780  0.00  0.00    -0.077 C 
ATOM      7  H   UNL     1      34.502 -19.914 -19.289  0.00  0.00    -0.080 HD
ENDROOT
BRANCH   2  11
ATOM      8  F   UNL     1      30.508 -24.431 -12.622  0.00  0.00    -0.204 F 
ATOM      9  O   UNL     1      34.838 -24.181 -14.701  0.00  0.00    -0.354 OA
ATOM     10  N   UNL     1      35.258 -23.752 -15.953  0.00  0.00    -0.081 NA
ATOM     11  C   UNL     1      34.145 -23.369 -16.576  0.00  0.00    +0.100 A 
ATOM     12  C   UNL     1      32.995 -23.524 -15.789  0.00  0.00    +0.054 A 
ATOM     13  C   UNL     1      33.487 -24.044 -14.605  0.00  0.00    +0.179 A 
ATOM     14  C   UNL     1      31.615 -23.300 -15.914  0.00  0.00    +0.007 C 
ATOM     15  C   UNL     1      32.700 -24.370 -13.504  0.00  0.00    +0.070 C 
ATOM     16  C   UNL     1      30.792 -23.616 -14.823  0.00  0.00    +0.030 C 
ATOM     17  C   UNL     1      31.328 -24.141 -13.643  0.00  0.00    +0.143 C 
ENDBRANCH   2  11
BRANCH   1  18
ATOM     18  C   UNL     1      34.556 -20.123 -21.312  0.00  0.00    -0.076 C 
BRANCH  18  19
ATOM     19  C   UNL     1      35.513 -18.939 -21.322  0.00  0.00    -0.007 C 
BRANCH  19  23
ATOM     20  O   UNL     1      35.003 -16.363 -20.401  0.00  0.00    -0.274 OA
ATOM     21  N   UNL     1      34.452 -15.493 -22.491  0.00  0.00    -0.235 N 
ATOM     22  N   UNL     1      34.326 -16.949 -24.352  0.00  0.00    -0.397 NA
ATOM     23  C   UNL     1      35.016 -17.856 -22.235  0.00  0.00    +0.123 C 
ATOM     24  C   UNL     1      34.224 -14.168 -21.910  0.00  0.00    +0.100 C 
ATOM     25  C   UNL     1      33.785 -14.631 -24.748  0.00  0.00    +0.177 C 
ATOM     26  C   UNL     1      34.233 -13.032 -22.915  0.00  0.00    +0.025 C 
ATOM     27  C   UNL     1      33.291 -13.381 -24.047  0.00  0.00    +0.040 C 
ATOM     28  C   UNL     1      34.190 -15.773 -23.822  0.00  0.00    +0.192 C 
ATOM     29  C   UNL     1      34.833 -16.509 -21.611  0.00  0.00    +0.237 C 
ATOM     30  C   UNL     1      34.740 -17.982 -23.548  0.00  0.00    +0.097 C 
ATOM     31  C   UNL     1      34.839 -19.292 -24.284  0.00  0.00    +0.062 C 
BRANCH  25  32
ATOM     32  O   UNL     1      32.765 -15.101 -25.618  0.00  0.00    -0.376 OA
ATOM     33  H   UNL     1      33.169 -15.493 -26.407  0.00  0.00    +0.211 HD
ENDBRANCH  25  32
ENDBRANCH  19  23
ENDBRANCH  18  19
ENDBRANCH   1  18
TORSDOF 5
ENDMDL
MODEL 2
REMARK VINA RESULT:     -13.4      3.389     10.414
REMARK  Name = 115237
REMARK  5 active torsions:
REMARK  status: ('A' for Active; 'I' for Inactive)
REMARK    1  A    between atoms: N_1  and  C_18
REMARK    2  A    between atoms: C_2  and  C_11
REMARK    3  A    between atoms: C_18  and  C_19
REMARK    4  A    between atoms: C_19  and  C_23
REMARK    5  A    between atoms: C_25  and  O_32
REMARK                            x       y       z     vdW  Elec       q    Type
REMARK                         _______ _______ _______ _____ _____    ______ ____
ROOT
ATOM      1  N   UNL     1      35.705 -19.765 -20.258  0.00  0.00    +0.387 N 
ATOM      2  C   UNL     1      35.204 -18.456 -22.835  0.00  0.00    +0.039 C 
ATOM      3  C   UNL     1      34.151 -19.331 -22.135  0.00  0.00    -0.017 C 
ATOM      4  C   UNL     1      36.183 -17.885 -21.795  0.00  0.00    -0.017 C 
ATOM      5  C   UNL     1      34.810 -20.387 -21.245  0.00  0.00    -0.077 C 
ATOM      6  C   UNL     1      36.768 -18.994 -20.917  0.00  0.00    -0.077 C 
ATOM      7  H   UNL     1      35.151 -19.120 -19.694  0.00  0.00    -0.080 HD
ENDROOT
BRANCH   2  11
ATOM      8  F   UNL     1      33.373 -12.045 -23.715  0.00  0.00    -0.204 F 
ATOM      9  O   UNL     1      33.652 -16.523 -25.449  0.00  0.00    -0.354 OA
ATOM     10  N   UNL     1      34.147 -17.709 -24.920  0.00  0.00    -0.081 NA
ATOM     11  C   UNL     1      34.589 -17.385 -23.707  0.00  0.00    +0.100 A 
ATOM     12  C   UNL     1      34.409 -16.028 -23.401  0.00  0.00    +0.054 A 
ATOM     13  C   UNL     1      33.810 -15.522 -24.541  0.00  0.00    +0.179 A 
ATOM     14  C   UNL     1      34.670 -15.164 -22.326  0.00  0.00    +0.007 C 
ATOM     15  C   UNL     1      33.439 -14.191 -24.706  0.00  0.00    +0.070 C 
ATOM     16  C   UNL     1      34.308 -13.817 -22.458  0.00  0.00    +0.030 C 
ATOM     17  C   UNL     1      33.704 -13.342 -23.627  0.00  0.00    +0.143 C 
ENDBRANCH   2  11
BRANCH   1  18
ATOM     18  C   UNL     1      36.281 -20.782 -19.379  0.00  0.00    -0.076 C 
BRANCH  18  19
ATOM     19  C   UNL     1      35.485 -22.075 -19.491  0.00  0.00    -0.007 C 
BRANCH  19  23
ATOM     20  O   UNL     1      32.766 -22.426 -19.011  0.00  0.00    -0.274 OA
ATOM     21  N   UNL     1      33.030 -23.180 -16.822  0.00  0.00    -0.235 N 
ATOM     22  N   UNL     1      35.188 -23.171 -15.850  0.00  0.00    -0.397 NA
ATOM     23  C   UNL     1      34.967 -22.503 -18.149  0.00  0.00    +0.123 C 
ATOM     24  C   UNL     1      31.582 -23.346 -16.674  0.00  0.00    +0.100 C 
ATOM     25  C   UNL     1      33.366 -23.901 -14.445  0.00  0.00    +0.177 C 
ATOM     26  C   UNL     1      31.167 -24.244 -15.525  0.00  0.00    +0.025 C 
ATOM     27  C   UNL     1      31.866 -23.772 -14.267  0.00  0.00    +0.040 C 
ATOM     28  C   UNL     1      33.908 -23.367 -15.767  0.00  0.00    +0.192 C 
ATOM     29  C   UNL     1      33.487 -22.699 -18.052  0.00  0.00    +0.237 C 
ATOM     30  C   UNL     1      35.705 -22.740 -17.046  0.00  0.00    +0.097 C 
ATOM     31  C   UNL     1      37.196 -22.536 -16.999  0.00  0.00    +0.062 C 
BRANCH  25  32
ATOM     32  O   UNL     1      34.013 -23.211 -13.386  0.00  0.00    -0.376 OA
ATOM     33  H   UNL     1      34.631 -23.810 -12.939  0.00  0.00    +0.211 HD
ENDBRANCH  25  32
ENDBRANCH  19  23
ENDBRANCH  18  19
ENDBRANCH   1  18
TORSDOF 5
ENDMDL
MODEL 3
REMARK VINA RESULT:     -13.1      3.685      6.712
REMARK  Name = 115237
REMARK  5 active torsions:
REMARK  status: ('A' for Active; 'I' for Inactive)
REMARK    1  A    between atoms: N_1  and  C_18
REMARK    2  A    between atoms: C_2  and  C_11
REMARK    3  A    between atoms: C_18  and  C_19
REMARK    4  A    between atoms: C_19  and  C_23
REMARK    5  A    between atoms: C_25  and  O_32
REMARK                            x       y       z     vdW  Elec       q    Type
REMARK                         _______ _______ _______ _____ _____    ______ ____
ROOT
ATOM      1  N   UNL     1      34.092 -15.286 -22.717  0.00  0.00    +0.387 N 
ATOM      2  C   UNL     1      35.777 -17.402 -21.582  0.00  0.00    +0.039 C 
ATOM      3  C   UNL     1      35.021 -16.390 -20.706  0.00  0.00    -0.017 C 
ATOM      4  C   UNL     1      35.069 -17.549 -22.939  0.00  0.00    -0.017 C 
ATOM      5  C   UNL     1      34.801 -15.070 -21.448  0.00  0.00    -0.077 C 
ATOM      6  C   UNL     1      34.846 -16.187 -23.600  0.00  0.00    -0.077 C 
ATOM      7  H   UNL     1      33.197 -15.729 -22.506  0.00  0.00    -0.080 HD
ENDROOT
BRANCH   2  11
ATOM      8  F   UNL     1      33.244 -23.074 -19.006  0.00  0.00    -0.204 F 
ATOM      9  O   UNL     1      37.085 -20.340 -19.957  0.00  0.00    -0.354 OA
ATOM     10  N   UNL     1      37.231 -19.099 -20.566  0.00  0.00    -0.081 NA
ATOM     11  C   UNL     1      35.993 -18.728 -20.889  0.00  0.00    +0.100 A 
ATOM     12  C   UNL     1      35.023 -19.671 -20.520  0.00  0.00    +0.054 A 
ATOM     13  C   UNL     1      35.767 -20.679 -19.931  0.00  0.00    +0.179 A 
ATOM     14  C   UNL     1      33.629 -19.812 -20.603  0.00  0.00    +0.007 C 
ATOM     15  C   UNL     1      35.225 -21.847 -19.404  0.00  0.00    +0.070 C 
ATOM     16  C   UNL     1      33.050 -20.977 -20.081  0.00  0.00    +0.030 C 
ATOM     17  C   UNL     1      33.836 -21.974 -19.493  0.00  0.00    +0.143 C 
ENDBRANCH   2  11
BRANCH   1  18
ATOM     18  C   UNL     1      33.838 -14.010 -23.385  0.00  0.00    -0.076 C 
BRANCH  18  19
ATOM     19  C   UNL     1      32.382 -13.608 -23.199  0.00  0.00    -0.007 C 
BRANCH  19  23
ATOM     20  O   UNL     1      32.632 -10.915 -23.856  0.00  0.00    -0.274 OA
ATOM     21  N   UNL     1      32.154 -10.126 -21.717  0.00  0.00    -0.235 N 
ATOM     22  N   UNL     1      31.882 -11.675 -19.948  0.00  0.00    -0.397 NA
ATOM     23  C   UNL     1      32.253 -12.526 -22.166  0.00  0.00    +0.123 C 
ATOM     24  C   UNL     1      32.293  -8.739 -22.167  0.00  0.00    +0.100 C 
ATOM     25  C   UNL     1      31.720  -9.335 -19.378  0.00  0.00    +0.177 C 
ATOM     26  C   UNL     1      31.661  -7.714 -21.245  0.00  0.00    +0.025 C 
ATOM     27  C   UNL     1      32.160  -7.959 -19.837  0.00  0.00    +0.040 C 
ATOM     28  C   UNL     1      31.951 -10.456 -20.387  0.00  0.00    +0.192 C 
ATOM     29  C   UNL     1      32.361 -11.123 -22.674  0.00  0.00    +0.237 C 
ATOM     30  C   UNL     1      32.035 -12.701 -20.848  0.00  0.00    +0.097 C 
ATOM     31  C   UNL     1      31.951 -14.060 -20.205  0.00  0.00    +0.062 C 
BRANCH  25  32
ATOM     32  O   UNL     1      32.413  -9.662 -18.182  0.00  0.00    -0.376 OA
ATOM     33  H   UNL     1      33.211 -10.169 -18.399  0.00  0.00    +0.211 HD
ENDBRANCH  25  32
ENDBRANCH  19  23
ENDBRANCH  18  19
ENDBRANCH   1  18
TORSDOF 5
ENDMDL
MODEL 4
REMARK VINA RESULT:     -12.6      1.940      2.439
REMARK  Name = 115237
REMARK  5 active torsions:
REMARK  status: ('A' for Active; 'I' for Inactive)
REMARK    1  A    between atoms: N_1  and  C_18
REMARK    2  A    between atoms: C_2  and  C_11
REMARK    3  A    between atoms: C_18  and  C_19
REMARK    4  A    between atoms: C_19  and  C_23
REMARK    5  A    between atoms: C_25  and  O_32
REMARK                            x       y       z     vdW  Elec       q    Type
REMARK                         _______ _______ _______ _____ _____    ______ ____
ROOT
ATOM      1  N   UNL     1      34.541 -21.001 -19.594  0.00  0.00    +0.387 N 
ATOM      2  C   UNL     1      34.527 -23.026 -17.471  0.00  0.00    +0.039 C 
ATOM      3  C   UNL     1      35.717 -22.080 -17.702  0.00  0.00    -0.017 C 
ATOM      4  C   UNL     1      33.237 -22.381 -18.007  0.00  0.00    -0.017 C 
ATOM      5  C   UNL     1      35.796 -21.634 -19.164  0.00  0.00    -0.077 C 
ATOM      6  C   UNL     1      33.406 -21.924 -19.457  0.00  0.00    -0.077 C 
ATOM      7  H   UNL     1      34.369 -20.199 -18.986  0.00  0.00    -0.080 HD
ENDROOT
BRANCH   2  11
ATOM      8  F   UNL     1      37.455 -24.943 -11.729  0.00  0.00    -0.204 F 
ATOM      9  O   UNL     1      33.426 -24.001 -14.182  0.00  0.00    -0.354 OA
ATOM     10  N   UNL     1      33.194 -23.584 -15.487  0.00  0.00    -0.081 NA
ATOM     11  C   UNL     1      34.404 -23.469 -16.031  0.00  0.00    +0.100 A 
ATOM     12  C   UNL     1      35.439 -23.793 -15.142  0.00  0.00    +0.054 A 
ATOM     13  C   UNL     1      34.767 -24.125 -13.979  0.00  0.00    +0.179 A 
ATOM     14  C   UNL     1      36.841 -23.850 -15.159  0.00  0.00    +0.007 C 
ATOM     15  C   UNL     1      35.390 -24.518 -12.798  0.00  0.00    +0.070 C 
ATOM     16  C   UNL     1      37.501 -24.244 -13.987  0.00  0.00    +0.030 C 
ATOM     17  C   UNL     1      36.787 -24.571 -12.830  0.00  0.00    +0.143 C 
ENDBRANCH   2  11
BRANCH   1  18
ATOM     18  C   UNL     1      34.654 -20.529 -20.973  0.00  0.00    -0.076 C 
BRANCH  18  19
ATOM     19  C   UNL     1      35.632 -19.364 -21.044  0.00  0.00    -0.007 C 
BRANCH  19  23
ATOM     20  O   UNL     1      35.108 -16.749 -20.250  0.00  0.00    -0.274 OA
ATOM     21  N   UNL     1      34.600 -15.973 -22.388  0.00  0.00    -0.235 N 
ATOM     22  N   UNL     1      34.508 -17.511 -24.183  0.00  0.00    -0.397 NA
ATOM     23  C   UNL     1      35.154 -18.323 -22.015  0.00  0.00    +0.123 C 
ATOM     24  C   UNL     1      34.362 -14.622 -21.871  0.00  0.00    +0.100 C 
ATOM     25  C   UNL     1      33.979 -15.212 -24.694  0.00  0.00    +0.177 C 
ATOM     26  C   UNL     1      34.393 -13.533 -22.926  0.00  0.00    +0.025 C 
ATOM     27  C   UNL     1      33.473 -13.931 -24.059  0.00  0.00    +0.040 C 
ATOM     28  C   UNL     1      34.363 -16.312 -23.709  0.00  0.00    +0.192 C 
ATOM     29  C   UNL     1      34.962 -16.949 -21.455  0.00  0.00    +0.237 C 
ATOM     30  C   UNL     1      34.904 -18.507 -23.326  0.00  0.00    +0.097 C 
ATOM     31  C   UNL     1      35.015 -19.849 -24.000  0.00  0.00    +0.062 C 
BRANCH  25  32
ATOM     32  O   UNL     1      32.976 -15.720 -25.562  0.00  0.00    -0.376 OA
ATOM     33  H   UNL     1      32.598 -16.528 -25.181  0.00  0.00    +0.211 HD
ENDBRANCH  25  32
ENDBRANCH  19  23
ENDBRANCH  18  19
ENDBRANCH   1  18
TORSDOF 5
ENDMDL
MODEL 5
REMARK VINA RESULT:     -12.2      3.521     10.630
REMARK  Name = 115237
REMARK  5 active torsions:
REMARK  status: ('A' for Active; 'I' for Inactive)
REMARK    1  A    between atoms: N_1  and  C_18
REMARK    2  A    between atoms: C_2  and  C_11
REMARK    3  A    between atoms: C_18  and  C_19
REMARK    4  A    between atoms: C_19  and  C_23
REMARK    5  A    between atoms: C_25  and  O_32
REMARK                            x       y       z     vdW  Elec       q    Type
REMARK                         _______ _______ _______ _____ _____    ______ ____
ROOT
ATOM      1  N   UNL     1      34.024 -22.739 -19.124  0.00  0.00    +0.387 N 
ATOM      2  C   UNL     1      34.575 -20.154 -20.397  0.00  0.00    +0.039 C 
ATOM      3  C   UNL     1      35.590 -21.308 -20.400  0.00  0.00    -0.017 C 
ATOM      4  C   UNL     1      33.150 -20.712 -20.243  0.00  0.00    -0.017 C 
ATOM      5  C   UNL     1      35.398 -22.220 -19.186  0.00  0.00    -0.077 C 
ATOM      6  C   UNL     1      33.047 -21.645 -19.035  0.00  0.00    -0.077 C 
ATOM      7  H   UNL     1      33.843 -23.253 -19.987  0.00  0.00    -0.080 HD
ENDROOT
BRANCH   2  11
ATOM      8  F   UNL     1      34.910 -13.941 -22.949  0.00  0.00    -0.204 F 
ATOM      9  O   UNL     1      34.967 -18.697 -23.668  0.00  0.00    -0.354 OA
ATOM     10  N   UNL     1      34.860 -19.781 -22.806  0.00  0.00    -0.081 NA
ATOM     11  C   UNL     1      34.720 -19.244 -21.596  0.00  0.00    +0.100 A 
ATOM     12  C   UNL     1      34.728 -17.842 -21.612  0.00  0.00    +0.054 A 
ATOM     13  C   UNL     1      34.889 -17.541 -22.953  0.00  0.00    +0.179 A 
ATOM     14  C   UNL     1      34.625 -16.793 -20.685  0.00  0.00    +0.007 C 
ATOM     15  C   UNL     1      34.957 -16.248 -23.464  0.00  0.00    +0.070 C 
ATOM     16  C   UNL     1      34.689 -15.478 -21.166  0.00  0.00    +0.030 C 
ATOM     17  C   UNL     1      34.852 -15.213 -22.529  0.00  0.00    +0.143 C 
ENDBRANCH   2  11
BRANCH   1  18
ATOM     18  C   UNL     1      33.874 -23.653 -17.992  0.00  0.00    -0.076 C 
BRANCH  18  19
ATOM     19  C   UNL     1      33.112 -22.965 -16.868  0.00  0.00    -0.007 C 
BRANCH  19  23
ATOM     20  O   UNL     1      35.835 -22.928 -16.291  0.00  0.00    -0.274 OA
ATOM     21  N   UNL     1      35.592 -23.576 -14.066  0.00  0.00    -0.235 N 
ATOM     22  N   UNL     1      33.445 -24.164 -13.262  0.00  0.00    -0.397 NA
ATOM     23  C   UNL     1      33.643 -23.383 -15.527  0.00  0.00    +0.123 C 
ATOM     24  C   UNL     1      37.041 -23.511 -13.860  0.00  0.00    +0.100 C 
ATOM     25  C   UNL     1      35.280 -24.359 -11.706  0.00  0.00    +0.177 C 
ATOM     26  C   UNL     1      37.464 -23.436 -12.405  0.00  0.00    +0.025 C 
ATOM     27  C   UNL     1      36.782 -24.552 -11.645  0.00  0.00    +0.040 C 
ATOM     28  C   UNL     1      34.725 -24.040 -13.090  0.00  0.00    +0.192 C 
ATOM     29  C   UNL     1      35.123 -23.264 -15.345  0.00  0.00    +0.237 C 
ATOM     30  C   UNL     1      32.917 -23.833 -14.485  0.00  0.00    +0.097 C 
ATOM     31  C   UNL     1      31.427 -24.041 -14.554  0.00  0.00    +0.062 C 
BRANCH  25  32
ATOM     32  O   UNL     1      34.647 -25.540 -11.233  0.00  0.00    -0.376 OA
ATOM     33  H   UNL     1      34.296 -26.041 -11.985  0.00  0.00    +0.211 HD
ENDBRANCH  25  32
ENDBRANCH  19  23
ENDBRANCH  18  19
ENDBRANCH   1  18
TORSDOF 5
ENDMDL
MODEL 6
REMARK VINA RESULT:     -12.2      3.387     10.617
REMARK  Name = 115237
REMARK  5 active torsions:
REMARK  status: ('A' for Active; 'I' for Inactive)
REMARK    1  A    between atoms: N_1  and  C_18
REMARK    2  A    between atoms: C_2  and  C_11
REMARK    3  A    between atoms: C_18  and  C_19
REMARK    4  A    between atoms: C_19  and  C_23
REMARK    5  A    between atoms: C_25  and  O_32
REMARK                            x       y       z     vdW  Elec       q    Type
REMARK                         _______ _______ _______ _____ _____    ______ ____
ROOT
ATOM      1  N   UNL     1      35.748 -20.528 -19.385  0.00  0.00    +0.387 N 
ATOM      2  C   UNL     1      35.340 -19.289 -22.012  0.00  0.00    +0.039 C 
ATOM      3  C   UNL     1      34.171 -19.754 -21.129  0.00  0.00    -0.017 C 
ATOM      4  C   UNL     1      36.567 -18.983 -21.137  0.00  0.00    -0.017 C 
ATOM      5  C   UNL     1      34.592 -20.904 -20.212  0.00  0.00    -0.077 C 
ATOM      6  C   UNL     1      36.901 -20.161 -20.219  0.00  0.00    -0.077 C 
ATOM      7  H   UNL     1      35.487 -19.710 -18.833  0.00  0.00    -0.080 HD
ENDROOT
BRANCH   2  11
ATOM      8  F   UNL     1      34.013 -12.744 -22.811  0.00  0.00    -0.204 F 
ATOM      9  O   UNL     1      34.451 -17.124 -24.752  0.00  0.00    -0.354 OA
ATOM     10  N   UNL     1      34.773 -18.364 -24.215  0.00  0.00    -0.081 NA
ATOM     11  C   UNL     1      34.967 -18.136 -22.917  0.00  0.00    +0.100 A 
ATOM     12  C   UNL     1      34.787 -16.791 -22.562  0.00  0.00    +0.054 A 
ATOM     13  C   UNL     1      34.461 -16.187 -23.764  0.00  0.00    +0.179 A 
ATOM     14  C   UNL     1      34.856 -16.007 -21.401  0.00  0.00    +0.007 C 
ATOM     15  C   UNL     1      34.190 -14.829 -23.911  0.00  0.00    +0.070 C 
ATOM     16  C   UNL     1      34.588 -14.635 -21.513  0.00  0.00    +0.030 C 
ATOM     17  C   UNL     1      34.262 -14.060 -22.746  0.00  0.00    +0.143 C 
ENDBRANCH   2  11
BRANCH   1  18
ATOM     18  C   UNL     1      36.101 -21.617 -18.474  0.00  0.00    -0.076 C 
BRANCH  18  19
ATOM     19  C   UNL     1      34.916 -22.558 -18.309  0.00  0.00    -0.007 C 
BRANCH  19  23
ATOM     20  O   UNL     1      37.131 -22.879 -16.654  0.00  0.00    -0.274 OA
ATOM     21  N   UNL     1      35.900 -23.411 -14.749  0.00  0.00    -0.235 N 
ATOM     22  N   UNL     1      33.554 -23.669 -14.923  0.00  0.00    -0.397 NA
ATOM     23  C   UNL     1      34.779 -23.000 -16.880  0.00  0.00    +0.123 C 
ATOM     24  C   UNL     1      37.127 -23.540 -13.958  0.00  0.00    +0.100 C 
ATOM     25  C   UNL     1      34.532 -24.063 -12.752  0.00  0.00    +0.177 C 
ATOM     26  C   UNL     1      36.916 -23.475 -12.458  0.00  0.00    +0.025 C 
ATOM     27  C   UNL     1      35.831 -24.460 -12.079  0.00  0.00    +0.040 C 
ATOM     28  C   UNL     1      34.651 -23.717 -14.233  0.00  0.00    +0.192 C 
ATOM     29  C   UNL     1      36.052 -23.081 -16.098  0.00  0.00    +0.237 C 
ATOM     30  C   UNL     1      33.632 -23.309 -16.245  0.00  0.00    +0.097 C 
ATOM     31  C   UNL     1      32.291 -23.311 -16.931  0.00  0.00    +0.062 C 
BRANCH  25  32
ATOM     32  O   UNL     1      33.602 -25.128 -12.616  0.00  0.00    -0.376 OA
ATOM     33  H   UNL     1      33.702 -25.534 -11.742  0.00  0.00    +0.211 HD
ENDBRANCH  25  32
ENDBRANCH  19  23
ENDBRANCH  18  19
ENDBRANCH   1  18
TORSDOF 5
ENDMDL
MODEL 7
REMARK VINA RESULT:     -12.1      1.438      2.172
REMARK  Name = 115237
REMARK  5 active torsions:
REMARK  status: ('A' for Active; 'I' for Inactive)
REMARK    1  A    between atoms: N_1  and  C_18
REMARK    2  A    between atoms: C_2  and  C_11
REMARK    3  A    between atoms: C_18  and  C_19
REMARK    4  A    between atoms: C_19  and  C_23
REMARK    5  A    between atoms: C_25  and  O_32
REMARK                            x       y       z     vdW  Elec       q    Type
REMARK                         _______ _______ _______ _____ _____    ______ ____
ROOT
ATOM      1  N   UNL     1      34.204 -20.092 -20.836  0.00  0.00    +0.387 N 
ATOM      2  C   UNL     1      34.369 -22.243 -18.849  0.00  0.00    +0.039 C 
ATOM      3  C   UNL     1      35.605 -21.461 -19.324  0.00  0.00    -0.017 C 
ATOM      4  C   UNL     1      33.106 -21.385 -19.035  0.00  0.00    -0.017 C 
ATOM      5  C   UNL     1      35.411 -20.926 -20.744  0.00  0.00    -0.077 C 
ATOM      6  C   UNL     1      33.003 -20.852 -20.465  0.00  0.00    -0.077 C 
ATOM      7  H   UNL     1      34.304 -19.320 -20.176  0.00  0.00    -0.080 HD
ENDROOT
BRANCH   2  11
ATOM      8  F   UNL     1      31.552 -24.690 -13.255  0.00  0.00    -0.204 F 
ATOM      9  O   UNL     1      35.522 -23.361 -15.624  0.00  0.00    -0.354 OA
ATOM     10  N   UNL     1      35.731 -22.850 -16.898  0.00  0.00    -0.081 NA
ATOM     11  C   UNL     1      34.516 -22.768 -17.439  0.00  0.00    +0.100 A 
ATOM     12  C   UNL     1      33.501 -23.206 -16.577  0.00  0.00    +0.054 A 
ATOM     13  C   UNL     1      34.190 -23.573 -15.434  0.00  0.00    +0.179 A 
ATOM     14  C   UNL     1      32.104 -23.342 -16.604  0.00  0.00    +0.007 C 
ATOM     15  C   UNL     1      33.590 -24.080 -14.285  0.00  0.00    +0.070 C 
ATOM     16  C   UNL     1      31.467 -23.848 -15.462  0.00  0.00    +0.030 C 
ATOM     17  C   UNL     1      32.199 -24.210 -14.326  0.00  0.00    +0.143 C 
ENDBRANCH   2  11
BRANCH   1  18
ATOM     18  C   UNL     1      34.065 -19.541 -22.184  0.00  0.00    -0.076 C 
BRANCH  18  19
ATOM     19  C   UNL     1      35.282 -18.691 -22.524  0.00  0.00    -0.007 C 
BRANCH  19  23
ATOM     20  O   UNL     1      34.670 -17.686 -25.047  0.00  0.00    -0.274 OA
ATOM     21  N   UNL     1      34.097 -15.555 -24.296  0.00  0.00    -0.235 N 
ATOM     22  N   UNL     1      34.405 -15.014 -22.013  0.00  0.00    -0.397 NA
ATOM     23  C   UNL     1      34.890 -17.256 -22.731  0.00  0.00    +0.123 C 
ATOM     24  C   UNL     1      33.786 -15.127 -25.662  0.00  0.00    +0.100 C 
ATOM     25  C   UNL     1      33.577 -13.256 -23.445  0.00  0.00    +0.177 C 
ATOM     26  C   UNL     1      32.927 -13.880 -25.748  0.00  0.00    +0.025 C 
ATOM     27  C   UNL     1      33.554 -12.802 -24.891  0.00  0.00    +0.040 C 
ATOM     28  C   UNL     1      34.078 -14.680 -23.223  0.00  0.00    +0.192 C 
ATOM     29  C   UNL     1      34.542 -16.870 -24.134  0.00  0.00    +0.237 C 
ATOM     30  C   UNL     1      34.810 -16.305 -21.780  0.00  0.00    +0.097 C 
ATOM     31  C   UNL     1      35.176 -16.552 -20.341  0.00  0.00    +0.062 C 
BRANCH  25  32
ATOM     32  O   UNL     1      34.403 -12.372 -22.701  0.00  0.00    -0.376 OA
ATOM     33  H   UNL     1      35.287 -12.346 -23.096  0.00  0.00    +0.211 HD
ENDBRANCH  25  32
ENDBRANCH  19  23
ENDBRANCH  18  19
ENDBRANCH   1  18
TORSDOF 5
ENDMDL
MODEL 8
REMARK VINA RESULT:     -12.0      7.005     11.454
REMARK  Name = 115237
REMARK  5 active torsions:
REMARK  status: ('A' for Active; 'I' for Inactive)
REMARK    1  A    between atoms: N_1  and  C_18
REMARK    2  A    between atoms: C_2  and  C_11
REMARK    3  A    between atoms: C_18  and  C_19
REMARK    4  A    between atoms: C_19  and  C_23
REMARK    5  A    between atoms: C_25  and  O_32
REMARK                            x       y       z     vdW  Elec       q    Type
REMARK                         _______ _______ _______ _____ _____    ______ ____
ROOT
ATOM      1  N   UNL     1      32.006 -10.643 -22.526  0.00  0.00    +0.387 N 
ATOM      2  C   UNL     1      33.475 -13.123 -23.071  0.00  0.00    +0.039 C 
ATOM      3  C   UNL     1      32.187 -13.093 -22.232  0.00  0.00    -0.017 C 
ATOM      4  C   UNL     1      33.501 -11.920 -24.029  0.00  0.00    -0.017 C 
ATOM      5  C   UNL     1      32.002 -11.738 -21.546  0.00  0.00    -0.077 C 
ATOM      6  C   UNL     1      33.268 -10.607 -23.278  0.00  0.00    -0.077 C 
ATOM      7  H   UNL     1      31.249 -10.812 -23.190  0.00  0.00    -0.080 HD
ENDROOT
BRANCH   2  11
ATOM      8  F   UNL     1      35.679 -19.475 -22.981  0.00  0.00    -0.204 F 
ATOM      9  O   UNL     1      33.605 -15.871 -25.398  0.00  0.00    -0.354 OA
ATOM     10  N   UNL     1      33.280 -14.566 -25.047  0.00  0.00    -0.081 NA
ATOM     11  C   UNL     1      33.679 -14.441 -23.783  0.00  0.00    +0.100 A 
ATOM     12  C   UNL     1      34.258 -15.611 -23.271  0.00  0.00    +0.054 A 
ATOM     13  C   UNL     1      34.188 -16.492 -24.336  0.00  0.00    +0.179 A 
ATOM     14  C   UNL     1      34.827 -16.044 -22.064  0.00  0.00    +0.007 C 
ATOM     15  C   UNL     1      34.649 -17.805 -24.299  0.00  0.00    +0.070 C 
ATOM     16  C   UNL     1      35.303 -17.361 -21.992  0.00  0.00    +0.030 C 
ATOM     17  C   UNL     1      35.213 -18.223 -23.090  0.00  0.00    +0.143 C 
ENDBRANCH   2  11
BRANCH   1  18
ATOM     18  C   UNL     1      31.771  -9.361 -21.861  0.00  0.00    -0.076 C 
BRANCH  18  19
ATOM     19  C   UNL     1      32.904  -8.396 -22.180  0.00  0.00    -0.007 C 
BRANCH  19  23
ATOM     20  O   UNL     1      32.776  -6.178 -20.503  0.00  0.00    -0.274 OA
ATOM     21  N   UNL     1      31.980  -4.720 -22.137  0.00  0.00    -0.235 N 
ATOM     22  N   UNL     1      31.432  -5.569 -24.276  0.00  0.00    -0.397 NA
ATOM     23  C   UNL     1      32.366  -7.077 -22.652  0.00  0.00    +0.123 C 
ATOM     24  C   UNL     1      31.965  -3.611 -21.179  0.00  0.00    +0.100 C 
ATOM     25  C   UNL     1      31.043  -3.216 -23.910  0.00  0.00    +0.177 C 
ATOM     26  C   UNL     1      31.915  -2.234 -21.814  0.00  0.00    +0.025 C 
ATOM     27  C   UNL     1      30.778  -2.204 -22.813  0.00  0.00    +0.040 C 
ATOM     28  C   UNL     1      31.486  -4.593 -23.425  0.00  0.00    +0.192 C 
ATOM     29  C   UNL     1      32.404  -5.961 -21.656  0.00  0.00    +0.237 C 
ATOM     30  C   UNL     1      31.875  -6.806 -23.878  0.00  0.00    +0.097 C 
ATOM     31  C   UNL     1      31.740  -7.850 -24.955  0.00  0.00    +0.062 C 
BRANCH  25  32
ATOM     32  O   UNL     1      29.860  -3.374 -24.681  0.00  0.00    -0.376 OA
ATOM     33  H   UNL     1      29.822  -2.682 -25.359  0.00  0.00    +0.211 HD
ENDBRANCH  25  32
ENDBRANCH  19  23
ENDBRANCH  18  19
ENDBRANCH   1  18
TORSDOF 5
ENDMDL
MODEL 9
REMARK VINA RESULT:     -12.0      3.381     10.495
REMARK  Name = 115237
REMARK  5 active torsions:
REMARK  status: ('A' for Active; 'I' for Inactive)
REMARK    1  A    between atoms: N_1  and  C_18
REMARK    2  A    between atoms: C_2  and  C_11
REMARK    3  A    between atoms: C_18  and  C_19
REMARK    4  A    between atoms: C_19  and  C_23
REMARK    5  A    between atoms: C_25  and  O_32
REMARK                            x       y       z     vdW  Elec       q    Type
REMARK                         _______ _______ _______ _____ _____    ______ ____
ROOT
ATOM      1  N   UNL     1      34.886 -22.053 -19.728  0.00  0.00    +0.387 N 
ATOM      2  C   UNL     1      34.900 -19.300 -20.739  0.00  0.00    +0.039 C 
ATOM      3  C   UNL     1      36.166 -20.170 -20.700  0.00  0.00    -0.017 C 
ATOM      4  C   UNL     1      33.651 -20.196 -20.800  0.00  0.00    -0.017 C 
ATOM      5  C   UNL     1      36.086 -21.216 -19.586  0.00  0.00    -0.077 C 
ATOM      6  C   UNL     1      33.663 -21.241 -19.682  0.00  0.00    -0.077 C 
ATOM      7  H   UNL     1      34.927 -22.508 -20.641  0.00  0.00    -0.080 HD
ENDROOT
BRANCH   2  11
ATOM      8  F   UNL     1      34.439 -12.881 -22.691  0.00  0.00    -0.204 F 
ATOM      9  O   UNL     1      35.122 -17.498 -23.851  0.00  0.00    -0.354 OA
ATOM     10  N   UNL     1      35.151 -18.665 -23.097  0.00  0.00    -0.081 NA
ATOM     11  C   UNL     1      34.933 -18.269 -21.844  0.00  0.00    +0.100 A 
ATOM     12  C   UNL     1      34.759 -16.882 -21.729  0.00  0.00    +0.054 A 
ATOM     13  C   UNL     1      34.888 -16.436 -23.033  0.00  0.00    +0.179 A 
ATOM     14  C   UNL     1      34.513 -15.949 -20.711  0.00  0.00    +0.007 C 
ATOM     15  C   UNL     1      34.791 -15.102 -23.419  0.00  0.00    +0.070 C 
ATOM     16  C   UNL     1      34.408 -14.596 -21.064  0.00  0.00    +0.030 C 
ATOM     17  C   UNL     1      34.545 -14.184 -22.394  0.00  0.00    +0.143 C 
ENDBRANCH   2  11
BRANCH   1  18
ATOM     18  C   UNL     1      34.856 -23.083 -18.690  0.00  0.00    -0.076 C 
BRANCH  18  19
ATOM     19  C   UNL     1      34.845 -22.432 -17.314  0.00  0.00    -0.007 C 
BRANCH  19  23
ATOM     20  O   UNL     1      32.064 -22.407 -17.414  0.00  0.00    -0.274 OA
ATOM     21  N   UNL     1      31.774 -23.968 -15.709  0.00  0.00    -0.235 N 
ATOM     22  N   UNL     1      33.666 -24.744 -14.519  0.00  0.00    -0.397 NA
ATOM     23  C   UNL     1      34.011 -23.227 -16.352  0.00  0.00    +0.123 C 
ATOM     24  C   UNL     1      30.318 -23.895 -15.852  0.00  0.00    +0.100 C 
ATOM     25  C   UNL     1      31.518 -25.585 -13.811  0.00  0.00    +0.177 C 
ATOM     26  C   UNL     1      29.568 -25.063 -15.240  0.00  0.00    +0.025 C 
ATOM     27  C   UNL     1      30.040 -25.246 -13.814  0.00  0.00    +0.040 C 
ATOM     28  C   UNL     1      32.384 -24.706 -14.708  0.00  0.00    +0.192 C 
ATOM     29  C   UNL     1      32.531 -23.156 -16.557  0.00  0.00    +0.237 C 
ATOM     30  C   UNL     1      34.469 -24.001 -15.348  0.00  0.00    +0.097 C 
ATOM     31  C   UNL     1      35.931 -24.122 -15.008  0.00  0.00    +0.062 C 
BRANCH  25  32
ATOM     32  O   UNL     1      32.007 -25.486 -12.481  0.00  0.00    -0.376 OA
ATOM     33  H   UNL     1      32.630 -26.210 -12.311  0.00  0.00    +0.211 HD
ENDBRANCH  25  32
ENDBRANCH  19  23
ENDBRANCH  18  19
ENDBRANCH   1  18
TORSDOF 5
ENDMDL
