MODEL 1
REMARK VINA RESULT:     -11.4      0.000      0.000
REMARK  Name = 10182969
REMARK  5 active torsions:
REMARK  status: ('A' for Active; 'I' for Inactive)
REMARK    1  A    between atoms: N_2  and  C_11
REMARK    2  A    between atoms: N_3  and  C_24
REMARK    3  A    between atoms: C_10  and  C_34
REMARK    4  A    between atoms: C_12  and  N_18
REMARK    5  A    between atoms: C_29  and  O_30
REMARK                            x       y       z     vdW  Elec       q    Type
REMARK                         _______ _______ _______ _____ _____    ______ ____
ROOT
ATOM      1  O   UNL     1      32.058 -22.405 -17.261  0.00  0.00    -0.268 OA
ATOM      2  N   UNL     1      34.397 -22.524 -17.545  0.00  0.00    -0.254 N 
ATOM      3  N   UNL     1      32.342 -24.043 -14.841  0.00  0.00    -0.225 N 
ATOM      4  N   UNL     1      32.824 -24.712 -13.776  0.00  0.00    -0.161 NA
ATOM      5  C   UNL     1      35.796 -23.499 -15.663  0.00  0.00    +0.052 C 
ATOM      6  C   UNL     1      35.620 -23.294 -17.178  0.00  0.00    +0.103 C 
ATOM      7  C   UNL     1      34.505 -23.894 -15.075  0.00  0.00    +0.026 A 
ATOM      8  C   UNL     1      33.312 -23.537 -15.657  0.00  0.00    +0.134 A 
ATOM      9  C   UNL     1      33.163 -22.771 -16.872  0.00  0.00    +0.270 C 
ATOM     10  C   UNL     1      34.149 -24.616 -13.924  0.00  0.00    +0.152 A 
ENDROOT
BRANCH   2  11
ATOM     11  C   UNL     1      34.452 -21.679 -18.712  0.00  0.00    +0.054 C 
ATOM     12  C   UNL     1      34.561 -20.045 -20.963  0.00  0.00    +0.054 C 
ATOM     13  C   UNL     1      35.687 -21.301 -19.233  0.00  0.00    +0.016 C 
ATOM     14  C   UNL     1      33.272 -21.247 -19.308  0.00  0.00    +0.016 C 
ATOM     15  C   UNL     1      35.741 -20.482 -20.361  0.00  0.00    +0.016 C 
ATOM     16  C   UNL     1      33.326 -20.427 -20.436  0.00  0.00    +0.016 C 
BRANCH  12  18
ATOM     17  O   UNL     1      35.310 -17.266 -20.989  0.00  0.00    -0.275 OA
ATOM     18  N   UNL     1      34.616 -19.196 -22.132  0.00  0.00    -0.259 N 
ATOM     19  C   UNL     1      33.972 -19.692 -23.361  0.00  0.00    +0.098 C 
ATOM     20  C   UNL     1      34.502 -19.066 -24.640  0.00  0.00    +0.022 C 
ATOM     21  C   UNL     1      34.485 -17.560 -24.501  0.00  0.00    +0.011 C 
ATOM     22  C   UNL     1      35.386 -17.168 -23.351  0.00  0.00    +0.086 C 
ATOM     23  C   UNL     1      35.079 -17.872 -22.039  0.00  0.00    +0.229 C 
ENDBRANCH  12  18
ENDBRANCH   2  11
BRANCH   3  24
ATOM     24  C   UNL     1      30.961 -23.941 -15.014  0.00  0.00    +0.083 C 
ATOM     25  C   UNL     1      30.252 -25.018 -15.529  0.00  0.00    +0.022 C 
ATOM     26  C   UNL     1      30.312 -22.762 -14.669  0.00  0.00    +0.022 C 
ATOM     27  C   UNL     1      28.872 -24.916 -15.703  0.00  0.00    +0.038 C 
ATOM     28  C   UNL     1      28.932 -22.659 -14.842  0.00  0.00    +0.038 C 
ATOM     29  C   UNL     1      28.212 -23.737 -15.360  0.00  0.00    +0.139 C 
BRANCH  29  30
ATOM     30  O   UNL     1      26.865 -23.637 -15.529  0.00  0.00    -0.471 OA
ATOM     31  C   UNL     1      26.330 -22.329 -15.729  0.00  0.00    +0.252 C 
ENDBRANCH  29  30
ENDBRANCH   3  24
BRANCH  10  34
ATOM     32  O   UNL     1      34.924 -25.006 -11.725  0.00  0.00    -0.269 OA
ATOM     33  N   UNL     1      36.004 -26.087 -13.416  0.00  0.00    -0.324 N 
ATOM     34  C   UNL     1      35.019 -25.213 -12.952  0.00  0.00    +0.262 C 
ATOM     35  H   UNL     1      36.621 -26.515 -12.779  0.00  0.00    +0.145 HD
ATOM     36  H   UNL     1      36.083 -26.273 -14.379  0.00  0.00    +0.145 HD
ENDBRANCH  10  34
TORSDOF 5
ENDMDL
MODEL 2
REMARK VINA RESULT:     -10.9      0.869      1.466
REMARK  Name = 10182969
REMARK  5 active torsions:
REMARK  status: ('A' for Active; 'I' for Inactive)
REMARK    1  A    between atoms: N_2  and  C_11
REMARK    2  A    between atoms: N_3  and  C_24
REMARK    3  A    between atoms: C_10  and  C_34
REMARK    4  A    between atoms: C_12  and  N_18
REMARK    5  A    between atoms: C_29  and  O_30
REMARK                            x       y       z     vdW  Elec       q    Type
REMARK                         _______ _______ _______ _____ _____    ______ ____
ROOT
ATOM      1  O   UNL     1      32.182 -22.267 -17.457  0.00  0.00    -0.268 OA
ATOM      2  N   UNL     1      34.516 -22.379 -17.782  0.00  0.00    -0.254 N 
ATOM      3  N   UNL     1      32.500 -23.995 -15.106  0.00  0.00    -0.225 N 
ATOM      4  N   UNL     1      32.997 -24.705 -14.075  0.00  0.00    -0.161 NA
ATOM      5  C   UNL     1      35.942 -23.427 -15.960  0.00  0.00    +0.052 C 
ATOM      6  C   UNL     1      35.744 -23.164 -17.463  0.00  0.00    +0.103 C 
ATOM      7  C   UNL     1      34.660 -23.841 -15.367  0.00  0.00    +0.026 A 
ATOM      8  C   UNL     1      33.459 -23.461 -15.916  0.00  0.00    +0.134 A 
ATOM      9  C   UNL     1      33.293 -22.649 -17.099  0.00  0.00    +0.270 C 
ATOM     10  C   UNL     1      34.320 -24.605 -14.238  0.00  0.00    +0.152 A 
ENDROOT
BRANCH   2  11
ATOM     11  C   UNL     1      34.556 -21.491 -18.917  0.00  0.00    +0.054 C 
ATOM     12  C   UNL     1      34.631 -19.776 -21.109  0.00  0.00    +0.054 C 
ATOM     13  C   UNL     1      33.367 -21.071 -19.507  0.00  0.00    +0.016 C 
ATOM     14  C   UNL     1      35.781 -21.058 -19.413  0.00  0.00    +0.016 C 
ATOM     15  C   UNL     1      33.405 -20.212 -20.606  0.00  0.00    +0.016 C 
ATOM     16  C   UNL     1      35.820 -20.200 -20.512  0.00  0.00    +0.016 C 
BRANCH  12  18
ATOM     17  O   UNL     1      34.480 -20.571 -23.871  0.00  0.00    -0.275 OA
ATOM     18  N   UNL     1      34.671 -18.886 -22.247  0.00  0.00    -0.259 N 
ATOM     19  C   UNL     1      35.108 -17.499 -22.008  0.00  0.00    +0.098 C 
ATOM     20  C   UNL     1      34.630 -16.505 -23.054  0.00  0.00    +0.022 C 
ATOM     21  C   UNL     1      34.972 -17.029 -24.430  0.00  0.00    +0.011 C 
ATOM     22  C   UNL     1      34.258 -18.346 -24.641  0.00  0.00    +0.086 C 
ATOM     23  C   UNL     1      34.503 -19.379 -23.553  0.00  0.00    +0.229 C 
ENDBRANCH  12  18
ENDBRANCH   2  11
BRANCH   3  24
ATOM     24  C   UNL     1      31.117 -23.884 -15.253  0.00  0.00    +0.083 C 
ATOM     25  C   UNL     1      30.407 -24.911 -15.861  0.00  0.00    +0.022 C 
ATOM     26  C   UNL     1      30.467 -22.747 -14.789  0.00  0.00    +0.022 C 
ATOM     27  C   UNL     1      29.025 -24.800 -16.010  0.00  0.00    +0.038 C 
ATOM     28  C   UNL     1      29.084 -22.636 -14.937  0.00  0.00    +0.038 C 
ATOM     29  C   UNL     1      28.363 -23.663 -15.548  0.00  0.00    +0.139 C 
BRANCH  29  30
ATOM     30  O   UNL     1      27.014 -23.554 -15.692  0.00  0.00    -0.471 OA
ATOM     31  C   UNL     1      26.504 -22.286 -16.102  0.00  0.00    +0.252 C 
ENDBRANCH  29  30
ENDBRANCH   3  24
BRANCH  10  34
ATOM     32  O   UNL     1      35.277 -24.919 -12.100  0.00  0.00    -0.269 OA
ATOM     33  N   UNL     1      36.001 -26.285 -13.774  0.00  0.00    -0.324 N 
ATOM     34  C   UNL     1      35.204 -25.240 -13.304  0.00  0.00    +0.262 C 
ATOM     35  H   UNL     1      36.621 -26.745 -13.162  0.00  0.00    +0.145 HD
ATOM     36  H   UNL     1      35.944 -26.561 -14.717  0.00  0.00    +0.145 HD
ENDBRANCH  10  34
TORSDOF 5
ENDMDL
MODEL 3
REMARK VINA RESULT:     -10.5      2.120      5.121
REMARK  Name = 10182969
REMARK  5 active torsions:
REMARK  status: ('A' for Active; 'I' for Inactive)
REMARK    1  A    between atoms: N_2  and  C_11
REMARK    2  A    between atoms: N_3  and  C_24
REMARK    3  A    between atoms: C_10  and  C_34
REMARK    4  A    between atoms: C_12  and  N_18
REMARK    5  A    between atoms: C_29  and  O_30
REMARK                            x       y       z     vdW  Elec       q    Type
REMARK                         _______ _______ _______ _____ _____    ______ ____
ROOT
ATOM      1  O   UNL     1      35.098 -23.195 -16.575  0.00  0.00    -0.268 OA
ATOM      2  N   UNL     1      32.912 -22.573 -17.207  0.00  0.00    -0.254 N 
ATOM      3  N   UNL     1      33.943 -24.721 -14.349  0.00  0.00    -0.225 N 
ATOM      4  N   UNL     1      33.104 -25.364 -13.514  0.00  0.00    -0.161 NA
ATOM      5  C   UNL     1      30.952 -23.718 -16.067  0.00  0.00    +0.052 C 
ATOM      6  C   UNL     1      31.506 -22.442 -16.724  0.00  0.00    +0.103 C 
ATOM      7  C   UNL     1      31.967 -24.274 -15.157  0.00  0.00    +0.026 A 
ATOM      8  C   UNL     1      33.307 -24.045 -15.350  0.00  0.00    +0.134 A 
ATOM      9  C   UNL     1      33.882 -23.257 -16.415  0.00  0.00    +0.270 C 
ATOM     10  C   UNL     1      31.896 -25.089 -14.014  0.00  0.00    +0.152 A 
ENDROOT
BRANCH   2  11
ATOM     11  C   UNL     1      33.296 -21.833 -18.382  0.00  0.00    +0.054 C 
ATOM     12  C   UNL     1      34.041 -20.403 -20.652  0.00  0.00    +0.054 C 
ATOM     13  C   UNL     1      34.628 -21.827 -18.790  0.00  0.00    +0.016 C 
ATOM     14  C   UNL     1      32.335 -21.131 -19.102  0.00  0.00    +0.016 C 
ATOM     15  C   UNL     1      35.001 -21.111 -19.927  0.00  0.00    +0.016 C 
ATOM     16  C   UNL     1      32.708 -20.413 -20.239  0.00  0.00    +0.016 C 
BRANCH  12  18
ATOM     17  O   UNL     1      35.633 -18.005 -20.681  0.00  0.00    -0.275 OA
ATOM     18  N   UNL     1      34.427 -19.660 -21.831  0.00  0.00    -0.259 N 
ATOM     19  C   UNL     1      33.728 -19.974 -23.089  0.00  0.00    +0.098 C 
ATOM     20  C   UNL     1      34.499 -19.596 -24.343  0.00  0.00    +0.022 C 
ATOM     21  C   UNL     1      34.952 -18.157 -24.233  0.00  0.00    +0.011 C 
ATOM     22  C   UNL     1      35.866 -18.026 -23.035  0.00  0.00    +0.086 C 
ATOM     23  C   UNL     1      35.281 -18.547 -21.733  0.00  0.00    +0.229 C 
ENDBRANCH  12  18
ENDBRANCH   2  11
BRANCH   3  24
ATOM     24  C   UNL     1      35.317 -24.790 -14.122  0.00  0.00    +0.083 C 
ATOM     25  C   UNL     1      35.929 -23.837 -13.317  0.00  0.00    +0.022 C 
ATOM     26  C   UNL     1      36.058 -25.811 -14.704  0.00  0.00    +0.022 C 
ATOM     27  C   UNL     1      37.303 -23.906 -13.091  0.00  0.00    +0.038 C 
ATOM     28  C   UNL     1      37.433 -25.880 -14.478  0.00  0.00    +0.038 C 
ATOM     29  C   UNL     1      38.055 -24.926 -13.671  0.00  0.00    +0.139 C 
BRANCH  29  30
ATOM     30  O   UNL     1      39.397 -24.994 -13.450  0.00  0.00    -0.471 OA
ATOM     31  C   UNL     1      40.176 -25.726 -14.395  0.00  0.00    +0.252 C 
ENDBRANCH  29  30
ENDBRANCH   3  24
BRANCH  10  34
ATOM     32  O   UNL     1      30.451 -25.444 -12.177  0.00  0.00    -0.269 OA
ATOM     33  N   UNL     1      29.841 -26.361 -14.173  0.00  0.00    -0.324 N 
ATOM     34  C   UNL     1      30.724 -25.623 -13.382  0.00  0.00    +0.262 C 
ATOM     35  H   UNL     1      29.027 -26.744 -13.774  0.00  0.00    +0.145 HD
ATOM     36  H   UNL     1      30.034 -26.498 -15.129  0.00  0.00    +0.145 HD
ENDBRANCH  10  34
TORSDOF 5
ENDMDL
MODEL 4
REMARK VINA RESULT:     -10.1      1.561      2.095
REMARK  Name = 10182969
REMARK  5 active torsions:
REMARK  status: ('A' for Active; 'I' for Inactive)
REMARK    1  A    between atoms: N_2  and  C_11
REMARK    2  A    between atoms: N_3  and  C_24
REMARK    3  A    between atoms: C_10  and  C_34
REMARK    4  A    between atoms: C_12  and  N_18
REMARK    5  A    between atoms: C_29  and  O_30
REMARK                            x       y       z     vdW  Elec       q    Type
REMARK                         _______ _______ _______ _____ _____    ______ ____
ROOT
ATOM      1  O   UNL     1      33.570 -22.751 -16.544  0.00  0.00    -0.268 OA
ATOM      2  N   UNL     1      35.858 -22.423 -17.014  0.00  0.00    -0.254 N 
ATOM      3  N   UNL     1      34.349 -24.105 -14.059  0.00  0.00    -0.225 N 
ATOM      4  N   UNL     1      35.031 -24.581 -12.998  0.00  0.00    -0.161 NA
ATOM      5  C   UNL     1      37.554 -22.950 -15.198  0.00  0.00    +0.052 C 
ATOM      6  C   UNL     1      37.236 -22.903 -16.702  0.00  0.00    +0.103 C 
ATOM      7  C   UNL     1      36.414 -23.547 -14.481  0.00  0.00    +0.026 A 
ATOM      8  C   UNL     1      35.137 -23.482 -14.982  0.00  0.00    +0.134 A 
ATOM      9  C   UNL     1      34.751 -22.857 -16.226  0.00  0.00    +0.270 C 
ATOM     10  C   UNL     1      36.295 -24.233 -13.261  0.00  0.00    +0.152 A 
ENDROOT
BRANCH   2  11
ATOM     11  C   UNL     1      35.659 -21.677 -18.231  0.00  0.00    +0.054 C 
ATOM     12  C   UNL     1      35.274 -20.238 -20.583  0.00  0.00    +0.054 C 
ATOM     13  C   UNL     1      34.401 -21.648 -18.825  0.00  0.00    +0.016 C 
ATOM     14  C   UNL     1      36.725 -20.992 -18.804  0.00  0.00    +0.016 C 
ATOM     15  C   UNL     1      34.207 -20.927 -20.004  0.00  0.00    +0.016 C 
ATOM     16  C   UNL     1      36.533 -20.271 -19.983  0.00  0.00    +0.016 C 
BRANCH  12  18
ATOM     17  O   UNL     1      35.320 -17.371 -20.825  0.00  0.00    -0.275 OA
ATOM     18  N   UNL     1      35.075 -19.491 -21.804  0.00  0.00    -0.259 N 
ATOM     19  C   UNL     1      34.525 -20.217 -22.962  0.00  0.00    +0.098 C 
ATOM     20  C   UNL     1      34.837 -19.578 -24.305  0.00  0.00    +0.022 C 
ATOM     21  C   UNL     1      34.457 -18.115 -24.260  0.00  0.00    +0.011 C 
ATOM     22  C   UNL     1      35.279 -17.433 -23.188  0.00  0.00    +0.086 C 
ATOM     23  C   UNL     1      35.204 -18.090 -21.821  0.00  0.00    +0.229 C 
ENDBRANCH  12  18
ENDBRANCH   2  11
BRANCH   3  24
ATOM     24  C   UNL     1      32.968 -24.294 -14.121  0.00  0.00    +0.083 C 
ATOM     25  C   UNL     1      32.439 -25.561 -13.909  0.00  0.00    +0.022 C 
ATOM     26  C   UNL     1      32.140 -23.214 -14.397  0.00  0.00    +0.022 C 
ATOM     27  C   UNL     1      31.058 -25.750 -13.973  0.00  0.00    +0.038 C 
ATOM     28  C   UNL     1      30.759 -23.403 -14.461  0.00  0.00    +0.038 C 
ATOM     29  C   UNL     1      30.219 -24.672 -14.249  0.00  0.00    +0.139 C 
BRANCH  29  30
ATOM     30  O   UNL     1      28.871 -24.856 -14.311  0.00  0.00    -0.471 OA
ATOM     31  C   UNL     1      28.183 -24.258 -15.409  0.00  0.00    +0.252 C 
ENDBRANCH  29  30
ENDBRANCH   3  24
BRANCH  10  34
ATOM     32  O   UNL     1      38.288 -25.323 -12.607  0.00  0.00    -0.269 OA
ATOM     33  N   UNL     1      37.273 -23.994 -11.059  0.00  0.00    -0.324 N 
ATOM     34  C   UNL     1      37.333 -24.568 -12.330  0.00  0.00    +0.262 C 
ATOM     35  H   UNL     1      37.967 -24.200 -10.393  0.00  0.00    +0.145 HD
ATOM     36  H   UNL     1      36.535 -23.384 -10.829  0.00  0.00    +0.145 HD
ENDBRANCH  10  34
TORSDOF 5
ENDMDL
MODEL 5
REMARK VINA RESULT:     -10.0     10.218     17.123
REMARK  Name = 10182969
REMARK  5 active torsions:
REMARK  status: ('A' for Active; 'I' for Inactive)
REMARK    1  A    between atoms: N_2  and  C_11
REMARK    2  A    between atoms: N_3  and  C_24
REMARK    3  A    between atoms: C_10  and  C_34
REMARK    4  A    between atoms: C_12  and  N_18
REMARK    5  A    between atoms: C_29  and  O_30
REMARK                            x       y       z     vdW  Elec       q    Type
REMARK                         _______ _______ _______ _____ _____    ______ ____
ROOT
ATOM      1  O   UNL     1      33.948  -8.312 -24.698  0.00  0.00    -0.268 OA
ATOM      2  N   UNL     1      32.562  -9.047 -22.936  0.00  0.00    -0.254 N 
ATOM      3  N   UNL     1      33.088  -5.564 -24.132  0.00  0.00    -0.225 N 
ATOM      4  N   UNL     1      32.564  -4.457 -23.568  0.00  0.00    -0.161 NA
ATOM      5  C   UNL     1      31.523  -7.305 -21.407  0.00  0.00    +0.052 C 
ATOM      6  C   UNL     1      31.393  -8.679 -22.085  0.00  0.00    +0.103 C 
ATOM      7  C   UNL     1      32.024  -6.327 -22.387  0.00  0.00    +0.026 A 
ATOM      8  C   UNL     1      32.785  -6.714 -23.463  0.00  0.00    +0.134 A 
ATOM      9  C   UNL     1      33.175  -8.069 -23.775  0.00  0.00    +0.270 C 
ATOM     10  C   UNL     1      31.916  -4.931 -22.499  0.00  0.00    +0.152 A 
ENDROOT
BRANCH   2  11
ATOM     11  C   UNL     1      32.922 -10.440 -23.028  0.00  0.00    +0.054 C 
ATOM     12  C   UNL     1      33.618 -13.129 -23.209  0.00  0.00    +0.054 C 
ATOM     13  C   UNL     1      34.100 -10.807 -23.672  0.00  0.00    +0.016 C 
ATOM     14  C   UNL     1      32.090 -11.407 -22.473  0.00  0.00    +0.016 C 
ATOM     15  C   UNL     1      34.449 -12.155 -23.763  0.00  0.00    +0.016 C 
ATOM     16  C   UNL     1      32.438 -12.755 -22.564  0.00  0.00    +0.016 C 
BRANCH  12  18
ATOM     17  O   UNL     1      33.077 -14.859 -25.445  0.00  0.00    -0.275 OA
ATOM     18  N   UNL     1      33.978 -14.526 -23.302  0.00  0.00    -0.259 N 
ATOM     19  C   UNL     1      34.396 -15.203 -22.062  0.00  0.00    +0.098 C 
ATOM     20  C   UNL     1      35.251 -16.439 -22.283  0.00  0.00    +0.022 C 
ATOM     21  C   UNL     1      34.564 -17.347 -23.278  0.00  0.00    +0.011 C 
ATOM     22  C   UNL     1      34.419 -16.609 -24.590  0.00  0.00    +0.086 C 
ATOM     23  C   UNL     1      33.739 -15.255 -24.481  0.00  0.00    +0.229 C 
ENDBRANCH  12  18
ENDBRANCH   2  11
BRANCH   3  24
ATOM     24  C   UNL     1      33.844  -5.442 -25.297  0.00  0.00    +0.083 C 
ATOM     25  C   UNL     1      33.202  -5.319 -26.522  0.00  0.00    +0.022 C 
ATOM     26  C   UNL     1      35.231  -5.446 -25.218  0.00  0.00    +0.022 C 
ATOM     27  C   UNL     1      33.959  -5.199 -27.688  0.00  0.00    +0.038 C 
ATOM     28  C   UNL     1      35.988  -5.325 -26.384  0.00  0.00    +0.038 C 
ATOM     29  C   UNL     1      35.351  -5.202 -27.619  0.00  0.00    +0.139 C 
BRANCH  29  30
ATOM     30  O   UNL     1      36.090  -5.083 -28.756  0.00  0.00    -0.471 OA
ATOM     31  C   UNL     1      37.040  -6.114 -29.024  0.00  0.00    +0.252 C 
ENDBRANCH  29  30
ENDBRANCH   3  24
BRANCH  10  34
ATOM     32  O   UNL     1      30.057  -4.208 -21.231  0.00  0.00    -0.269 OA
ATOM     33  N   UNL     1      31.921  -2.898 -21.183  0.00  0.00    -0.324 N 
ATOM     34  C   UNL     1      31.227  -4.025 -21.625  0.00  0.00    +0.262 C 
ATOM     35  H   UNL     1      31.481  -2.253 -20.583  0.00  0.00    +0.145 HD
ATOM     36  H   UNL     1      32.850  -2.747 -21.472  0.00  0.00    +0.145 HD
ENDBRANCH  10  34
TORSDOF 5
ENDMDL
MODEL 6
REMARK VINA RESULT:      -9.5      9.392     16.295
REMARK  Name = 10182969
REMARK  5 active torsions:
REMARK  status: ('A' for Active; 'I' for Inactive)
REMARK    1  A    between atoms: N_2  and  C_11
REMARK    2  A    between atoms: N_3  and  C_24
REMARK    3  A    between atoms: C_10  and  C_34
REMARK    4  A    between atoms: C_12  and  N_18
REMARK    5  A    between atoms: C_29  and  O_30
REMARK                            x       y       z     vdW  Elec       q    Type
REMARK                         _______ _______ _______ _____ _____    ______ ____
ROOT
ATOM      1  O   UNL     1      34.111  -9.255 -24.270  0.00  0.00    -0.268 OA
ATOM      2  N   UNL     1      32.595 -10.017 -22.632  0.00  0.00    -0.254 N 
ATOM      3  N   UNL     1      33.059  -6.542 -23.877  0.00  0.00    -0.225 N 
ATOM      4  N   UNL     1      32.427  -5.452 -23.402  0.00  0.00    -0.161 NA
ATOM      5  C   UNL     1      31.321  -8.295 -21.267  0.00  0.00    +0.052 C 
ATOM      6  C   UNL     1      31.329  -9.692 -21.912  0.00  0.00    +0.103 C 
ATOM      7  C   UNL     1      31.867  -7.317 -22.223  0.00  0.00    +0.026 A 
ATOM      8  C   UNL     1      32.751  -7.690 -23.206  0.00  0.00    +0.134 A 
ATOM      9  C   UNL     1      33.239  -9.030 -23.436  0.00  0.00    +0.270 C 
ATOM     10  C   UNL     1      31.700  -5.932 -22.388  0.00  0.00    +0.152 A 
ENDROOT
BRANCH   2  11
ATOM     11  C   UNL     1      33.033 -11.390 -22.645  0.00  0.00    +0.054 C 
ATOM     12  C   UNL     1      33.879 -14.043 -22.673  0.00  0.00    +0.054 C 
ATOM     13  C   UNL     1      33.928 -11.821 -23.621  0.00  0.00    +0.016 C 
ATOM     14  C   UNL     1      32.560 -12.276 -21.683  0.00  0.00    +0.016 C 
ATOM     15  C   UNL     1      34.351 -13.150 -23.635  0.00  0.00    +0.016 C 
ATOM     16  C   UNL     1      32.983 -13.606 -21.697  0.00  0.00    +0.016 C 
BRANCH  12  18
ATOM     17  O   UNL     1      34.859 -15.517 -20.403  0.00  0.00    -0.275 OA
ATOM     18  N   UNL     1      34.317 -15.420 -22.686  0.00  0.00    -0.259 N 
ATOM     19  C   UNL     1      34.557 -16.043 -23.999  0.00  0.00    +0.098 C 
ATOM     20  C   UNL     1      34.479 -17.561 -23.995  0.00  0.00    +0.022 C 
ATOM     21  C   UNL     1      35.357 -18.100 -22.889  0.00  0.00    +0.011 C 
ATOM     22  C   UNL     1      34.847 -17.577 -21.564  0.00  0.00    +0.086 C 
ATOM     23  C   UNL     1      34.698 -16.067 -21.496  0.00  0.00    +0.229 C 
ENDBRANCH  12  18
ENDBRANCH   2  11
BRANCH   3  24
ATOM     24  C   UNL     1      33.922  -6.410 -24.965  0.00  0.00    +0.083 C 
ATOM     25  C   UNL     1      33.480  -6.753 -26.237  0.00  0.00    +0.022 C 
ATOM     26  C   UNL     1      35.213  -5.937 -24.764  0.00  0.00    +0.022 C 
ATOM     27  C   UNL     1      34.343  -6.622 -27.324  0.00  0.00    +0.038 C 
ATOM     28  C   UNL     1      36.075  -5.805 -25.852  0.00  0.00    +0.038 C 
ATOM     29  C   UNL     1      35.640  -6.149 -27.133  0.00  0.00    +0.139 C 
BRANCH  29  30
ATOM     30  O   UNL     1      36.482  -6.020 -28.195  0.00  0.00    -0.471 OA
ATOM     31  C   UNL     1      35.902  -6.091 -29.497  0.00  0.00    +0.252 C 
ENDBRANCH  29  30
ENDBRANCH   3  24
BRANCH  10  34
ATOM     32  O   UNL     1      29.801  -5.384 -21.091  0.00  0.00    -0.269 OA
ATOM     33  N   UNL     1      31.340  -3.738 -21.428  0.00  0.00    -0.324 N 
ATOM     34  C   UNL     1      30.881  -5.043 -21.615  0.00  0.00    +0.262 C 
ATOM     35  H   UNL     1      30.806  -3.099 -20.904  0.00  0.00    +0.145 HD
ATOM     36  H   UNL     1      32.198  -3.457 -21.822  0.00  0.00    +0.145 HD
ENDBRANCH  10  34
TORSDOF 5
ENDMDL
