MODEL 1
REMARK VINA RESULT:     -11.9      0.000      0.000
REMARK  Name = 46937091
REMARK  8 active torsions:
REMARK  status: ('A' for Active; 'I' for Inactive)
REMARK    1  A    between atoms: C_1  and  C_4
REMARK    2  A    between atoms: C_1  and  C_18
REMARK    3  A    between atoms: C_10  and  C_12
REMARK    4  A    between atoms: C_18  and  C_19
REMARK    5  A    between atoms: C_19  and  N_20
REMARK    6  A    between atoms: C_19  and  C_30
REMARK    7  A    between atoms: C_24  and  C_27
REMARK    8  A    between atoms: C_30  and  O_32
REMARK                            x       y       z     vdW  Elec       q    Type
REMARK                         _______ _______ _______ _____ _____    ______ ____
ROOT
ATOM      1  C   UNL     1      34.601 -24.844 -14.155  0.00  0.00    +0.031 C 
ENDROOT
BRANCH   1   4
ATOM      2  O   UNL     1      33.659 -23.238 -16.581  0.00  0.00    -0.425 OA
ATOM      3  N   UNL     1      31.528 -22.779 -17.201  0.00  0.00    -0.368 NA
ATOM      4  C   UNL     1      33.175 -24.554 -14.546  0.00  0.00    +0.014 C 
ATOM      5  C   UNL     1      32.822 -23.812 -15.668  0.00  0.00    +0.170 C 
ATOM      6  C   UNL     1      32.108 -25.029 -13.775  0.00  0.00    -0.005 C 
ATOM      7  C   UNL     1      31.519 -23.530 -16.051  0.00  0.00    +0.151 C 
ATOM      8  C   UNL     1      30.779 -24.765 -14.126  0.00  0.00    -0.019 C 
ATOM      9  C   UNL     1      30.462 -24.014 -15.267  0.00  0.00    +0.088 C 
ATOM     10  C   UNL     1      32.809 -22.641 -17.462  0.00  0.00    +0.282 C 
BRANCH  10  12
ATOM     11 CL   UNL     1      35.441 -19.774 -21.960  0.00  0.00    -0.082 Cl
ATOM     12  C   UNL     1      33.446 -21.949 -18.549  0.00  0.00    +0.066 C 
ATOM     13  C   UNL     1      32.686 -21.160 -19.413  0.00  0.00    +0.007 C 
ATOM     14  C   UNL     1      34.822 -22.064 -18.739  0.00  0.00    +0.007 C 
ATOM     15  C   UNL     1      33.303 -20.488 -20.468  0.00  0.00    +0.012 C 
ATOM     16  C   UNL     1      35.439 -21.392 -19.794  0.00  0.00    +0.012 C 
ATOM     17  C   UNL     1      34.680 -20.604 -20.658  0.00  0.00    +0.058 C 
ENDBRANCH  10  12
ENDBRANCH   1   4
BRANCH   1  18
ATOM     18  C   UNL     1      34.897 -24.674 -12.655  0.00  0.00    +0.023 C 
BRANCH  18  19
ATOM     19  C   UNL     1      36.231 -23.952 -12.324  0.00  0.00    +0.087 C 
BRANCH  19  20
ATOM     20  N   UNL     1      37.350 -24.311 -13.293  0.00  0.00    -0.246 NA
ATOM     21  N   UNL     1      38.674 -24.207 -15.073  0.00  0.00    -0.251 NA
ATOM     22  C   UNL     1      38.236 -25.342 -13.161  0.00  0.00    +0.125 C 
ATOM     23  C   UNL     1      37.651 -23.658 -14.455  0.00  0.00    +0.201 C 
ATOM     24  C   UNL     1      39.043 -25.258 -14.271  0.00  0.00    +0.124 C 
BRANCH  24  27
ATOM     25  O   UNL     1      40.558 -26.268 -15.765  0.00  0.00    -0.269 OA
ATOM     26  N   UNL     1      40.759 -26.830 -13.552  0.00  0.00    -0.324 N 
ATOM     27  C   UNL     1      40.133 -26.127 -14.591  0.00  0.00    +0.257 C 
ATOM     28  H   UNL     1      41.512 -27.434 -13.748  0.00  0.00    +0.145 HD
ATOM     29  H   UNL     1      40.446 -26.720 -12.625  0.00  0.00    +0.145 HD
ENDBRANCH  24  27
ENDBRANCH  19  20
BRANCH  19  30
ATOM     30  C   UNL     1      36.619 -24.183 -10.839  0.00  0.00    +0.125 C 
ATOM     31  C   UNL     1      35.447 -24.589  -9.951  0.00  0.00    +0.033 C 
BRANCH  30  32
ATOM     32  O   UNL     1      37.242 -23.023 -10.292  0.00  0.00    -0.383 OA
ATOM     33  H   UNL     1      36.570 -22.343 -10.126  0.00  0.00    +0.210 HD
ENDBRANCH  30  32
ENDBRANCH  19  30
ENDBRANCH  18  19
ENDBRANCH   1  18
TORSDOF 8
ENDMDL
MODEL 2
REMARK VINA RESULT:     -11.6      3.726      7.484
REMARK  Name = 46937091
REMARK  8 active torsions:
REMARK  status: ('A' for Active; 'I' for Inactive)
REMARK    1  A    between atoms: C_1  and  C_4
REMARK    2  A    between atoms: C_1  and  C_18
REMARK    3  A    between atoms: C_10  and  C_12
REMARK    4  A    between atoms: C_18  and  C_19
REMARK    5  A    between atoms: C_19  and  N_20
REMARK    6  A    between atoms: C_19  and  C_30
REMARK    7  A    between atoms: C_24  and  C_27
REMARK    8  A    between atoms: C_30  and  O_32
REMARK                            x       y       z     vdW  Elec       q    Type
REMARK                         _______ _______ _______ _____ _____    ______ ____
ROOT
ATOM      1  C   UNL     1      32.859 -23.572 -16.901  0.00  0.00    +0.031 C 
ENDROOT
BRANCH   1   4
ATOM      2  O   UNL     1      34.597 -21.774 -18.661  0.00  0.00    -0.425 OA
ATOM      3  N   UNL     1      36.788 -21.262 -18.389  0.00  0.00    -0.368 NA
ATOM      4  C   UNL     1      34.316 -23.246 -16.696  0.00  0.00    +0.014 C 
ATOM      5  C   UNL     1      35.044 -22.418 -17.543  0.00  0.00    +0.170 C 
ATOM      6  C   UNL     1      35.026 -23.779 -15.615  0.00  0.00    -0.005 C 
ATOM      7  C   UNL     1      36.384 -22.101 -17.379  0.00  0.00    +0.151 C 
ATOM      8  C   UNL     1      36.380 -23.485 -15.413  0.00  0.00    -0.019 C 
ATOM      9  C   UNL     1      37.081 -22.643 -16.290  0.00  0.00    +0.088 C 
ATOM     10  C   UNL     1      35.697 -21.107 -19.107  0.00  0.00    +0.282 C 
BRANCH  10  12
ATOM     11 CL   UNL     1      34.875 -17.898 -24.047  0.00  0.00    -0.082 Cl
ATOM     12  C   UNL     1      35.498 -20.332 -20.301  0.00  0.00    +0.066 C 
ATOM     13  C   UNL     1      36.518 -19.506 -20.774  0.00  0.00    +0.007 C 
ATOM     14  C   UNL     1      34.286 -20.406 -20.986  0.00  0.00    +0.007 C 
ATOM     15  C   UNL     1      36.325 -18.754 -21.932  0.00  0.00    +0.012 C 
ATOM     16  C   UNL     1      34.093 -19.653 -22.145  0.00  0.00    +0.012 C 
ATOM     17  C   UNL     1      35.113 -18.827 -22.618  0.00  0.00    +0.058 C 
ENDBRANCH  10  12
ENDBRANCH   1   4
BRANCH   1  18
ATOM     18  C   UNL     1      31.958 -23.239 -15.699  0.00  0.00    +0.023 C 
BRANCH  18  19
ATOM     19  C   UNL     1      30.904 -24.322 -15.346  0.00  0.00    +0.087 C 
BRANCH  19  20
ATOM     20  N   UNL     1      29.511 -23.977 -15.855  0.00  0.00    -0.246 NA
ATOM     21  N   UNL     1      27.566 -24.195 -16.905  0.00  0.00    -0.251 NA
ATOM     22  C   UNL     1      28.830 -22.816 -15.625  0.00  0.00    +0.125 C 
ATOM     23  C   UNL     1      28.714 -24.774 -16.628  0.00  0.00    +0.201 C 
ATOM     24  C   UNL     1      27.632 -22.973 -16.282  0.00  0.00    +0.124 C 
BRANCH  24  27
ATOM     25  O   UNL     1      26.451 -21.199 -17.283  0.00  0.00    -0.269 OA
ATOM     26  N   UNL     1      25.612 -22.018 -15.313  0.00  0.00    -0.324 N 
ATOM     27  C   UNL     1      26.568 -22.020 -16.340  0.00  0.00    +0.257 C 
ATOM     28  H   UNL     1      24.870 -21.371 -15.331  0.00  0.00    +0.145 HD
ATOM     29  H   UNL     1      25.683 -22.664 -14.573  0.00  0.00    +0.145 HD
ENDBRANCH  24  27
ENDBRANCH  19  20
BRANCH  19  30
ATOM     30  C   UNL     1      30.933 -24.632 -13.825  0.00  0.00    +0.125 C 
ATOM     31  C   UNL     1      32.292 -25.100 -13.316  0.00  0.00    +0.033 C 
BRANCH  30  32
ATOM     32  O   UNL     1      29.946 -25.604 -13.487  0.00  0.00    -0.383 OA
ATOM     33  H   UNL     1      29.431 -25.830 -14.278  0.00  0.00    +0.210 HD
ENDBRANCH  30  32
ENDBRANCH  19  30
ENDBRANCH  18  19
ENDBRANCH   1  18
TORSDOF 8
ENDMDL
MODEL 3
REMARK VINA RESULT:     -10.3      4.003      8.097
REMARK  Name = 46937091
REMARK  8 active torsions:
REMARK  status: ('A' for Active; 'I' for Inactive)
REMARK    1  A    between atoms: C_1  and  C_4
REMARK    2  A    between atoms: C_1  and  C_18
REMARK    3  A    between atoms: C_10  and  C_12
REMARK    4  A    between atoms: C_18  and  C_19
REMARK    5  A    between atoms: C_19  and  N_20
REMARK    6  A    between atoms: C_19  and  C_30
REMARK    7  A    between atoms: C_24  and  C_27
REMARK    8  A    between atoms: C_30  and  O_32
REMARK                            x       y       z     vdW  Elec       q    Type
REMARK                         _______ _______ _______ _____ _____    ______ ____
ROOT
ATOM      1  C   UNL     1      33.445 -23.126 -18.703  0.00  0.00    +0.031 C 
ENDROOT
BRANCH   1   4
ATOM      2  O   UNL     1      34.952 -24.138 -16.243  0.00  0.00    -0.425 OA
ATOM      3  N   UNL     1      34.187 -24.308 -14.116  0.00  0.00    -0.368 NA
ATOM      4  C   UNL     1      32.911 -23.227 -17.297  0.00  0.00    +0.014 C 
ATOM      5  C   UNL     1      33.659 -23.701 -16.225  0.00  0.00    +0.170 C 
ATOM      6  C   UNL     1      31.600 -22.841 -16.997  0.00  0.00    -0.005 C 
ATOM      7  C   UNL     1      33.194 -23.805 -14.922  0.00  0.00    +0.151 C 
ATOM      8  C   UNL     1      31.092 -22.931 -15.695  0.00  0.00    -0.019 C 
ATOM      9  C   UNL     1      31.878 -23.413 -14.638  0.00  0.00    +0.088 C 
ATOM     10  C   UNL     1      35.191 -24.482 -14.947  0.00  0.00    +0.282 C 
BRANCH  10  12
ATOM     11 CL   UNL     1      40.653 -26.567 -13.857  0.00  0.00    -0.082 Cl
ATOM     12  C   UNL     1      36.510 -24.987 -14.683  0.00  0.00    +0.066 C 
ATOM     13  C   UNL     1      37.612 -24.135 -14.771  0.00  0.00    +0.007 C 
ATOM     14  C   UNL     1      36.690 -26.326 -14.340  0.00  0.00    +0.007 C 
ATOM     15  C   UNL     1      38.893 -24.624 -14.516  0.00  0.00    +0.012 C 
ATOM     16  C   UNL     1      37.971 -26.815 -14.084  0.00  0.00    +0.012 C 
ATOM     17  C   UNL     1      39.073 -25.964 -14.172  0.00  0.00    +0.058 C 
ENDBRANCH  10  12
ENDBRANCH   1   4
BRANCH   1  18
ATOM     18  C   UNL     1      33.480 -21.695 -19.267  0.00  0.00    +0.023 C 
BRANCH  18  19
ATOM     19  C   UNL     1      34.852 -20.978 -19.158  0.00  0.00    +0.087 C 
BRANCH  19  20
ATOM     20  N   UNL     1      35.154 -20.094 -20.362  0.00  0.00    -0.246 NA
ATOM     21  N   UNL     1      36.255 -18.705 -21.699  0.00  0.00    -0.251 NA
ATOM     22  C   UNL     1      34.337 -19.884 -21.436  0.00  0.00    +0.125 C 
ATOM     23  C   UNL     1      36.293 -19.367 -20.564  0.00  0.00    +0.201 C 
ATOM     24  C   UNL     1      35.037 -19.024 -22.248  0.00  0.00    +0.124 C 
BRANCH  24  27
ATOM     25  O   UNL     1      33.832 -19.142 -24.268  0.00  0.00    -0.269 OA
ATOM     26  N   UNL     1      35.027 -17.222 -23.888  0.00  0.00    -0.324 N 
ATOM     27  C   UNL     1      34.598 -18.502 -23.505  0.00  0.00    +0.257 C 
ATOM     28  H   UNL     1      34.737 -16.842 -24.749  0.00  0.00    +0.145 HD
ATOM     29  H   UNL     1      35.617 -16.704 -23.295  0.00  0.00    +0.145 HD
ENDBRANCH  24  27
ENDBRANCH  19  20
BRANCH  19  30
ATOM     30  C   UNL     1      35.980 -22.004 -18.863  0.00  0.00    +0.125 C 
ATOM     31  C   UNL     1      36.778 -21.697 -17.600  0.00  0.00    +0.033 C 
BRANCH  30  32
ATOM     32  O   UNL     1      36.873 -22.107 -19.970  0.00  0.00    -0.383 OA
ATOM     33  H   UNL     1      37.644 -21.539 -19.816  0.00  0.00    +0.210 HD
ENDBRANCH  30  32
ENDBRANCH  19  30
ENDBRANCH  18  19
ENDBRANCH   1  18
TORSDOF 8
ENDMDL
MODEL 4
REMARK VINA RESULT:     -10.3      3.908      7.977
REMARK  Name = 46937091
REMARK  8 active torsions:
REMARK  status: ('A' for Active; 'I' for Inactive)
REMARK    1  A    between atoms: C_1  and  C_4
REMARK    2  A    between atoms: C_1  and  C_18
REMARK    3  A    between atoms: C_10  and  C_12
REMARK    4  A    between atoms: C_18  and  C_19
REMARK    5  A    between atoms: C_19  and  N_20
REMARK    6  A    between atoms: C_19  and  C_30
REMARK    7  A    between atoms: C_24  and  C_27
REMARK    8  A    between atoms: C_30  and  O_32
REMARK                            x       y       z     vdW  Elec       q    Type
REMARK                         _______ _______ _______ _____ _____    ______ ____
ROOT
ATOM      1  C   UNL     1      36.530 -21.545 -17.125  0.00  0.00    +0.031 C 
ENDROOT
BRANCH   1   4
ATOM      2  O   UNL     1      34.172 -23.010 -15.842  0.00  0.00    -0.425 OA
ATOM      3  N   UNL     1      34.240 -24.703 -14.337  0.00  0.00    -0.368 NA
ATOM      4  C   UNL     1      36.604 -22.671 -16.126  0.00  0.00    +0.014 C 
ATOM      5  C   UNL     1      35.483 -23.290 -15.583  0.00  0.00    +0.170 C 
ATOM      6  C   UNL     1      37.838 -23.159 -15.683  0.00  0.00    -0.005 C 
ATOM      7  C   UNL     1      35.521 -24.327 -14.663  0.00  0.00    +0.151 C 
ATOM      8  C   UNL     1      37.920 -24.204 -14.755  0.00  0.00    -0.019 C 
ATOM      9  C   UNL     1      36.766 -24.804 -14.230  0.00  0.00    +0.088 C 
ATOM     10  C   UNL     1      33.496 -23.896 -15.060  0.00  0.00    +0.282 C 
BRANCH  10  12
ATOM     11 CL   UNL     1      27.569 -23.550 -15.408  0.00  0.00    -0.082 Cl
ATOM     12  C   UNL     1      32.063 -23.812 -15.143  0.00  0.00    +0.066 C 
ATOM     13  C   UNL     1      31.467 -23.067 -16.160  0.00  0.00    +0.007 C 
ATOM     14  C   UNL     1      31.270 -24.477 -14.209  0.00  0.00    +0.007 C 
ATOM     15  C   UNL     1      30.077 -22.986 -16.242  0.00  0.00    +0.012 C 
ATOM     16  C   UNL     1      29.880 -24.396 -14.291  0.00  0.00    +0.012 C 
ATOM     17  C   UNL     1      29.283 -23.650 -15.308  0.00  0.00    +0.058 C 
ENDBRANCH  10  12
ENDBRANCH   1   4
BRANCH   1  18
ATOM     18  C   UNL     1      36.860 -21.955 -18.571  0.00  0.00    +0.023 C 
BRANCH  18  19
ATOM     19  C   UNL     1      35.719 -21.727 -19.597  0.00  0.00    +0.087 C 
BRANCH  19  20
ATOM     20  N   UNL     1      35.868 -20.418 -20.362  0.00  0.00    -0.246 NA
ATOM     21  N   UNL     1      36.684 -18.443 -20.967  0.00  0.00    -0.251 NA
ATOM     22  C   UNL     1      35.080 -19.988 -21.391  0.00  0.00    +0.125 C 
ATOM     23  C   UNL     1      36.817 -19.459 -20.143  0.00  0.00    +0.201 C 
ATOM     24  C   UNL     1      35.603 -18.767 -21.749  0.00  0.00    +0.124 C 
BRANCH  24  27
ATOM     25  O   UNL     1      34.409 -18.338 -23.733  0.00  0.00    -0.269 OA
ATOM     26  N   UNL     1      35.435 -16.546 -22.735  0.00  0.00    -0.324 N 
ATOM     27  C   UNL     1      35.119 -17.912 -22.788  0.00  0.00    +0.257 C 
ATOM     28  H   UNL     1      35.112 -15.938 -23.440  0.00  0.00    +0.145 HD
ATOM     29  H   UNL     1      35.979 -16.195 -21.994  0.00  0.00    +0.145 HD
ENDBRANCH  24  27
ENDBRANCH  19  20
BRANCH  19  30
ATOM     30  C   UNL     1      34.334 -21.872 -18.911  0.00  0.00    +0.125 C 
ATOM     31  C   UNL     1      33.756 -23.282 -18.981  0.00  0.00    +0.033 C 
BRANCH  30  32
ATOM     32  O   UNL     1      33.396 -20.952 -19.463  0.00  0.00    -0.383 OA
ATOM     33  H   UNL     1      33.032 -21.316 -20.285  0.00  0.00    +0.210 HD
ENDBRANCH  30  32
ENDBRANCH  19  30
ENDBRANCH  18  19
ENDBRANCH   1  18
TORSDOF 8
ENDMDL
MODEL 5
REMARK VINA RESULT:     -10.3      2.945      5.748
REMARK  Name = 46937091
REMARK  8 active torsions:
REMARK  status: ('A' for Active; 'I' for Inactive)
REMARK    1  A    between atoms: C_1  and  C_4
REMARK    2  A    between atoms: C_1  and  C_18
REMARK    3  A    between atoms: C_10  and  C_12
REMARK    4  A    between atoms: C_18  and  C_19
REMARK    5  A    between atoms: C_19  and  N_20
REMARK    6  A    between atoms: C_19  and  C_30
REMARK    7  A    between atoms: C_24  and  C_27
REMARK    8  A    between atoms: C_30  and  O_32
REMARK                            x       y       z     vdW  Elec       q    Type
REMARK                         _______ _______ _______ _____ _____    ______ ____
ROOT
ATOM      1  C   UNL     1      32.825 -22.759 -18.033  0.00  0.00    +0.031 C 
ENDROOT
BRANCH   1   4
ATOM      2  O   UNL     1      34.434 -20.867 -19.817  0.00  0.00    -0.425 OA
ATOM      3  N   UNL     1      36.643 -20.379 -19.688  0.00  0.00    -0.368 NA
ATOM      4  C   UNL     1      34.296 -22.451 -17.925  0.00  0.00    +0.014 C 
ATOM      5  C   UNL     1      34.962 -21.577 -18.776  0.00  0.00    +0.170 C 
ATOM      6  C   UNL     1      35.084 -23.049 -16.935  0.00  0.00    -0.005 C 
ATOM      7  C   UNL     1      36.314 -21.275 -18.700  0.00  0.00    +0.151 C 
ATOM      8  C   UNL     1      36.452 -22.772 -16.824  0.00  0.00    -0.019 C 
ATOM      9  C   UNL     1      37.089 -21.882 -17.702  0.00  0.00    +0.088 C 
ATOM     10  C   UNL     1      35.502 -20.179 -20.308  0.00  0.00    +0.282 C 
BRANCH  10  12
ATOM     11 CL   UNL     1      34.320 -16.682 -24.971  0.00  0.00    -0.082 Cl
ATOM     12  C   UNL     1      35.216 -19.334 -21.435  0.00  0.00    +0.066 C 
ATOM     13  C   UNL     1      35.512 -17.972 -21.378  0.00  0.00    +0.007 C 
ATOM     14  C   UNL     1      34.643 -19.875 -22.585  0.00  0.00    +0.007 C 
ATOM     15  C   UNL     1      35.235 -17.152 -22.472  0.00  0.00    +0.012 C 
ATOM     16  C   UNL     1      34.365 -19.055 -23.679  0.00  0.00    +0.012 C 
ATOM     17  C   UNL     1      34.662 -17.693 -23.622  0.00  0.00    +0.058 C 
ENDBRANCH  10  12
ENDBRANCH   1   4
BRANCH   1  18
ATOM     18  C   UNL     1      32.305 -23.756 -16.983  0.00  0.00    +0.023 C 
BRANCH  18  19
ATOM     19  C   UNL     1      31.685 -23.111 -15.714  0.00  0.00    +0.087 C 
BRANCH  19  20
ATOM     20  N   UNL     1      32.380 -23.548 -14.431  0.00  0.00    -0.246 NA
ATOM     21  N   UNL     1      32.751 -23.839 -12.261  0.00  0.00    -0.251 NA
ATOM     22  C   UNL     1      33.570 -24.212 -14.342  0.00  0.00    +0.125 C 
ATOM     23  C   UNL     1      31.925 -23.346 -13.158  0.00  0.00    +0.201 C 
ATOM     24  C   UNL     1      33.778 -24.382 -12.993  0.00  0.00    +0.124 C 
BRANCH  24  27
ATOM     25  O   UNL     1      35.009 -25.155 -11.140  0.00  0.00    -0.269 OA
ATOM     26  N   UNL     1      35.903 -25.553 -13.214  0.00  0.00    -0.324 N 
ATOM     27  C   UNL     1      34.900 -25.027 -12.385  0.00  0.00    +0.257 C 
ATOM     28  H   UNL     1      36.684 -26.002 -12.818  0.00  0.00    +0.145 HD
ATOM     29  H   UNL     1      35.825 -25.472 -14.191  0.00  0.00    +0.145 HD
ENDBRANCH  24  27
ENDBRANCH  19  20
BRANCH  19  30
ATOM     30  C   UNL     1      30.150 -23.346 -15.681  0.00  0.00    +0.125 C 
ATOM     31  C   UNL     1      29.753 -24.817 -15.617  0.00  0.00    +0.033 C 
BRANCH  30  32
ATOM     32  O   UNL     1      29.520 -22.737 -16.806  0.00  0.00    -0.383 OA
ATOM     33  H   UNL     1      28.558 -22.745 -16.680  0.00  0.00    +0.210 HD
ENDBRANCH  30  32
ENDBRANCH  19  30
ENDBRANCH  18  19
ENDBRANCH   1  18
TORSDOF 8
ENDMDL
MODEL 6
REMARK VINA RESULT:     -10.2     11.004     14.835
REMARK  Name = 46937091
REMARK  8 active torsions:
REMARK  status: ('A' for Active; 'I' for Inactive)
REMARK    1  A    between atoms: C_1  and  C_4
REMARK    2  A    between atoms: C_1  and  C_18
REMARK    3  A    between atoms: C_10  and  C_12
REMARK    4  A    between atoms: C_18  and  C_19
REMARK    5  A    between atoms: C_19  and  N_20
REMARK    6  A    between atoms: C_19  and  C_30
REMARK    7  A    between atoms: C_24  and  C_27
REMARK    8  A    between atoms: C_30  and  O_32
REMARK                            x       y       z     vdW  Elec       q    Type
REMARK                         _______ _______ _______ _____ _____    ______ ____
ROOT
ATOM      1  C   UNL     1      32.690 -12.076 -23.258  0.00  0.00    +0.031 C 
ENDROOT
BRANCH   1   4
ATOM      2  O   UNL     1      32.159  -9.174 -22.455  0.00  0.00    -0.425 OA
ATOM      3  N   UNL     1      31.632  -8.374 -20.401  0.00  0.00    -0.368 NA
ATOM      4  C   UNL     1      32.339 -11.571 -21.882  0.00  0.00    +0.014 C 
ATOM      5  C   UNL     1      32.112 -10.230 -21.592  0.00  0.00    +0.170 C 
ATOM      6  C   UNL     1      32.225 -12.451 -20.801  0.00  0.00    -0.005 C 
ATOM      7  C   UNL     1      31.788  -9.737 -20.336  0.00  0.00    +0.151 C 
ATOM      8  C   UNL     1      31.900 -11.995 -19.517  0.00  0.00    -0.019 C 
ATOM      9  C   UNL     1      31.677 -10.633 -19.264  0.00  0.00    +0.088 C 
ATOM     10  C   UNL     1      31.862  -8.103 -21.667  0.00  0.00    +0.282 C 
BRANCH  10  12
ATOM     11 CL   UNL     1      31.789  -2.856 -24.466  0.00  0.00    -0.082 Cl
ATOM     12  C   UNL     1      31.844  -6.835 -22.343  0.00  0.00    +0.066 C 
ATOM     13  C   UNL     1      31.702  -6.786 -23.730  0.00  0.00    +0.007 C 
ATOM     14  C   UNL     1      31.968  -5.654 -21.613  0.00  0.00    +0.007 C 
ATOM     15  C   UNL     1      31.685  -5.556 -24.386  0.00  0.00    +0.012 C 
ATOM     16  C   UNL     1      31.951  -4.423 -22.270  0.00  0.00    +0.012 C 
ATOM     17  C   UNL     1      31.809  -4.375 -23.656  0.00  0.00    +0.058 C 
ENDBRANCH  10  12
ENDBRANCH   1   4
BRANCH   1  18
ATOM     18  C   UNL     1      33.887 -13.043 -23.294  0.00  0.00    +0.023 C 
BRANCH  18  19
ATOM     19  C   UNL     1      33.521 -14.535 -23.516  0.00  0.00    +0.087 C 
BRANCH  19  20
ATOM     20  N   UNL     1      34.205 -15.462 -22.519  0.00  0.00    -0.246 NA
ATOM     21  N   UNL     1      34.978 -16.231 -20.585  0.00  0.00    -0.251 NA
ATOM     22  C   UNL     1      34.795 -16.661 -22.803  0.00  0.00    +0.125 C 
ATOM     23  C   UNL     1      34.339 -15.246 -21.176  0.00  0.00    +0.201 C 
ATOM     24  C   UNL     1      35.265 -17.117 -21.594  0.00  0.00    +0.124 C 
BRANCH  24  27
ATOM     25  O   UNL     1      35.538 -19.227 -20.584  0.00  0.00    -0.269 OA
ATOM     26  N   UNL     1      37.164 -18.569 -22.060  0.00  0.00    -0.324 N 
ATOM     27  C   UNL     1      35.966 -18.343 -21.367  0.00  0.00    +0.257 C 
ATOM     28  H   UNL     1      37.664 -19.406 -21.920  0.00  0.00    +0.145 HD
ATOM     29  H   UNL     1      37.506 -17.891 -22.687  0.00  0.00    +0.145 HD
ENDBRANCH  24  27
ENDBRANCH  19  20
BRANCH  19  30
ATOM     30  C   UNL     1      33.773 -14.942 -24.993  0.00  0.00    +0.125 C 
ATOM     31  C   UNL     1      33.429 -13.850 -26.000  0.00  0.00    +0.033 C 
BRANCH  30  32
ATOM     32  O   UNL     1      33.052 -16.128 -25.321  0.00  0.00    -0.383 OA
ATOM     33  H   UNL     1      33.660 -16.779 -25.705  0.00  0.00    +0.210 HD
ENDBRANCH  30  32
ENDBRANCH  19  30
ENDBRANCH  18  19
ENDBRANCH   1  18
TORSDOF 8
ENDMDL
MODEL 7
REMARK VINA RESULT:     -10.2     10.988     14.849
REMARK  Name = 46937091
REMARK  8 active torsions:
REMARK  status: ('A' for Active; 'I' for Inactive)
REMARK    1  A    between atoms: C_1  and  C_4
REMARK    2  A    between atoms: C_1  and  C_18
REMARK    3  A    between atoms: C_10  and  C_12
REMARK    4  A    between atoms: C_18  and  C_19
REMARK    5  A    between atoms: C_19  and  N_20
REMARK    6  A    between atoms: C_19  and  C_30
REMARK    7  A    between atoms: C_24  and  C_27
REMARK    8  A    between atoms: C_30  and  O_32
REMARK                            x       y       z     vdW  Elec       q    Type
REMARK                         _______ _______ _______ _____ _____    ______ ____
ROOT
ATOM      1  C   UNL     1      32.335 -12.308 -23.091  0.00  0.00    +0.031 C 
ENDROOT
BRANCH   1   4
ATOM      2  O   UNL     1      32.913  -9.307 -23.002  0.00  0.00    -0.425 OA
ATOM      3  N   UNL     1      32.714  -7.905 -21.233  0.00  0.00    -0.368 NA
ATOM      4  C   UNL     1      32.192 -11.397 -21.899  0.00  0.00    +0.014 C 
ATOM      5  C   UNL     1      32.476 -10.037 -21.935  0.00  0.00    +0.170 C 
ATOM      6  C   UNL     1      31.757 -11.892 -20.665  0.00  0.00    -0.005 C 
ATOM      7  C   UNL     1      32.355  -9.176 -20.854  0.00  0.00    +0.151 C 
ATOM      8  C   UNL     1      31.622 -11.057 -19.549  0.00  0.00    -0.019 C 
ATOM      9  C   UNL     1      31.917  -9.688 -19.624  0.00  0.00    +0.088 C 
ATOM     10  C   UNL     1      33.031  -8.046 -22.501  0.00  0.00    +0.282 C 
BRANCH  10  12
ATOM     11 CL   UNL     1      34.914  -3.953 -26.384  0.00  0.00    -0.082 Cl
ATOM     12  C   UNL     1      33.485  -7.057 -23.439  0.00  0.00    +0.066 C 
ATOM     13  C   UNL     1      34.827  -7.019 -23.817  0.00  0.00    +0.007 C 
ATOM     14  C   UNL     1      32.585  -6.135 -23.973  0.00  0.00    +0.007 C 
ATOM     15  C   UNL     1      35.269  -6.059 -24.727  0.00  0.00    +0.012 C 
ATOM     16  C   UNL     1      33.027  -5.175 -24.883  0.00  0.00    +0.012 C 
ATOM     17  C   UNL     1      34.369  -5.138 -25.261  0.00  0.00    +0.058 C 
ENDBRANCH  10  12
ENDBRANCH   1   4
BRANCH   1  18
ATOM     18  C   UNL     1      33.626 -13.145 -23.102  0.00  0.00    +0.023 C 
BRANCH  18  19
ATOM     19  C   UNL     1      33.431 -14.653 -23.414  0.00  0.00    +0.087 C 
BRANCH  19  20
ATOM     20  N   UNL     1      34.166 -15.557 -22.433  0.00  0.00    -0.246 NA
ATOM     21  N   UNL     1      35.008 -16.298 -20.516  0.00  0.00    -0.251 NA
ATOM     22  C   UNL     1      34.786 -16.737 -22.729  0.00  0.00    +0.125 C 
ATOM     23  C   UNL     1      34.325 -15.334 -21.093  0.00  0.00    +0.201 C 
ATOM     24  C   UNL     1      35.298 -17.176 -21.530  0.00  0.00    +0.124 C 
BRANCH  24  27
ATOM     25  O   UNL     1      35.642 -19.291 -20.552  0.00  0.00    -0.269 OA
ATOM     26  N   UNL     1      37.251 -18.551 -22.008  0.00  0.00    -0.324 N 
ATOM     27  C   UNL     1      36.042 -18.379 -21.319  0.00  0.00    +0.257 C 
ATOM     28  H   UNL     1      37.780 -19.372 -21.878  0.00  0.00    +0.145 HD
ATOM     29  H   UNL     1      37.572 -17.852 -22.622  0.00  0.00    +0.145 HD
ENDBRANCH  24  27
ENDBRANCH  19  20
BRANCH  19  30
ATOM     30  C   UNL     1      33.786 -14.951 -24.895  0.00  0.00    +0.125 C 
ATOM     31  C   UNL     1      33.482 -13.798 -25.846  0.00  0.00    +0.033 C 
BRANCH  30  32
ATOM     32  O   UNL     1      33.116 -16.125 -25.350  0.00  0.00    -0.383 OA
ATOM     33  H   UNL     1      32.683 -16.561 -24.600  0.00  0.00    +0.210 HD
ENDBRANCH  30  32
ENDBRANCH  19  30
ENDBRANCH  18  19
ENDBRANCH   1  18
TORSDOF 8
ENDMDL
MODEL 8
REMARK VINA RESULT:      -9.9     11.518     15.271
REMARK  Name = 46937091
REMARK  8 active torsions:
REMARK  status: ('A' for Active; 'I' for Inactive)
REMARK    1  A    between atoms: C_1  and  C_4
REMARK    2  A    between atoms: C_1  and  C_18
REMARK    3  A    between atoms: C_10  and  C_12
REMARK    4  A    between atoms: C_18  and  C_19
REMARK    5  A    between atoms: C_19  and  N_20
REMARK    6  A    between atoms: C_19  and  C_30
REMARK    7  A    between atoms: C_24  and  C_27
REMARK    8  A    between atoms: C_30  and  O_32
REMARK                            x       y       z     vdW  Elec       q    Type
REMARK                         _______ _______ _______ _____ _____    ______ ____
ROOT
ATOM      1  C   UNL     1      31.539 -11.541 -22.051  0.00  0.00    +0.031 C 
ENDROOT
BRANCH   1   4
ATOM      2  O   UNL     1      32.657  -8.716 -22.393  0.00  0.00    -0.425 OA
ATOM      3  N   UNL     1      32.869  -7.105 -20.813  0.00  0.00    -0.368 NA
ATOM      4  C   UNL     1      31.668 -10.487 -20.982  0.00  0.00    +0.014 C 
ATOM      5  C   UNL     1      32.189  -9.219 -21.213  0.00  0.00    +0.170 C 
ATOM      6  C   UNL     1      31.259 -10.743 -19.668  0.00  0.00    -0.005 C 
ATOM      7  C   UNL     1      32.320  -8.231 -20.248  0.00  0.00    +0.151 C 
ATOM      8  C   UNL     1      31.375  -9.773 -18.665  0.00  0.00    -0.019 C 
ATOM      9  C   UNL     1      31.905  -8.503 -18.937  0.00  0.00    +0.088 C 
ATOM     10  C   UNL     1      33.044  -7.451 -22.069  0.00  0.00    +0.282 C 
BRANCH  10  12
ATOM     11 CL   UNL     1      35.288  -4.272 -26.567  0.00  0.00    -0.082 Cl
ATOM     12  C   UNL     1      33.587  -6.683 -23.156  0.00  0.00    +0.066 C 
ATOM     13  C   UNL     1      32.821  -5.681 -23.752  0.00  0.00    +0.007 C 
ATOM     14  C   UNL     1      34.878  -6.938 -23.614  0.00  0.00    +0.007 C 
ATOM     15  C   UNL     1      33.347  -4.935 -24.807  0.00  0.00    +0.012 C 
ATOM     16  C   UNL     1      35.405  -6.193 -24.669  0.00  0.00    +0.012 C 
ATOM     17  C   UNL     1      34.639  -5.191 -25.265  0.00  0.00    +0.058 C 
ENDBRANCH  10  12
ENDBRANCH   1   4
BRANCH   1  18
ATOM     18  C   UNL     1      32.186 -12.891 -21.695  0.00  0.00    +0.023 C 
BRANCH  18  19
ATOM     19  C   UNL     1      32.742 -13.693 -22.901  0.00  0.00    +0.087 C 
BRANCH  19  20
ATOM     20  N   UNL     1      33.671 -14.825 -22.478  0.00  0.00    -0.246 NA
ATOM     21  N   UNL     1      35.059 -16.016 -21.220  0.00  0.00    -0.251 NA
ATOM     22  C   UNL     1      33.993 -15.926 -23.218  0.00  0.00    +0.125 C 
ATOM     23  C   UNL     1      34.334 -14.921 -21.287  0.00  0.00    +0.201 C 
ATOM     24  C   UNL     1      34.851 -16.647 -22.421  0.00  0.00    +0.124 C 
BRANCH  24  27
ATOM     25  O   UNL     1      35.038 -18.633 -23.673  0.00  0.00    -0.269 OA
ATOM     26  N   UNL     1      36.610 -18.289 -22.040  0.00  0.00    -0.324 N 
ATOM     27  C   UNL     1      35.470 -17.893 -22.754  0.00  0.00    +0.257 C 
ATOM     28  H   UNL     1      37.053 -19.142 -22.253  0.00  0.00    +0.145 HD
ATOM     29  H   UNL     1      36.968 -17.713 -21.326  0.00  0.00    +0.145 HD
ENDBRANCH  24  27
ENDBRANCH  19  20
BRANCH  19  30
ATOM     30  C   UNL     1      33.388 -12.736 -23.939  0.00  0.00    +0.125 C 
ATOM     31  C   UNL     1      33.518 -13.336 -25.335  0.00  0.00    +0.033 C 
BRANCH  30  32
ATOM     32  O   UNL     1      34.671 -12.299 -23.495  0.00  0.00    -0.383 OA
ATOM     33  H   UNL     1      34.888 -12.736 -22.656  0.00  0.00    +0.210 HD
ENDBRANCH  30  32
ENDBRANCH  19  30
ENDBRANCH  18  19
ENDBRANCH   1  18
TORSDOF 8
ENDMDL
MODEL 9
REMARK VINA RESULT:      -9.7     11.122     15.015
REMARK  Name = 46937091
REMARK  8 active torsions:
REMARK  status: ('A' for Active; 'I' for Inactive)
REMARK    1  A    between atoms: C_1  and  C_4
REMARK    2  A    between atoms: C_1  and  C_18
REMARK    3  A    between atoms: C_10  and  C_12
REMARK    4  A    between atoms: C_18  and  C_19
REMARK    5  A    between atoms: C_19  and  N_20
REMARK    6  A    between atoms: C_19  and  C_30
REMARK    7  A    between atoms: C_24  and  C_27
REMARK    8  A    between atoms: C_30  and  O_32
REMARK                            x       y       z     vdW  Elec       q    Type
REMARK                         _______ _______ _______ _____ _____    ______ ____
ROOT
ATOM      1  C   UNL     1      31.488 -12.154 -21.813  0.00  0.00    +0.031 C 
ENDROOT
BRANCH   1   4
ATOM      2  O   UNL     1      32.669  -9.411 -22.469  0.00  0.00    -0.425 OA
ATOM      3  N   UNL     1      32.947  -7.647 -21.073  0.00  0.00    -0.368 NA
ATOM      4  C   UNL     1      31.660 -10.996 -20.863  0.00  0.00    +0.014 C 
ATOM      5  C   UNL     1      32.209  -9.774 -21.236  0.00  0.00    +0.170 C 
ATOM      6  C   UNL     1      31.268 -11.100 -19.525  0.00  0.00    -0.005 C 
ATOM      7  C   UNL     1      32.380  -8.692 -20.384  0.00  0.00    +0.151 C 
ATOM      8  C   UNL     1      31.423 -10.032 -18.632  0.00  0.00    -0.019 C 
ATOM      9  C   UNL     1      31.981  -8.813 -19.046  0.00  0.00    +0.088 C 
ATOM     10  C   UNL     1      33.092  -8.129 -22.288  0.00  0.00    +0.282 C 
BRANCH  10  12
ATOM     11 CL   UNL     1      35.343  -5.506 -27.127  0.00  0.00    -0.082 Cl
ATOM     12  C   UNL     1      33.636  -7.495 -23.458  0.00  0.00    +0.066 C 
ATOM     13  C   UNL     1      34.911  -6.931 -23.416  0.00  0.00    +0.007 C 
ATOM     14  C   UNL     1      32.889  -7.445 -24.634  0.00  0.00    +0.007 C 
ATOM     15  C   UNL     1      35.438  -6.316 -24.550  0.00  0.00    +0.012 C 
ATOM     16  C   UNL     1      33.417  -6.829 -25.769  0.00  0.00    +0.012 C 
ATOM     17  C   UNL     1      34.692  -6.265 -25.727  0.00  0.00    +0.058 C 
ENDBRANCH  10  12
ENDBRANCH   1   4
BRANCH   1  18
ATOM     18  C   UNL     1      32.726 -13.056 -21.946  0.00  0.00    +0.023 C 
BRANCH  18  19
ATOM     19  C   UNL     1      32.879 -13.765 -23.319  0.00  0.00    +0.087 C 
BRANCH  19  20
ATOM     20  N   UNL     1      33.734 -15.024 -23.239  0.00  0.00    -0.246 NA
ATOM     21  N   UNL     1      34.835 -16.836 -23.899  0.00  0.00    -0.251 NA
ATOM     22  C   UNL     1      34.283 -15.559 -22.110  0.00  0.00    +0.125 C 
ATOM     23  C   UNL     1      34.092 -15.823 -24.289  0.00  0.00    +0.201 C 
ATOM     24  C   UNL     1      34.959 -16.677 -22.541  0.00  0.00    +0.124 C 
BRANCH  24  27
ATOM     25  O   UNL     1      35.549 -17.647 -20.478  0.00  0.00    -0.269 OA
ATOM     26  N   UNL     1      36.623 -18.444 -22.340  0.00  0.00    -0.324 N 
ATOM     27  C   UNL     1      35.703 -17.583 -21.724  0.00  0.00    +0.257 C 
ATOM     28  H   UNL     1      37.147 -19.077 -21.797  0.00  0.00    +0.145 HD
ATOM     29  H   UNL     1      36.745 -18.415 -23.317  0.00  0.00    +0.145 HD
ENDBRANCH  24  27
ENDBRANCH  19  20
BRANCH  19  30
ATOM     30  C   UNL     1      33.376 -12.763 -24.396  0.00  0.00    +0.125 C 
ATOM     31  C   UNL     1      33.513 -13.372 -25.787  0.00  0.00    +0.033 C 
BRANCH  30  32
ATOM     32  O   UNL     1      34.620 -12.182 -24.012  0.00  0.00    -0.383 OA
ATOM     33  H   UNL     1      34.704 -12.208 -23.045  0.00  0.00    +0.210 HD
ENDBRANCH  30  32
ENDBRANCH  19  30
ENDBRANCH  18  19
ENDBRANCH   1  18
TORSDOF 8
ENDMDL
