MODEL 1
REMARK VINA RESULT:     -12.2      0.000      0.000
REMARK  Name = 4566
REMARK  6 active torsions:
REMARK  status: ('A' for Active; 'I' for Inactive)
REMARK    1  A    between atoms: N_4  and  C_14
REMARK    2  A    between atoms: C_6  and  O_26
REMARK    3  A    between atoms: C_15  and  S_20
REMARK    4  A    between atoms: S_20  and  N_23
REMARK    5  A    between atoms: O_26  and  C_27
REMARK    6  A    between atoms: C_27  and  C_28
REMARK                            x       y       z     vdW  Elec       q    Type
REMARK                         _______ _______ _______ _____ _____    ______ ____
ROOT
ATOM      1  N   UNL     1      33.800 -24.026 -15.524  0.00  0.00    -0.293 NA
ATOM      2  N   UNL     1      30.396 -22.995 -16.462  0.00  0.00    -0.266 NA
ATOM      3  N   UNL     1      32.131 -24.391 -13.782  0.00  0.00    -0.316 NA
ATOM      4  N   UNL     1      34.377 -24.956 -13.454  0.00  0.00    -0.238 N 
ATOM      5  N   UNL     1      29.885 -23.705 -14.413  0.00  0.00    -0.296 N 
ATOM      6  C   UNL     1      32.873 -23.515 -16.364  0.00  0.00    +0.288 C 
ATOM      7  C   UNL     1      31.569 -23.437 -15.919  0.00  0.00    +0.215 C 
ATOM      8  C   UNL     1      31.226 -23.874 -14.647  0.00  0.00    +0.196 C 
ATOM      9  C   UNL     1      33.377 -24.427 -14.301  0.00  0.00    +0.207 C 
ATOM     10  C   UNL     1      29.416 -23.176 -15.522  0.00  0.00    +0.164 C 
ATOM     11  H   UNL     1      30.277 -22.616 -17.363  0.00  0.00    +0.126 HD
ATOM     12  H   UNL     1      34.040 -25.240 -12.572  0.00  0.00    +0.166 HD
ATOM     13  H   UNL     1      29.385 -23.932 -13.595  0.00  0.00    +0.150 HD
ENDROOT
BRANCH   4  14
ATOM     14  C   UNL     1      35.758 -25.157 -13.623  0.00  0.00    +0.059 C 
ATOM     15  C   UNL     1      38.503 -25.555 -13.962  0.00  0.00    +0.122 C 
ATOM     16  C   UNL     1      36.673 -24.402 -12.886  0.00  0.00    +0.017 C 
ATOM     17  C   UNL     1      36.222 -26.112 -14.532  0.00  0.00    +0.017 C 
ATOM     18  C   UNL     1      38.044 -24.601 -13.054  0.00  0.00    +0.021 C 
ATOM     19  C   UNL     1      37.593 -26.311 -14.700  0.00  0.00    +0.021 C 
BRANCH  15  20
ATOM     20  S   UNL     1      40.218 -25.804 -14.174  0.00  0.00    +0.057 S 
ATOM     21  O   UNL     1      40.903 -24.550 -13.891  0.00  0.00    -0.153 OA
ATOM     22  O   UNL     1      40.601 -27.014 -13.460  0.00  0.00    -0.153 OA
BRANCH  20  23
ATOM     23  N   UNL     1      40.298 -26.109 -15.853  0.00  0.00    -0.203 NA
ATOM     24  H   UNL     1      40.951 -25.456 -16.287  0.00  0.00    +0.144 HD
ATOM     25  H   UNL     1      39.373 -25.989 -16.265  0.00  0.00    +0.144 HD
ENDBRANCH  20  23
ENDBRANCH  15  20
ENDBRANCH   4  14
BRANCH   6  26
ATOM     26  O   UNL     1      33.269 -23.098 -17.611  0.00  0.00    -0.453 OA
BRANCH  26  27
ATOM     27  C   UNL     1      34.646 -22.826 -17.791  0.00  0.00    +0.208 C 
BRANCH  27  28
ATOM     28  C   UNL     1      34.826 -22.110 -19.129  0.00  0.00    +0.044 C 
ATOM     29  C   UNL     1      33.611 -21.226 -19.440  0.00  0.00    +0.004 C 
ATOM     30  C   UNL     1      36.119 -21.283 -19.130  0.00  0.00    +0.004 C 
ATOM     31  C   UNL     1      33.791 -20.458 -20.747  0.00  0.00    +0.000 C 
ATOM     32  C   UNL     1      36.295 -20.514 -20.439  0.00  0.00    +0.000 C 
ATOM     33  C   UNL     1      35.081 -19.643 -20.747  0.00  0.00    +0.000 C 
ENDBRANCH  27  28
ENDBRANCH  26  27
ENDBRANCH   6  26
TORSDOF 6
ENDMDL
MODEL 2
REMARK VINA RESULT:     -11.7      3.319      7.012
REMARK  Name = 4566
REMARK  6 active torsions:
REMARK  status: ('A' for Active; 'I' for Inactive)
REMARK    1  A    between atoms: N_4  and  C_14
REMARK    2  A    between atoms: C_6  and  O_26
REMARK    3  A    between atoms: C_15  and  S_20
REMARK    4  A    between atoms: S_20  and  N_23
REMARK    5  A    between atoms: O_26  and  C_27
REMARK    6  A    between atoms: C_27  and  C_28
REMARK                            x       y       z     vdW  Elec       q    Type
REMARK                         _______ _______ _______ _____ _____    ______ ____
ROOT
ATOM      1  N   UNL     1      34.582 -24.144 -14.157  0.00  0.00    -0.293 NA
ATOM      2  N   UNL     1      38.123 -24.382 -13.192  0.00  0.00    -0.266 NA
ATOM      3  N   UNL     1      34.942 -24.528 -11.775  0.00  0.00    -0.316 NA
ATOM      4  N   UNL     1      32.788 -24.336 -12.665  0.00  0.00    -0.238 N 
ATOM      5  N   UNL     1      37.287 -24.684 -11.148  0.00  0.00    -0.296 N 
ATOM      6  C   UNL     1      35.911 -24.138 -14.401  0.00  0.00    +0.288 C 
ATOM      7  C   UNL     1      36.765 -24.327 -13.335  0.00  0.00    +0.215 C 
ATOM      8  C   UNL     1      36.269 -24.516 -12.052  0.00  0.00    +0.196 C 
ATOM      9  C   UNL     1      34.185 -24.337 -12.877  0.00  0.00    +0.207 C 
ATOM     10  C   UNL     1      38.387 -24.597 -11.864  0.00  0.00    +0.164 C 
ATOM     11  H   UNL     1      38.789 -24.284 -13.910  0.00  0.00    +0.126 HD
ATOM     12  H   UNL     1      32.529 -24.477 -11.725  0.00  0.00    +0.166 HD
ATOM     13  H   UNL     1      37.210 -24.834 -10.178  0.00  0.00    +0.150 HD
ENDROOT
BRANCH   4  14
ATOM     14  C   UNL     1      31.695 -24.174 -13.534  0.00  0.00    +0.059 C 
ATOM     15  C   UNL     1      29.524 -23.850 -15.263  0.00  0.00    +0.122 C 
ATOM     16  C   UNL     1      30.762 -25.202 -13.690  0.00  0.00    +0.017 C 
ATOM     17  C   UNL     1      31.537 -22.982 -14.248  0.00  0.00    +0.017 C 
ATOM     18  C   UNL     1      29.678 -25.041 -14.553  0.00  0.00    +0.021 C 
ATOM     19  C   UNL     1      30.452 -22.821 -15.111  0.00  0.00    +0.021 C 
BRANCH  15  20
ATOM     20  S   UNL     1      28.167 -23.648 -16.344  0.00  0.00    +0.057 S 
ATOM     21  O   UNL     1      28.476 -22.571 -17.274  0.00  0.00    -0.153 OA
ATOM     22  O   UNL     1      27.785 -24.958 -16.854  0.00  0.00    -0.153 OA
BRANCH  20  23
ATOM     23  N   UNL     1      26.962 -23.112 -15.258  0.00  0.00    -0.203 NA
ATOM     24  H   UNL     1      26.903 -23.757 -14.469  0.00  0.00    +0.144 HD
ATOM     25  H   UNL     1      26.062 -23.079 -15.737  0.00  0.00    +0.144 HD
ENDBRANCH  20  23
ENDBRANCH  15  20
ENDBRANCH   4  14
BRANCH   6  26
ATOM     26  O   UNL     1      36.347 -23.947 -15.689  0.00  0.00    -0.453 OA
BRANCH  26  27
ATOM     27  C   UNL     1      36.353 -22.618 -16.176  0.00  0.00    +0.208 C 
BRANCH  27  28
ATOM     28  C   UNL     1      35.776 -22.619 -17.591  0.00  0.00    +0.044 C 
ATOM     29  C   UNL     1      34.243 -22.560 -17.552  0.00  0.00    +0.004 C 
ATOM     30  C   UNL     1      36.347 -21.453 -18.410  0.00  0.00    +0.004 C 
ATOM     31  C   UNL     1      33.644 -22.505 -18.956  0.00  0.00    +0.000 C 
ATOM     32  C   UNL     1      35.745 -21.401 -19.812  0.00  0.00    +0.000 C 
ATOM     33  C   UNL     1      34.220 -21.350 -19.769  0.00  0.00    +0.000 C 
ENDBRANCH  27  28
ENDBRANCH  26  27
ENDBRANCH   6  26
TORSDOF 6
ENDMDL
MODEL 3
REMARK VINA RESULT:     -11.6      1.298      2.025
REMARK  Name = 4566
REMARK  6 active torsions:
REMARK  status: ('A' for Active; 'I' for Inactive)
REMARK    1  A    between atoms: N_4  and  C_14
REMARK    2  A    between atoms: C_6  and  O_26
REMARK    3  A    between atoms: C_15  and  S_20
REMARK    4  A    between atoms: S_20  and  N_23
REMARK    5  A    between atoms: O_26  and  C_27
REMARK    6  A    between atoms: C_27  and  C_28
REMARK                            x       y       z     vdW  Elec       q    Type
REMARK                         _______ _______ _______ _____ _____    ______ ____
ROOT
ATOM      1  N   UNL     1      32.586 -23.667 -15.723  0.00  0.00    -0.293 NA
ATOM      2  N   UNL     1      29.196 -22.727 -16.797  0.00  0.00    -0.266 NA
ATOM      3  N   UNL     1      30.845 -24.175 -14.090  0.00  0.00    -0.316 NA
ATOM      4  N   UNL     1      33.093 -24.666 -13.667  0.00  0.00    -0.238 N 
ATOM      5  N   UNL     1      28.609 -23.548 -14.811  0.00  0.00    -0.296 N 
ATOM      6  C   UNL     1      31.684 -23.154 -16.589  0.00  0.00    +0.288 C 
ATOM      7  C   UNL     1      30.357 -23.147 -16.212  0.00  0.00    +0.215 C 
ATOM      8  C   UNL     1      29.966 -23.654 -14.980  0.00  0.00    +0.196 C 
ATOM      9  C   UNL     1      32.117 -24.139 -14.543  0.00  0.00    +0.207 C 
ATOM     10  C   UNL     1      28.177 -22.988 -15.919  0.00  0.00    +0.164 C 
ATOM     11  H   UNL     1      29.108 -22.313 -17.686  0.00  0.00    +0.126 HD
ATOM     12  H   UNL     1      32.723 -25.003 -12.818  0.00  0.00    +0.166 HD
ATOM     13  H   UNL     1      28.076 -23.831 -14.032  0.00  0.00    +0.150 HD
ENDROOT
BRANCH   4  14
ATOM     14  C   UNL     1      34.488 -24.805 -13.771  0.00  0.00    +0.059 C 
ATOM     15  C   UNL     1      37.261 -25.082 -13.973  0.00  0.00    +0.122 C 
ATOM     16  C   UNL     1      35.039 -25.682 -14.707  0.00  0.00    +0.017 C 
ATOM     17  C   UNL     1      35.330 -24.067 -12.935  0.00  0.00    +0.017 C 
ATOM     18  C   UNL     1      36.423 -25.821 -14.809  0.00  0.00    +0.021 C 
ATOM     19  C   UNL     1      36.715 -24.205 -13.037  0.00  0.00    +0.021 C 
BRANCH  15  20
ATOM     20  S   UNL     1      38.994 -25.256 -14.101  0.00  0.00    +0.057 S 
ATOM     21  O   UNL     1      39.310 -26.675 -14.165  0.00  0.00    -0.153 OA
ATOM     22  O   UNL     1      39.472 -24.359 -15.144  0.00  0.00    -0.153 OA
BRANCH  20  23
ATOM     23  N   UNL     1      39.494 -24.647 -12.585  0.00  0.00    -0.203 NA
ATOM     24  H   UNL     1      39.099 -25.222 -11.840  0.00  0.00    +0.144 HD
ATOM     25  H   UNL     1      39.168 -23.686 -12.480  0.00  0.00    +0.144 HD
ENDBRANCH  20  23
ENDBRANCH  15  20
ENDBRANCH   4  14
BRANCH   6  26
ATOM     26  O   UNL     1      32.126 -22.666 -17.794  0.00  0.00    -0.453 OA
BRANCH  26  27
ATOM     27  C   UNL     1      33.445 -23.003 -18.180  0.00  0.00    +0.208 C 
BRANCH  27  28
ATOM     28  C   UNL     1      34.108 -21.762 -18.774  0.00  0.00    +0.044 C 
ATOM     29  C   UNL     1      35.529 -22.083 -19.255  0.00  0.00    +0.004 C 
ATOM     30  C   UNL     1      33.260 -21.190 -19.918  0.00  0.00    +0.004 C 
ATOM     31  C   UNL     1      36.194 -20.870 -19.902  0.00  0.00    +0.000 C 
ATOM     32  C   UNL     1      33.928 -19.978 -20.563  0.00  0.00    +0.000 C 
ATOM     33  C   UNL     1      35.344 -20.300 -21.033  0.00  0.00    +0.000 C 
ENDBRANCH  27  28
ENDBRANCH  26  27
ENDBRANCH   6  26
TORSDOF 6
ENDMDL
MODEL 4
REMARK VINA RESULT:     -11.5      3.353      7.038
REMARK  Name = 4566
REMARK  6 active torsions:
REMARK  status: ('A' for Active; 'I' for Inactive)
REMARK    1  A    between atoms: N_4  and  C_14
REMARK    2  A    between atoms: C_6  and  O_26
REMARK    3  A    between atoms: C_15  and  S_20
REMARK    4  A    between atoms: S_20  and  N_23
REMARK    5  A    between atoms: O_26  and  C_27
REMARK    6  A    between atoms: C_27  and  C_28
REMARK                            x       y       z     vdW  Elec       q    Type
REMARK                         _______ _______ _______ _____ _____    ______ ____
ROOT
ATOM      1  N   UNL     1      34.485 -23.777 -15.318  0.00  0.00    -0.293 NA
ATOM      2  N   UNL     1      38.149 -23.983 -15.065  0.00  0.00    -0.266 NA
ATOM      3  N   UNL     1      35.282 -25.035 -13.386  0.00  0.00    -0.316 NA
ATOM      4  N   UNL     1      32.997 -24.746 -13.792  0.00  0.00    -0.238 N 
ATOM      5  N   UNL     1      37.706 -25.165 -13.229  0.00  0.00    -0.296 N 
ATOM      6  C   UNL     1      35.748 -23.525 -15.729  0.00  0.00    +0.288 C 
ATOM      7  C   UNL     1      36.786 -24.027 -14.972  0.00  0.00    +0.215 C 
ATOM      8  C   UNL     1      36.536 -24.766 -13.824  0.00  0.00    +0.196 C 
ATOM      9  C   UNL     1      34.333 -24.507 -14.187  0.00  0.00    +0.207 C 
ATOM     10  C   UNL     1      38.655 -24.679 -13.999  0.00  0.00    +0.164 C 
ATOM     11  H   UNL     1      38.671 -23.534 -15.769  0.00  0.00    +0.126 HD
ATOM     12  H   UNL     1      32.917 -25.278 -12.967  0.00  0.00    +0.166 HD
ATOM     13  H   UNL     1      37.811 -25.697 -12.407  0.00  0.00    +0.150 HD
ENDROOT
BRANCH   4  14
ATOM     14  C   UNL     1      31.760 -24.374 -14.347  0.00  0.00    +0.059 C 
ATOM     15  C   UNL     1      29.303 -23.633 -15.452  0.00  0.00    +0.122 C 
ATOM     16  C   UNL     1      30.645 -25.201 -14.196  0.00  0.00    +0.017 C 
ATOM     17  C   UNL     1      31.641 -23.174 -15.054  0.00  0.00    +0.017 C 
ATOM     18  C   UNL     1      29.418 -24.832 -14.747  0.00  0.00    +0.021 C 
ATOM     19  C   UNL     1      30.414 -22.805 -15.606  0.00  0.00    +0.021 C 
BRANCH  15  20
ATOM     20  S   UNL     1      27.767 -23.171 -16.143  0.00  0.00    +0.057 S 
ATOM     21  O   UNL     1      26.765 -23.184 -15.086  0.00  0.00    -0.153 OA
ATOM     22  O   UNL     1      27.962 -21.969 -16.940  0.00  0.00    -0.153 OA
BRANCH  20  23
ATOM     23  N   UNL     1      27.475 -24.485 -17.195  0.00  0.00    -0.203 NA
ATOM     24  H   UNL     1      27.463 -25.353 -16.660  0.00  0.00    +0.144 HD
ATOM     25  H   UNL     1      28.215 -24.529 -17.897  0.00  0.00    +0.144 HD
ENDBRANCH  20  23
ENDBRANCH  15  20
ENDBRANCH   4  14
BRANCH   6  26
ATOM     26  O   UNL     1      35.937 -22.790 -16.873  0.00  0.00    -0.453 OA
BRANCH  26  27
ATOM     27  C   UNL     1      35.012 -22.986 -17.925  0.00  0.00    +0.208 C 
BRANCH  27  28
ATOM     28  C   UNL     1      34.867 -21.674 -18.694  0.00  0.00    +0.044 C 
ATOM     29  C   UNL     1      36.069 -21.454 -19.623  0.00  0.00    +0.004 C 
ATOM     30  C   UNL     1      33.553 -21.652 -19.486  0.00  0.00    +0.004 C 
ATOM     31  C   UNL     1      35.922 -20.174 -20.442  0.00  0.00    +0.000 C 
ATOM     32  C   UNL     1      33.410 -20.371 -20.306  0.00  0.00    +0.000 C 
ATOM     33  C   UNL     1      34.610 -20.153 -21.222  0.00  0.00    +0.000 C 
ENDBRANCH  27  28
ENDBRANCH  26  27
ENDBRANCH   6  26
TORSDOF 6
ENDMDL
MODEL 5
REMARK VINA RESULT:     -11.0      2.817      5.514
REMARK  Name = 4566
REMARK  6 active torsions:
REMARK  status: ('A' for Active; 'I' for Inactive)
REMARK    1  A    between atoms: N_4  and  C_14
REMARK    2  A    between atoms: C_6  and  O_26
REMARK    3  A    between atoms: C_15  and  S_20
REMARK    4  A    between atoms: S_20  and  N_23
REMARK    5  A    between atoms: O_26  and  C_27
REMARK    6  A    between atoms: C_27  and  C_28
REMARK                            x       y       z     vdW  Elec       q    Type
REMARK                         _______ _______ _______ _____ _____    ______ ____
ROOT
ATOM      1  N   UNL     1      35.013 -22.467 -17.479  0.00  0.00    -0.293 NA
ATOM      2  N   UNL     1      33.806 -20.869 -20.564  0.00  0.00    -0.266 NA
ATOM      3  N   UNL     1      36.697 -21.133 -18.635  0.00  0.00    -0.316 NA
ATOM      4  N   UNL     1      37.192 -22.260 -16.646  0.00  0.00    -0.238 N 
ATOM      5  N   UNL     1      35.888 -20.081 -20.673  0.00  0.00    -0.296 N 
ATOM      6  C   UNL     1      34.081 -22.178 -18.413  0.00  0.00    +0.288 C 
ATOM      7  C   UNL     1      34.449 -21.365 -19.465  0.00  0.00    +0.215 C 
ATOM      8  C   UNL     1      35.740 -20.861 -19.555  0.00  0.00    +0.196 C 
ATOM      9  C   UNL     1      36.247 -21.934 -17.646  0.00  0.00    +0.207 C 
ATOM     10  C   UNL     1      34.710 -20.107 -21.257  0.00  0.00    +0.164 C 
ATOM     11  H   UNL     1      32.867 -21.030 -20.812  0.00  0.00    +0.126 HD
ATOM     12  H   UNL     1      38.079 -21.858 -16.793  0.00  0.00    +0.166 HD
ATOM     13  H   UNL     1      36.698 -19.607 -20.972  0.00  0.00    +0.150 HD
ENDROOT
BRANCH   4  14
ATOM     14  C   UNL     1      37.113 -23.047 -15.484  0.00  0.00    +0.059 C 
ATOM     15  C   UNL     1      36.954 -24.611 -13.174  0.00  0.00    +0.122 C 
ATOM     16  C   UNL     1      38.100 -23.997 -15.210  0.00  0.00    +0.017 C 
ATOM     17  C   UNL     1      36.046 -22.883 -14.597  0.00  0.00    +0.017 C 
ATOM     18  C   UNL     1      38.021 -24.778 -14.057  0.00  0.00    +0.021 C 
ATOM     19  C   UNL     1      35.967 -23.664 -13.443  0.00  0.00    +0.021 C 
BRANCH  15  20
ATOM     20  S   UNL     1      36.855 -25.589 -11.730  0.00  0.00    +0.057 S 
ATOM     21  O   UNL     1      37.043 -26.983 -12.106  0.00  0.00    -0.153 OA
ATOM     22  O   UNL     1      37.707 -24.994 -10.710  0.00  0.00    -0.153 OA
BRANCH  20  23
ATOM     23  N   UNL     1      35.222 -25.352 -11.287  0.00  0.00    -0.203 NA
ATOM     24  H   UNL     1      35.113 -25.523 -10.288  0.00  0.00    +0.144 HD
ATOM     25  H   UNL     1      34.631 -25.999 -11.809  0.00  0.00    +0.144 HD
ENDBRANCH  20  23
ENDBRANCH  15  20
ENDBRANCH   4  14
BRANCH   6  26
ATOM     26  O   UNL     1      32.820 -22.704 -18.275  0.00  0.00    -0.453 OA
BRANCH  26  27
ATOM     27  C   UNL     1      32.670 -23.788 -17.377  0.00  0.00    +0.208 C 
BRANCH  27  28
ATOM     28  C   UNL     1      32.031 -23.267 -16.091  0.00  0.00    +0.044 C 
ATOM     29  C   UNL     1      30.511 -23.471 -16.118  0.00  0.00    +0.004 C 
ATOM     30  C   UNL     1      32.653 -23.947 -14.863  0.00  0.00    +0.004 C 
ATOM     31  C   UNL     1      29.855 -23.006 -14.820  0.00  0.00    +0.000 C 
ATOM     32  C   UNL     1      31.993 -23.480 -13.567  0.00  0.00    +0.000 C 
ATOM     33  C   UNL     1      30.481 -23.678 -13.602  0.00  0.00    +0.000 C 
ENDBRANCH  27  28
ENDBRANCH  26  27
ENDBRANCH   6  26
TORSDOF 6
ENDMDL
MODEL 6
REMARK VINA RESULT:     -10.9      3.440      7.289
REMARK  Name = 4566
REMARK  6 active torsions:
REMARK  status: ('A' for Active; 'I' for Inactive)
REMARK    1  A    between atoms: N_4  and  C_14
REMARK    2  A    between atoms: C_6  and  O_26
REMARK    3  A    between atoms: C_15  and  S_20
REMARK    4  A    between atoms: S_20  and  N_23
REMARK    5  A    between atoms: O_26  and  C_27
REMARK    6  A    between atoms: C_27  and  C_28
REMARK                            x       y       z     vdW  Elec       q    Type
REMARK                         _______ _______ _______ _____ _____    ______ ____
ROOT
ATOM      1  N   UNL     1      33.779 -22.923 -16.157  0.00  0.00    -0.293 NA
ATOM      2  N   UNL     1      32.834 -24.855 -13.174  0.00  0.00    -0.266 NA
ATOM      3  N   UNL     1      31.580 -23.969 -16.302  0.00  0.00    -0.316 NA
ATOM      4  N   UNL     1      32.434 -22.681 -18.058  0.00  0.00    -0.238 N 
ATOM      5  N   UNL     1      30.966 -25.244 -14.324  0.00  0.00    -0.296 N 
ATOM      6  C   UNL     1      33.983 -23.422 -14.918  0.00  0.00    +0.288 C 
ATOM      7  C   UNL     1      32.987 -24.199 -14.362  0.00  0.00    +0.215 C 
ATOM      8  C   UNL     1      31.814 -24.455 -15.059  0.00  0.00    +0.196 C 
ATOM      9  C   UNL     1      32.606 -23.224 -16.764  0.00  0.00    +0.207 C 
ATOM     10  C   UNL     1      31.608 -25.466 -13.198  0.00  0.00    +0.164 C 
ATOM     11  H   UNL     1      33.485 -24.883 -12.435  0.00  0.00    +0.126 HD
ATOM     12  H   UNL     1      31.572 -22.915 -18.474  0.00  0.00    +0.166 HD
ATOM     13  H   UNL     1      30.074 -25.571 -14.583  0.00  0.00    +0.150 HD
ENDROOT
BRANCH   4  14
ATOM     14  C   UNL     1      33.251 -21.873 -18.867  0.00  0.00    +0.059 C 
ATOM     15  C   UNL     1      34.875 -20.264 -20.475  0.00  0.00    +0.122 C 
ATOM     16  C   UNL     1      34.637 -22.047 -18.862  0.00  0.00    +0.017 C 
ATOM     17  C   UNL     1      32.681 -20.890 -19.681  0.00  0.00    +0.017 C 
ATOM     18  C   UNL     1      35.448 -21.245 -19.664  0.00  0.00    +0.021 C 
ATOM     19  C   UNL     1      33.492 -20.087 -20.483  0.00  0.00    +0.021 C 
BRANCH  15  20
ATOM     20  S   UNL     1      35.890 -19.259 -21.479  0.00  0.00    +0.057 S 
ATOM     21  O   UNL     1      37.273 -19.438 -21.059  0.00  0.00    -0.153 OA
ATOM     22  O   UNL     1      35.523 -19.477 -22.871  0.00  0.00    -0.153 OA
BRANCH  20  23
ATOM     23  N   UNL     1      35.368 -17.701 -21.012  0.00  0.00    -0.203 NA
ATOM     24  H   UNL     1      36.081 -17.264 -20.428  0.00  0.00    +0.144 HD
ATOM     25  H   UNL     1      34.498 -17.777 -20.485  0.00  0.00    +0.144 HD
ENDBRANCH  20  23
ENDBRANCH  15  20
ENDBRANCH   4  14
BRANCH   6  26
ATOM     26  O   UNL     1      35.162 -23.138 -14.275  0.00  0.00    -0.453 OA
BRANCH  26  27
ATOM     27  C   UNL     1      36.360 -23.394 -14.984  0.00  0.00    +0.208 C 
BRANCH  27  28
ATOM     28  C   UNL     1      37.174 -24.425 -14.204  0.00  0.00    +0.044 C 
ATOM     29  C   UNL     1      37.226 -24.060 -12.714  0.00  0.00    +0.004 C 
ATOM     30  C   UNL     1      36.597 -25.833 -14.403  0.00  0.00    +0.004 C 
ATOM     31  C   UNL     1      37.990 -25.105 -11.904  0.00  0.00    +0.000 C 
ATOM     32  C   UNL     1      37.362 -26.875 -13.589  0.00  0.00    +0.000 C 
ATOM     33  C   UNL     1      37.418 -26.504 -12.110  0.00  0.00    +0.000 C 
ENDBRANCH  27  28
ENDBRANCH  26  27
ENDBRANCH   6  26
TORSDOF 6
ENDMDL
MODEL 7
REMARK VINA RESULT:     -10.0      3.592      7.517
REMARK  Name = 4566
REMARK  6 active torsions:
REMARK  status: ('A' for Active; 'I' for Inactive)
REMARK    1  A    between atoms: N_4  and  C_14
REMARK    2  A    between atoms: C_6  and  O_26
REMARK    3  A    between atoms: C_15  and  S_20
REMARK    4  A    between atoms: S_20  and  N_23
REMARK    5  A    between atoms: O_26  and  C_27
REMARK    6  A    between atoms: C_27  and  C_28
REMARK                            x       y       z     vdW  Elec       q    Type
REMARK                         _______ _______ _______ _____ _____    ______ ____
ROOT
ATOM      1  N   UNL     1      35.383 -23.645 -15.508  0.00  0.00    -0.293 NA
ATOM      2  N   UNL     1      35.678 -25.632 -12.427  0.00  0.00    -0.266 NA
ATOM      3  N   UNL     1      37.673 -23.916 -14.711  0.00  0.00    -0.316 NA
ATOM      4  N   UNL     1      37.195 -22.698 -16.649  0.00  0.00    -0.238 N 
ATOM      5  N   UNL     1      37.856 -25.230 -12.673  0.00  0.00    -0.296 N 
ATOM      6  C   UNL     1      34.894 -24.374 -14.480  0.00  0.00    +0.288 C 
ATOM      7  C   UNL     1      35.790 -24.877 -13.560  0.00  0.00    +0.215 C 
ATOM      8  C   UNL     1      37.152 -24.641 -13.692  0.00  0.00    +0.196 C 
ATOM      9  C   UNL     1      36.725 -23.464 -15.559  0.00  0.00    +0.207 C 
ATOM     10  C   UNL     1      36.942 -25.816 -11.931  0.00  0.00    +0.164 C 
ATOM     11  H   UNL     1      34.843 -25.979 -12.037  0.00  0.00    +0.126 HD
ATOM     12  H   UNL     1      38.173 -22.583 -16.661  0.00  0.00    +0.166 HD
ATOM     13  H   UNL     1      38.830 -25.216 -12.530  0.00  0.00    +0.150 HD
ENDROOT
BRANCH   4  14
ATOM     14  C   UNL     1      36.539 -22.067 -17.721  0.00  0.00    +0.059 C 
ATOM     15  C   UNL     1      35.238 -20.814 -19.853  0.00  0.00    +0.122 C 
ATOM     16  C   UNL     1      35.233 -22.430 -18.058  0.00  0.00    +0.017 C 
ATOM     17  C   UNL     1      37.192 -21.074 -18.457  0.00  0.00    +0.017 C 
ATOM     18  C   UNL     1      34.583 -21.805 -19.122  0.00  0.00    +0.021 C 
ATOM     19  C   UNL     1      36.541 -20.449 -19.521  0.00  0.00    +0.021 C 
BRANCH  15  20
ATOM     20  S   UNL     1      34.424 -20.032 -21.186  0.00  0.00    +0.057 S 
ATOM     21  O   UNL     1      35.048 -20.470 -22.427  0.00  0.00    -0.153 OA
ATOM     22  O   UNL     1      32.988 -20.187 -21.005  0.00  0.00    -0.153 OA
BRANCH  20  23
ATOM     23  N   UNL     1      34.838 -18.398 -20.906  0.00  0.00    -0.203 NA
ATOM     24  H   UNL     1      34.010 -17.885 -20.604  0.00  0.00    +0.144 HD
ATOM     25  H   UNL     1      35.197 -17.986 -21.768  0.00  0.00    +0.144 HD
ENDBRANCH  20  23
ENDBRANCH  15  20
ENDBRANCH   4  14
BRANCH   6  26
ATOM     26  O   UNL     1      33.538 -24.575 -14.398  0.00  0.00    -0.453 OA
BRANCH  26  27
ATOM     27  C   UNL     1      32.849 -23.901 -13.362  0.00  0.00    +0.208 C 
BRANCH  27  28
ATOM     28  C   UNL     1      31.350 -23.983 -13.645  0.00  0.00    +0.044 C 
ATOM     29  C   UNL     1      30.973 -23.093 -14.837  0.00  0.00    +0.004 C 
ATOM     30  C   UNL     1      30.924 -25.437 -13.892  0.00  0.00    +0.004 C 
ATOM     31  C   UNL     1      29.488 -23.198 -15.174  0.00  0.00    +0.000 C 
ATOM     32  C   UNL     1      29.438 -25.538 -14.230  0.00  0.00    +0.000 C 
ATOM     33  C   UNL     1      29.067 -24.645 -15.411  0.00  0.00    +0.000 C 
ENDBRANCH  27  28
ENDBRANCH  26  27
ENDBRANCH   6  26
TORSDOF 6
ENDMDL
MODEL 8
REMARK VINA RESULT:      -9.5     13.928     17.843
REMARK  Name = 4566
REMARK  6 active torsions:
REMARK  status: ('A' for Active; 'I' for Inactive)
REMARK    1  A    between atoms: N_4  and  C_14
REMARK    2  A    between atoms: C_6  and  O_26
REMARK    3  A    between atoms: C_15  and  S_20
REMARK    4  A    between atoms: S_20  and  N_23
REMARK    5  A    between atoms: O_26  and  C_27
REMARK    6  A    between atoms: C_27  and  C_28
REMARK                            x       y       z     vdW  Elec       q    Type
REMARK                         _______ _______ _______ _____ _____    ______ ____
ROOT
ATOM      1  N   UNL     1      32.699  -8.844 -22.400  0.00  0.00    -0.293 NA
ATOM      2  N   UNL     1      31.515 -10.975 -19.645  0.00  0.00    -0.266 NA
ATOM      3  N   UNL     1      32.676  -7.740 -20.224  0.00  0.00    -0.316 NA
ATOM      4  N   UNL     1      33.383  -6.619 -22.151  0.00  0.00    -0.238 N 
ATOM      5  N   UNL     1      31.891  -9.157 -18.411  0.00  0.00    -0.296 N 
ATOM      6  C   UNL     1      32.230  -9.995 -21.869  0.00  0.00    +0.288 C 
ATOM      7  C   UNL     1      31.979 -10.026 -20.512  0.00  0.00    +0.215 C 
ATOM      8  C   UNL     1      32.206  -8.908 -19.722  0.00  0.00    +0.196 C 
ATOM      9  C   UNL     1      32.891  -7.803 -21.556  0.00  0.00    +0.207 C 
ATOM     10  C   UNL     1      31.480 -10.407 -18.398  0.00  0.00    +0.164 C 
ATOM     11  H   UNL     1      31.254 -11.896 -19.873  0.00  0.00    +0.126 HD
ATOM     12  H   UNL     1      33.514  -5.879 -21.514  0.00  0.00    +0.166 HD
ATOM     13  H   UNL     1      31.959  -8.538 -17.648  0.00  0.00    +0.150 HD
ENDROOT
BRANCH   4  14
ATOM     14  C   UNL     1      33.724  -6.292 -23.476  0.00  0.00    +0.059 C 
ATOM     15  C   UNL     1      34.403  -5.643 -26.107  0.00  0.00    +0.122 C 
ATOM     16  C   UNL     1      32.773  -5.723 -24.326  0.00  0.00    +0.017 C 
ATOM     17  C   UNL     1      35.017  -6.535 -23.948  0.00  0.00    +0.017 C 
ATOM     18  C   UNL     1      33.111  -5.399 -25.640  0.00  0.00    +0.021 C 
ATOM     19  C   UNL     1      35.355  -6.210 -25.262  0.00  0.00    +0.021 C 
BRANCH  15  20
ATOM     20  S   UNL     1      34.826  -5.238 -27.752  0.00  0.00    +0.057 S 
ATOM     21  O   UNL     1      34.009  -4.108 -28.172  0.00  0.00    -0.153 OA
ATOM     22  O   UNL     1      36.277  -5.158 -27.850  0.00  0.00    -0.153 OA
BRANCH  20  23
ATOM     23  N   UNL     1      34.299  -6.637 -28.578  0.00  0.00    -0.203 NA
ATOM     24  H   UNL     1      33.943  -7.316 -27.905  0.00  0.00    +0.144 HD
ATOM     25  H   UNL     1      35.082  -7.045 -29.090  0.00  0.00    +0.144 HD
ENDBRANCH  20  23
ENDBRANCH  15  20
ENDBRANCH   4  14
BRANCH   6  26
ATOM     26  O   UNL     1      32.023 -11.070 -22.697  0.00  0.00    -0.453 OA
BRANCH  26  27
ATOM     27  C   UNL     1      33.134 -11.531 -23.443  0.00  0.00    +0.208 C 
BRANCH  27  28
ATOM     28  C   UNL     1      33.170 -13.057 -23.364  0.00  0.00    +0.044 C 
ATOM     29  C   UNL     1      33.444 -13.665 -24.746  0.00  0.00    +0.004 C 
ATOM     30  C   UNL     1      34.219 -13.521 -22.345  0.00  0.00    +0.004 C 
ATOM     31  C   UNL     1      33.538 -15.188 -24.684  0.00  0.00    +0.000 C 
ATOM     32  C   UNL     1      34.312 -15.045 -22.287  0.00  0.00    +0.000 C 
ATOM     33  C   UNL     1      34.576 -15.646 -23.664  0.00  0.00    +0.000 C 
ENDBRANCH  27  28
ENDBRANCH  26  27
ENDBRANCH   6  26
TORSDOF 6
ENDMDL
MODEL 9
REMARK VINA RESULT:      -9.3      5.444      8.099
REMARK  Name = 4566
REMARK  6 active torsions:
REMARK  status: ('A' for Active; 'I' for Inactive)
REMARK    1  A    between atoms: N_4  and  C_14
REMARK    2  A    between atoms: C_6  and  O_26
REMARK    3  A    between atoms: C_15  and  S_20
REMARK    4  A    between atoms: S_20  and  N_23
REMARK    5  A    between atoms: O_26  and  C_27
REMARK    6  A    between atoms: C_27  and  C_28
REMARK                            x       y       z     vdW  Elec       q    Type
REMARK                         _______ _______ _______ _____ _____    ______ ____
ROOT
ATOM      1  N   UNL     1      35.172 -18.798 -20.819  0.00  0.00    -0.293 NA
ATOM      2  N   UNL     1      34.703 -16.363 -23.535  0.00  0.00    -0.266 NA
ATOM      3  N   UNL     1      34.545 -19.795 -22.955  0.00  0.00    -0.316 NA
ATOM      4  N   UNL     1      34.906 -21.112 -21.056  0.00  0.00    -0.238 N 
ATOM      5  N   UNL     1      34.238 -18.177 -24.744  0.00  0.00    -0.296 N 
ATOM      6  C   UNL     1      35.150 -17.553 -21.345  0.00  0.00    +0.288 C 
ATOM      7  C   UNL     1      34.825 -17.420 -22.679  0.00  0.00    +0.215 C 
ATOM      8  C   UNL     1      34.532 -18.535 -23.453  0.00  0.00    +0.196 C 
ATOM      9  C   UNL     1      34.872 -19.828 -21.645  0.00  0.00    +0.207 C 
ATOM     10  C   UNL     1      34.350 -16.866 -24.760  0.00  0.00    +0.164 C 
ATOM     11  H   UNL     1      34.844 -15.414 -23.314  0.00  0.00    +0.126 HD
ATOM     12  H   UNL     1      34.685 -21.841 -21.680  0.00  0.00    +0.166 HD
ATOM     13  H   UNL     1      33.997 -18.770 -25.492  0.00  0.00    +0.150 HD
ENDROOT
BRANCH   4  14
ATOM     14  C   UNL     1      35.195 -21.552 -19.752  0.00  0.00    +0.059 C 
ATOM     15  C   UNL     1      35.767 -22.430 -17.162  0.00  0.00    +0.122 C 
ATOM     16  C   UNL     1      36.457 -21.328 -19.198  0.00  0.00    +0.017 C 
ATOM     17  C   UNL     1      34.220 -22.218 -19.004  0.00  0.00    +0.017 C 
ATOM     18  C   UNL     1      36.744 -21.766 -17.905  0.00  0.00    +0.021 C 
ATOM     19  C   UNL     1      34.506 -22.656 -17.711  0.00  0.00    +0.021 C 
BRANCH  15  20
ATOM     20  S   UNL     1      36.126 -22.978 -15.543  0.00  0.00    +0.057 S 
ATOM     21  O   UNL     1      36.184 -24.433 -15.553  0.00  0.00    -0.153 OA
ATOM     22  O   UNL     1      37.257 -22.213 -15.036  0.00  0.00    -0.153 OA
BRANCH  20  23
ATOM     23  N   UNL     1      34.716 -22.487 -14.713  0.00  0.00    -0.203 NA
ATOM     24  H   UNL     1      34.601 -21.478 -14.805  0.00  0.00    +0.144 HD
ATOM     25  H   UNL     1      34.801 -22.731 -13.726  0.00  0.00    +0.144 HD
ENDBRANCH  20  23
ENDBRANCH  15  20
ENDBRANCH   4  14
BRANCH   6  26
ATOM     26  O   UNL     1      35.447 -16.486 -20.533  0.00  0.00    -0.453 OA
BRANCH  26  27
ATOM     27  C   UNL     1      34.370 -15.886 -19.839  0.00  0.00    +0.208 C 
BRANCH  27  28
ATOM     28  C   UNL     1      33.618 -14.974 -20.806  0.00  0.00    +0.044 C 
ATOM     29  C   UNL     1      32.513 -14.201 -20.075  0.00  0.00    +0.004 C 
ATOM     30  C   UNL     1      34.586 -14.012 -21.508  0.00  0.00    +0.004 C 
ATOM     31  C   UNL     1      31.780 -13.242 -21.011  0.00  0.00    +0.000 C 
ATOM     32  C   UNL     1      33.850 -13.054 -22.442  0.00  0.00    +0.000 C 
ATOM     33  C   UNL     1      32.747 -12.293 -21.713  0.00  0.00    +0.000 C 
ENDBRANCH  27  28
ENDBRANCH  26  27
ENDBRANCH   6  26
TORSDOF 6
ENDMDL
