MODEL 1
REMARK VINA RESULT:     -11.2      0.000      0.000
REMARK  Name = 447476
REMARK  4 active torsions:
REMARK  status: ('A' for Active; 'I' for Inactive)
REMARK    1  A    between atoms: C_2  and  C_17
REMARK    2  A    between atoms: C_8  and  C_13
REMARK    3  A    between atoms: C_18  and  O_29
REMARK    4  A    between atoms: C_19  and  C_23
REMARK                            x       y       z     vdW  Elec       q    Type
REMARK                         _______ _______ _______ _____ _____    ______ ____
ROOT
ATOM      1  N   UNL     1      33.268 -13.850 -23.948  0.00  0.00    -0.312 N 
ATOM      2  C   UNL     1      33.301 -13.160 -22.766  0.00  0.00    +0.051 C 
ATOM      3  C   UNL     1      34.263 -15.184 -22.462  0.00  0.00    +0.015 C 
ATOM      4  C   UNL     1      33.848 -15.089 -23.792  0.00  0.00    +0.048 C 
ATOM      5  C   UNL     1      33.911 -13.960 -21.826  0.00  0.00    +0.016 C 
ATOM      6  C   UNL     1      34.897 -16.366 -22.032  0.00  0.00    +0.004 C 
ATOM      7  C   UNL     1      34.035 -16.122 -24.717  0.00  0.00    +0.015 C 
ATOM      8  C   UNL     1      35.091 -17.408 -22.947  0.00  0.00    +0.031 C 
ATOM      9  C   UNL     1      34.666 -17.286 -24.267  0.00  0.00    +0.004 C 
ATOM     10  H   UNL     1      32.883 -13.509 -24.788  0.00  0.00    +0.152 HD
ENDROOT
BRANCH   8  13
ATOM     11  N   UNL     1      37.047 -18.621 -22.014  0.00  0.00    -0.343 N 
ATOM     12  N   UNL     1      35.103 -19.784 -22.586  0.00  0.00    -0.285 NA
ATOM     13  C   UNL     1      35.745 -18.632 -22.510  0.00  0.00    +0.117 C 
ATOM     14  H   UNL     1      37.472 -19.460 -21.725  0.00  0.00    +0.144 HD
ATOM     15  H   UNL     1      37.543 -17.771 -21.953  0.00  0.00    +0.144 HD
ATOM     16  H   UNL     1      35.543 -20.613 -22.292  0.00  0.00    +0.188 HD
ENDBRANCH   8  13
BRANCH   2  17
ATOM     17  C   UNL     1      32.760 -11.829 -22.641  0.00  0.00    +0.047 C 
ATOM     18  C   UNL     1      33.420 -10.728 -23.190  0.00  0.00    +0.135 C 
ATOM     19  C   UNL     1      32.878  -9.450 -23.057  0.00  0.00    +0.034 C 
ATOM     20  C   UNL     1      31.555 -11.647 -21.959  0.00  0.00    +0.004 C 
ATOM     21  C   UNL     1      31.674  -9.271 -22.375  0.00  0.00    +0.003 C 
ATOM     22  C   UNL     1      31.013 -10.369 -21.827  0.00  0.00    +0.000 C 
BRANCH  19  23
ATOM     23  C   UNL     1      33.546  -8.293 -23.619  0.00  0.00    +0.003 C 
ATOM     24  C   UNL     1      32.976  -7.619 -24.698  0.00  0.00    +0.000 C 
ATOM     25  C   UNL     1      34.756  -7.858 -23.081  0.00  0.00    +0.000 C 
ATOM     26  C   UNL     1      33.618  -6.505 -25.240  0.00  0.00    +0.000 C 
ATOM     27  C   UNL     1      35.398  -6.745 -23.624  0.00  0.00    +0.000 C 
ATOM     28  C   UNL     1      34.828  -6.069 -24.702  0.00  0.00    +0.000 C 
ENDBRANCH  19  23
BRANCH  18  29
ATOM     29  O   UNL     1      34.599 -10.904 -23.858  0.00  0.00    -0.505 OA
ATOM     30  H   UNL     1      34.830 -10.329 -24.561  0.00  0.00    +0.292 HD
ENDBRANCH  18  29
ENDBRANCH   2  17
TORSDOF 4
ENDMDL
MODEL 2
REMARK VINA RESULT:     -10.8      7.762     13.376
REMARK  Name = 447476
REMARK  4 active torsions:
REMARK  status: ('A' for Active; 'I' for Inactive)
REMARK    1  A    between atoms: C_2  and  C_17
REMARK    2  A    between atoms: C_8  and  C_13
REMARK    3  A    between atoms: C_18  and  O_29
REMARK    4  A    between atoms: C_19  and  C_23
REMARK                            x       y       z     vdW  Elec       q    Type
REMARK                         _______ _______ _______ _____ _____    ______ ____
ROOT
ATOM      1  N   UNL     1      35.843 -21.361 -18.775  0.00  0.00    -0.312 N 
ATOM      2  C   UNL     1      34.601 -21.870 -18.506  0.00  0.00    +0.051 C 
ATOM      3  C   UNL     1      34.481 -20.587 -20.364  0.00  0.00    +0.015 C 
ATOM      4  C   UNL     1      35.800 -20.573 -19.904  0.00  0.00    +0.048 C 
ATOM      5  C   UNL     1      33.736 -21.409 -19.472  0.00  0.00    +0.016 C 
ATOM      6  C   UNL     1      34.159 -19.852 -21.523  0.00  0.00    +0.004 C 
ATOM      7  C   UNL     1      36.816 -19.858 -20.546  0.00  0.00    +0.015 C 
ATOM      8  C   UNL     1      35.166 -19.131 -22.175  0.00  0.00    +0.031 C 
ATOM      9  C   UNL     1      36.473 -19.136 -21.693  0.00  0.00    +0.004 C 
ATOM     10  H   UNL     1      36.650 -21.532 -18.238  0.00  0.00    +0.152 HD
ENDROOT
BRANCH   8  13
ATOM     11  N   UNL     1      35.341 -17.084 -23.570  0.00  0.00    -0.343 N 
ATOM     12  N   UNL     1      34.055 -18.896 -24.293  0.00  0.00    -0.285 NA
ATOM     13  C   UNL     1      34.842 -18.370 -23.372  0.00  0.00    +0.117 C 
ATOM     14  H   UNL     1      35.109 -16.585 -24.385  0.00  0.00    +0.144 HD
ATOM     15  H   UNL     1      35.927 -16.674 -22.892  0.00  0.00    +0.144 HD
ATOM     16  H   UNL     1      33.833 -18.382 -25.103  0.00  0.00    +0.188 HD
ENDBRANCH   8  13
BRANCH   2  17
ATOM     17  C   UNL     1      34.356 -22.732 -17.376  0.00  0.00    +0.047 C 
ATOM     18  C   UNL     1      35.385 -23.083 -16.500  0.00  0.00    +0.135 C 
ATOM     19  C   UNL     1      35.124 -23.918 -15.414  0.00  0.00    +0.034 C 
ATOM     20  C   UNL     1      33.065 -23.220 -17.162  0.00  0.00    +0.004 C 
ATOM     21  C   UNL     1      33.834 -24.403 -15.202  0.00  0.00    +0.003 C 
ATOM     22  C   UNL     1      32.805 -24.054 -16.075  0.00  0.00    +0.000 C 
BRANCH  19  23
ATOM     23  C   UNL     1      36.178 -24.294 -14.492  0.00  0.00    +0.003 C 
ATOM     24  C   UNL     1      36.937 -25.438 -14.735  0.00  0.00    +0.000 C 
ATOM     25  C   UNL     1      36.429 -23.512 -13.366  0.00  0.00    +0.000 C 
ATOM     26  C   UNL     1      37.952 -25.801 -13.849  0.00  0.00    +0.000 C 
ATOM     27  C   UNL     1      37.443 -23.876 -12.480  0.00  0.00    +0.000 C 
ATOM     28  C   UNL     1      38.204 -25.019 -12.722  0.00  0.00    +0.000 C 
ENDBRANCH  19  23
BRANCH  18  29
ATOM     29  O   UNL     1      36.649 -22.606 -16.709  0.00  0.00    -0.505 OA
ATOM     30  H   UNL     1      37.034 -22.014 -16.093  0.00  0.00    +0.292 HD
ENDBRANCH  18  29
ENDBRANCH   2  17
TORSDOF 4
ENDMDL
MODEL 3
REMARK VINA RESULT:     -10.8      2.829      8.992
REMARK  Name = 447476
REMARK  4 active torsions:
REMARK  status: ('A' for Active; 'I' for Inactive)
REMARK    1  A    between atoms: C_2  and  C_17
REMARK    2  A    between atoms: C_8  and  C_13
REMARK    3  A    between atoms: C_18  and  O_29
REMARK    4  A    between atoms: C_19  and  C_23
REMARK                            x       y       z     vdW  Elec       q    Type
REMARK                         _______ _______ _______ _____ _____    ______ ____
ROOT
ATOM      1  N   UNL     1      32.815 -14.014 -21.875  0.00  0.00    -0.312 N 
ATOM      2  C   UNL     1      33.547 -14.257 -23.006  0.00  0.00    +0.051 C 
ATOM      3  C   UNL     1      33.104 -12.043 -22.879  0.00  0.00    +0.015 C 
ATOM      4  C   UNL     1      32.529 -12.671 -21.772  0.00  0.00    +0.048 C 
ATOM      5  C   UNL     1      33.743 -13.056 -23.650  0.00  0.00    +0.016 C 
ATOM      6  C   UNL     1      32.961 -10.648 -23.018  0.00  0.00    +0.004 C 
ATOM      7  C   UNL     1      31.815 -11.972 -20.794  0.00  0.00    +0.015 C 
ATOM      8  C   UNL     1      32.248  -9.936 -22.047  0.00  0.00    +0.031 C 
ATOM      9  C   UNL     1      31.685 -10.589 -20.954  0.00  0.00    +0.004 C 
ATOM     10  H   UNL     1      32.532 -14.702 -21.229  0.00  0.00    +0.152 HD
ENDROOT
BRANCH   8  13
ATOM     11  N   UNL     1      33.055  -7.614 -21.690  0.00  0.00    -0.343 N 
ATOM     12  N   UNL     1      31.026  -8.001 -22.782  0.00  0.00    -0.285 NA
ATOM     13  C   UNL     1      32.094  -8.495 -22.184  0.00  0.00    +0.117 C 
ATOM     14  H   UNL     1      32.932  -6.644 -21.792  0.00  0.00    +0.144 HD
ATOM     15  H   UNL     1      33.858  -7.964 -21.238  0.00  0.00    +0.144 HD
ATOM     16  H   UNL     1      30.920  -7.027 -22.875  0.00  0.00    +0.188 HD
ENDBRANCH   8  13
BRANCH   2  17
ATOM     17  C   UNL     1      33.986 -15.583 -23.364  0.00  0.00    +0.047 C 
ATOM     18  C   UNL     1      34.505 -16.455 -22.404  0.00  0.00    +0.135 C 
ATOM     19  C   UNL     1      34.922 -17.733 -22.774  0.00  0.00    +0.034 C 
ATOM     20  C   UNL     1      33.886 -15.996 -24.695  0.00  0.00    +0.004 C 
ATOM     21  C   UNL     1      34.821 -18.143 -24.103  0.00  0.00    +0.003 C 
ATOM     22  C   UNL     1      34.303 -17.274 -25.063  0.00  0.00    +0.000 C 
BRANCH  19  23
ATOM     23  C   UNL     1      35.463 -18.654 -21.793  0.00  0.00    +0.003 C 
ATOM     24  C   UNL     1      34.642 -19.630 -21.232  0.00  0.00    +0.000 C 
ATOM     25  C   UNL     1      36.801 -18.561 -21.415  0.00  0.00    +0.000 C 
ATOM     26  C   UNL     1      35.162 -20.518 -20.288  0.00  0.00    +0.000 C 
ATOM     27  C   UNL     1      37.320 -19.447 -20.472  0.00  0.00    +0.000 C 
ATOM     28  C   UNL     1      36.500 -20.426 -19.909  0.00  0.00    +0.000 C 
ENDBRANCH  19  23
BRANCH  18  29
ATOM     29  O   UNL     1      34.602 -16.053 -21.102  0.00  0.00    -0.505 OA
ATOM     30  H   UNL     1      35.296 -15.482 -20.837  0.00  0.00    +0.292 HD
ENDBRANCH  18  29
ENDBRANCH   2  17
TORSDOF 4
ENDMDL
MODEL 4
REMARK VINA RESULT:     -10.3      3.496      8.968
REMARK  Name = 447476
REMARK  4 active torsions:
REMARK  status: ('A' for Active; 'I' for Inactive)
REMARK    1  A    between atoms: C_2  and  C_17
REMARK    2  A    between atoms: C_8  and  C_13
REMARK    3  A    between atoms: C_18  and  O_29
REMARK    4  A    between atoms: C_19  and  C_23
REMARK                            x       y       z     vdW  Elec       q    Type
REMARK                         _______ _______ _______ _____ _____    ______ ____
ROOT
ATOM      1  N   UNL     1      33.475  -8.846 -22.947  0.00  0.00    -0.312 N 
ATOM      2  C   UNL     1      32.293  -9.471 -22.651  0.00  0.00    +0.051 C 
ATOM      3  C   UNL     1      31.850  -7.400 -23.443  0.00  0.00    +0.015 C 
ATOM      4  C   UNL     1      33.235  -7.580 -23.432  0.00  0.00    +0.048 C 
ATOM      5  C   UNL     1      31.269  -8.601 -22.948  0.00  0.00    +0.016 C 
ATOM      6  C   UNL     1      31.328  -6.174 -23.903  0.00  0.00    +0.004 C 
ATOM      7  C   UNL     1      34.128  -6.591 -23.858  0.00  0.00    +0.015 C 
ATOM      8  C   UNL     1      32.210  -5.176 -24.332  0.00  0.00    +0.031 C 
ATOM      9  C   UNL     1      33.588  -5.383 -24.309  0.00  0.00    +0.004 C 
ATOM     10  H   UNL     1      34.368  -9.244 -22.829  0.00  0.00    +0.152 HD
ENDROOT
BRANCH   8  13
ATOM     11  N   UNL     1      30.525  -3.354 -24.257  0.00  0.00    -0.343 N 
ATOM     12  N   UNL     1      32.294  -3.260 -25.780  0.00  0.00    -0.285 NA
ATOM     13  C   UNL     1      31.680  -3.907 -24.807  0.00  0.00    +0.117 C 
ATOM     14  H   UNL     1      30.182  -2.495 -24.594  0.00  0.00    +0.144 HD
ATOM     15  H   UNL     1      30.051  -3.823 -23.532  0.00  0.00    +0.144 HD
ATOM     16  H   UNL     1      31.936  -2.402 -26.104  0.00  0.00    +0.188 HD
ENDBRANCH   8  13
BRANCH   2  17
ATOM     17  C   UNL     1      32.249 -10.812 -22.124  0.00  0.00    +0.047 C 
ATOM     18  C   UNL     1      32.885 -11.867 -22.782  0.00  0.00    +0.135 C 
ATOM     19  C   UNL     1      32.828 -13.157 -22.253  0.00  0.00    +0.034 C 
ATOM     20  C   UNL     1      31.555 -11.053 -20.936  0.00  0.00    +0.004 C 
ATOM     21  C   UNL     1      32.136 -13.394 -21.065  0.00  0.00    +0.003 C 
ATOM     22  C   UNL     1      31.500 -12.342 -20.407  0.00  0.00    +0.000 C 
BRANCH  19  23
ATOM     23  C   UNL     1      33.483 -14.266 -22.918  0.00  0.00    +0.003 C 
ATOM     24  C   UNL     1      34.438 -15.018 -22.237  0.00  0.00    +0.000 C 
ATOM     25  C   UNL     1      33.155 -14.577 -24.237  0.00  0.00    +0.000 C 
ATOM     26  C   UNL     1      35.068 -16.086 -22.877  0.00  0.00    +0.000 C 
ATOM     27  C   UNL     1      33.786 -15.645 -24.876  0.00  0.00    +0.000 C 
ATOM     28  C   UNL     1      34.741 -16.399 -24.196  0.00  0.00    +0.000 C 
ENDBRANCH  19  23
BRANCH  18  29
ATOM     29  O   UNL     1      33.565 -11.634 -23.944  0.00  0.00    -0.505 OA
ATOM     30  H   UNL     1      33.199 -11.904 -24.763  0.00  0.00    +0.292 HD
ENDBRANCH  18  29
ENDBRANCH   2  17
TORSDOF 4
ENDMDL
MODEL 5
REMARK VINA RESULT:     -10.3      3.752      8.934
REMARK  Name = 447476
REMARK  4 active torsions:
REMARK  status: ('A' for Active; 'I' for Inactive)
REMARK    1  A    between atoms: C_2  and  C_17
REMARK    2  A    between atoms: C_8  and  C_13
REMARK    3  A    between atoms: C_18  and  O_29
REMARK    4  A    between atoms: C_19  and  C_23
REMARK                            x       y       z     vdW  Elec       q    Type
REMARK                         _______ _______ _______ _____ _____    ______ ____
ROOT
ATOM      1  N   UNL     1      31.790  -9.320 -23.150  0.00  0.00    -0.312 N 
ATOM      2  C   UNL     1      31.953  -9.727 -21.853  0.00  0.00    +0.051 C 
ATOM      3  C   UNL     1      31.735  -7.477 -21.894  0.00  0.00    +0.015 C 
ATOM      4  C   UNL     1      31.655  -7.950 -23.205  0.00  0.00    +0.048 C 
ATOM      5  C   UNL     1      31.923  -8.609 -21.051  0.00  0.00    +0.016 C 
ATOM      6  C   UNL     1      31.624  -6.091 -21.665  0.00  0.00    +0.004 C 
ATOM      7  C   UNL     1      31.470  -7.105 -24.304  0.00  0.00    +0.015 C 
ATOM      8  C   UNL     1      31.439  -5.232 -22.755  0.00  0.00    +0.031 C 
ATOM      9  C   UNL     1      31.364  -5.733 -24.052  0.00  0.00    +0.004 C 
ATOM     10  H   UNL     1      31.773  -9.920 -23.930  0.00  0.00    +0.152 HD
ENDROOT
BRANCH   8  13
ATOM     11  N   UNL     1      31.832  -3.207 -21.372  0.00  0.00    -0.343 N 
ATOM     12  N   UNL     1      30.726  -3.037 -23.423  0.00  0.00    -0.285 NA
ATOM     13  C   UNL     1      31.325  -3.800 -22.527  0.00  0.00    +0.117 C 
ATOM     14  H   UNL     1      31.743  -2.236 -21.237  0.00  0.00    +0.144 HD
ATOM     15  H   UNL     1      32.279  -3.761 -20.690  0.00  0.00    +0.144 HD
ATOM     16  H   UNL     1      30.647  -2.068 -23.271  0.00  0.00    +0.188 HD
ENDBRANCH   8  13
BRANCH   2  17
ATOM     17  C   UNL     1      32.117 -11.116 -21.502  0.00  0.00    +0.047 C 
ATOM     18  C   UNL     1      32.707 -12.019 -22.389  0.00  0.00    +0.135 C 
ATOM     19  C   UNL     1      32.855 -13.358 -22.028  0.00  0.00    +0.034 C 
ATOM     20  C   UNL     1      31.678 -11.558 -20.252  0.00  0.00    +0.004 C 
ATOM     21  C   UNL     1      32.416 -13.796 -20.779  0.00  0.00    +0.003 C 
ATOM     22  C   UNL     1      31.827 -12.896 -19.891  0.00  0.00    +0.000 C 
BRANCH  19  23
ATOM     23  C   UNL     1      33.465 -14.312 -22.934  0.00  0.00    +0.003 C 
ATOM     24  C   UNL     1      34.496 -15.136 -22.483  0.00  0.00    +0.000 C 
ATOM     25  C   UNL     1      33.020 -14.403 -24.251  0.00  0.00    +0.000 C 
ATOM     26  C   UNL     1      35.083 -16.055 -23.354  0.00  0.00    +0.000 C 
ATOM     27  C   UNL     1      33.608 -15.321 -25.121  0.00  0.00    +0.000 C 
ATOM     28  C   UNL     1      34.638 -16.147 -24.672  0.00  0.00    +0.000 C 
ENDBRANCH  19  23
BRANCH  18  29
ATOM     29  O   UNL     1      33.138 -11.589 -23.612  0.00  0.00    -0.505 OA
ATOM     30  H   UNL     1      32.729 -11.908 -24.393  0.00  0.00    +0.292 HD
ENDBRANCH  18  29
ENDBRANCH   2  17
TORSDOF 4
ENDMDL
MODEL 6
REMARK VINA RESULT:     -10.1      7.605     12.950
REMARK  Name = 447476
REMARK  4 active torsions:
REMARK  status: ('A' for Active; 'I' for Inactive)
REMARK    1  A    between atoms: C_2  and  C_17
REMARK    2  A    between atoms: C_8  and  C_13
REMARK    3  A    between atoms: C_18  and  O_29
REMARK    4  A    between atoms: C_19  and  C_23
REMARK                            x       y       z     vdW  Elec       q    Type
REMARK                         _______ _______ _______ _____ _____    ______ ____
ROOT
ATOM      1  N   UNL     1      35.819 -21.122 -19.054  0.00  0.00    -0.312 N 
ATOM      2  C   UNL     1      34.583 -21.628 -18.752  0.00  0.00    +0.051 C 
ATOM      3  C   UNL     1      34.425 -20.379 -20.630  0.00  0.00    +0.015 C 
ATOM      4  C   UNL     1      35.752 -20.355 -20.196  0.00  0.00    +0.048 C 
ATOM      5  C   UNL     1      33.699 -21.186 -19.709  0.00  0.00    +0.016 C 
ATOM      6  C   UNL     1      34.079 -19.666 -21.795  0.00  0.00    +0.004 C 
ATOM      7  C   UNL     1      36.755 -19.650 -20.870  0.00  0.00    +0.015 C 
ATOM      8  C   UNL     1      35.072 -18.956 -22.480  0.00  0.00    +0.031 C 
ATOM      9  C   UNL     1      36.388 -18.949 -22.023  0.00  0.00    +0.004 C 
ATOM     10  H   UNL     1      36.637 -21.283 -18.530  0.00  0.00    +0.152 HD
ENDROOT
BRANCH   8  13
ATOM     11  N   UNL     1      35.201 -16.926 -23.905  0.00  0.00    -0.343 N 
ATOM     12  N   UNL     1      33.933 -18.766 -24.587  0.00  0.00    -0.285 NA
ATOM     13  C   UNL     1      34.722 -18.216 -23.683  0.00  0.00    +0.117 C 
ATOM     14  H   UNL     1      34.952 -16.443 -24.726  0.00  0.00    +0.144 HD
ATOM     15  H   UNL     1      35.789 -16.498 -23.240  0.00  0.00    +0.144 HD
ATOM     16  H   UNL     1      33.695 -18.268 -25.402  0.00  0.00    +0.188 HD
ENDBRANCH   8  13
BRANCH   2  17
ATOM     17  C   UNL     1      34.362 -22.471 -17.603  0.00  0.00    +0.047 C 
ATOM     18  C   UNL     1      33.071 -22.826 -17.207  0.00  0.00    +0.135 C 
ATOM     19  C   UNL     1      32.882 -23.642 -16.091  0.00  0.00    +0.034 C 
ATOM     20  C   UNL     1      35.463 -22.935 -16.878  0.00  0.00    +0.004 C 
ATOM     21  C   UNL     1      33.982 -24.105 -15.370  0.00  0.00    +0.003 C 
ATOM     22  C   UNL     1      35.272 -23.751 -15.764  0.00  0.00    +0.000 C 
BRANCH  19  23
ATOM     23  C   UNL     1      31.550 -24.024 -15.664  0.00  0.00    +0.003 C 
ATOM     24  C   UNL     1      31.382 -25.109 -14.805  0.00  0.00    +0.000 C 
ATOM     25  C   UNL     1      30.443 -23.306 -16.111  0.00  0.00    +0.000 C 
ATOM     26  C   UNL     1      30.100 -25.477 -14.392  0.00  0.00    +0.000 C 
ATOM     27  C   UNL     1      29.162 -23.674 -15.699  0.00  0.00    +0.000 C 
ATOM     28  C   UNL     1      28.992 -24.759 -14.839  0.00  0.00    +0.000 C 
ENDBRANCH  19  23
BRANCH  18  29
ATOM     29  O   UNL     1      31.993 -22.374 -17.914  0.00  0.00    -0.505 OA
ATOM     30  H   UNL     1      31.136 -22.701 -17.724  0.00  0.00    +0.292 HD
ENDBRANCH  18  29
ENDBRANCH   2  17
TORSDOF 4
ENDMDL
MODEL 7
REMARK VINA RESULT:     -10.1      4.566      8.197
REMARK  Name = 447476
REMARK  4 active torsions:
REMARK  status: ('A' for Active; 'I' for Inactive)
REMARK    1  A    between atoms: C_2  and  C_17
REMARK    2  A    between atoms: C_8  and  C_13
REMARK    3  A    between atoms: C_18  and  O_29
REMARK    4  A    between atoms: C_19  and  C_23
REMARK                            x       y       z     vdW  Elec       q    Type
REMARK                         _______ _______ _______ _____ _____    ______ ____
ROOT
ATOM      1  N   UNL     1      34.252 -21.068 -20.124  0.00  0.00    -0.312 N 
ATOM      2  C   UNL     1      35.240 -20.314 -20.698  0.00  0.00    +0.051 C 
ATOM      3  C   UNL     1      36.060 -21.307 -18.839  0.00  0.00    +0.015 C 
ATOM      4  C   UNL     1      34.724 -21.686 -18.987  0.00  0.00    +0.048 C 
ATOM      5  C   UNL     1      36.372 -20.441 -19.926  0.00  0.00    +0.016 C 
ATOM      6  C   UNL     1      36.790 -21.807 -17.742  0.00  0.00    +0.004 C 
ATOM      7  C   UNL     1      34.078 -22.542 -18.089  0.00  0.00    +0.015 C 
ATOM      8  C   UNL     1      36.156 -22.664 -16.835  0.00  0.00    +0.031 C 
ATOM      9  C   UNL     1      34.821 -23.024 -17.008  0.00  0.00    +0.004 C 
ATOM     10  H   UNL     1      33.335 -21.156 -20.473  0.00  0.00    +0.152 HD
ENDROOT
BRANCH   8  13
ATOM     11  N   UNL     1      36.254 -23.613 -14.543  0.00  0.00    -0.343 N 
ATOM     12  N   UNL     1      38.219 -23.250 -15.753  0.00  0.00    -0.285 NA
ATOM     13  C   UNL     1      36.902 -23.183 -15.699  0.00  0.00    +0.117 C 
ATOM     14  H   UNL     1      36.778 -23.960 -13.785  0.00  0.00    +0.144 HD
ATOM     15  H   UNL     1      35.272 -23.568 -14.483  0.00  0.00    +0.144 HD
ATOM     16  H   UNL     1      38.726 -23.600 -14.985  0.00  0.00    +0.188 HD
ENDBRANCH   8  13
BRANCH   2  17
ATOM     17  C   UNL     1      35.020 -19.556 -21.905  0.00  0.00    +0.047 C 
ATOM     18  C   UNL     1      34.851 -18.170 -21.866  0.00  0.00    +0.135 C 
ATOM     19  C   UNL     1      34.640 -17.458 -23.047  0.00  0.00    +0.034 C 
ATOM     20  C   UNL     1      34.977 -20.226 -23.129  0.00  0.00    +0.004 C 
ATOM     21  C   UNL     1      34.598 -18.130 -24.268  0.00  0.00    +0.003 C 
ATOM     22  C   UNL     1      34.767 -19.514 -24.309  0.00  0.00    +0.000 C 
BRANCH  19  23
ATOM     23  C   UNL     1      34.463 -16.020 -23.029  0.00  0.00    +0.003 C 
ATOM     24  C   UNL     1      34.064 -15.355 -24.188  0.00  0.00    +0.000 C 
ATOM     25  C   UNL     1      34.692 -15.305 -21.855  0.00  0.00    +0.000 C 
ATOM     26  C   UNL     1      33.893 -13.971 -24.172  0.00  0.00    +0.000 C 
ATOM     27  C   UNL     1      34.521 -13.920 -21.840  0.00  0.00    +0.000 C 
ATOM     28  C   UNL     1      34.122 -13.254 -22.998  0.00  0.00    +0.000 C 
ENDBRANCH  19  23
BRANCH  18  29
ATOM     29  O   UNL     1      34.893 -17.512 -20.669  0.00  0.00    -0.505 OA
ATOM     30  H   UNL     1      35.170 -17.963 -19.895  0.00  0.00    +0.292 HD
ENDBRANCH  18  29
ENDBRANCH   2  17
TORSDOF 4
ENDMDL
MODEL 8
REMARK VINA RESULT:     -10.0      2.178      2.705
REMARK  Name = 447476
REMARK  4 active torsions:
REMARK  status: ('A' for Active; 'I' for Inactive)
REMARK    1  A    between atoms: C_2  and  C_17
REMARK    2  A    between atoms: C_8  and  C_13
REMARK    3  A    between atoms: C_18  and  O_29
REMARK    4  A    between atoms: C_19  and  C_23
REMARK                            x       y       z     vdW  Elec       q    Type
REMARK                         _______ _______ _______ _____ _____    ______ ____
ROOT
ATOM      1  N   UNL     1      32.537 -12.431 -22.866  0.00  0.00    -0.312 N 
ATOM      2  C   UNL     1      32.683 -12.306 -21.511  0.00  0.00    +0.051 C 
ATOM      3  C   UNL     1      33.551 -14.290 -22.162  0.00  0.00    +0.015 C 
ATOM      4  C   UNL     1      33.057 -13.633 -23.291  0.00  0.00    +0.048 C 
ATOM      5  C   UNL     1      33.308 -13.440 -21.045  0.00  0.00    +0.016 C 
ATOM      6  C   UNL     1      34.146 -15.557 -22.319  0.00  0.00    +0.004 C 
ATOM      7  C   UNL     1      33.128 -14.184 -24.576  0.00  0.00    +0.015 C 
ATOM      8  C   UNL     1      34.224 -16.120 -23.598  0.00  0.00    +0.031 C 
ATOM      9  C   UNL     1      33.722 -15.443 -24.707  0.00  0.00    +0.004 C 
ATOM     10  H   UNL     1      32.118 -11.760 -23.452  0.00  0.00    +0.152 HD
ENDROOT
BRANCH   8  13
ATOM     11  N   UNL     1      35.837 -17.878 -22.909  0.00  0.00    -0.343 N 
ATOM     12  N   UNL     1      34.448 -18.213 -24.758  0.00  0.00    -0.285 NA
ATOM     13  C   UNL     1      34.836 -17.429 -23.769  0.00  0.00    +0.117 C 
ATOM     14  H   UNL     1      36.239 -18.766 -23.043  0.00  0.00    +0.144 HD
ATOM     15  H   UNL     1      36.142 -17.305 -22.167  0.00  0.00    +0.144 HD
ATOM     16  H   UNL     1      34.862 -19.098 -24.876  0.00  0.00    +0.188 HD
ENDBRANCH   8  13
BRANCH   2  17
ATOM     17  C   UNL     1      32.225 -11.139 -20.797  0.00  0.00    +0.047 C 
ATOM     18  C   UNL     1      32.242  -9.876 -21.392  0.00  0.00    +0.135 C 
ATOM     19  C   UNL     1      31.794  -8.763 -20.682  0.00  0.00    +0.034 C 
ATOM     20  C   UNL     1      31.757 -11.284 -19.489  0.00  0.00    +0.004 C 
ATOM     21  C   UNL     1      31.326  -8.910 -19.376  0.00  0.00    +0.003 C 
ATOM     22  C   UNL     1      31.308 -10.171 -18.780  0.00  0.00    +0.000 C 
BRANCH  19  23
ATOM     23  C   UNL     1      31.802  -7.443 -21.281  0.00  0.00    +0.003 C 
ATOM     24  C   UNL     1      32.526  -6.413 -20.681  0.00  0.00    +0.000 C 
ATOM     25  C   UNL     1      31.088  -7.206 -22.454  0.00  0.00    +0.000 C 
ATOM     26  C   UNL     1      32.536  -5.142 -21.257  0.00  0.00    +0.000 C 
ATOM     27  C   UNL     1      31.097  -5.935 -23.029  0.00  0.00    +0.000 C 
ATOM     28  C   UNL     1      31.821  -4.904 -22.431  0.00  0.00    +0.000 C 
ENDBRANCH  19  23
BRANCH  18  29
ATOM     29  O   UNL     1      32.699  -9.733 -22.672  0.00  0.00    -0.505 OA
ATOM     30  H   UNL     1      32.935  -8.885 -22.994  0.00  0.00    +0.292 HD
ENDBRANCH  18  29
ENDBRANCH   2  17
TORSDOF 4
ENDMDL
MODEL 9
REMARK VINA RESULT:      -9.8      3.045      8.743
REMARK  Name = 447476
REMARK  4 active torsions:
REMARK  status: ('A' for Active; 'I' for Inactive)
REMARK    1  A    between atoms: C_2  and  C_17
REMARK    2  A    between atoms: C_8  and  C_13
REMARK    3  A    between atoms: C_18  and  O_29
REMARK    4  A    between atoms: C_19  and  C_23
REMARK                            x       y       z     vdW  Elec       q    Type
REMARK                         _______ _______ _______ _____ _____    ______ ____
ROOT
ATOM      1  N   UNL     1      32.330 -12.589 -21.867  0.00  0.00    -0.312 N 
ATOM      2  C   UNL     1      33.032 -12.581 -23.042  0.00  0.00    +0.051 C 
ATOM      3  C   UNL     1      32.711 -10.448 -22.365  0.00  0.00    +0.015 C 
ATOM      4  C   UNL     1      32.119 -11.300 -21.430  0.00  0.00    +0.048 C 
ATOM      5  C   UNL     1      33.283 -11.270 -23.376  0.00  0.00    +0.016 C 
ATOM      6  C   UNL     1      32.641  -9.057 -22.153  0.00  0.00    +0.004 C 
ATOM      7  C   UNL     1      31.456 -10.830 -20.292  0.00  0.00    +0.015 C 
ATOM      8  C   UNL     1      31.981  -8.571 -21.018  0.00  0.00    +0.031 C 
ATOM      9  C   UNL     1      31.399  -9.445 -20.104  0.00  0.00    +0.004 C 
ATOM     10  H   UNL     1      32.019 -13.400 -21.402  0.00  0.00    +0.152 HD
ENDROOT
BRANCH   8  13
ATOM     11  N   UNL     1      30.872  -6.372 -21.336  0.00  0.00    -0.343 N 
ATOM     12  N   UNL     1      32.827  -6.533 -20.067  0.00  0.00    -0.285 NA
ATOM     13  C   UNL     1      31.904  -7.136 -20.793  0.00  0.00    +0.117 C 
ATOM     14  H   UNL     1      30.839  -5.402 -21.173  0.00  0.00    +0.144 HD
ATOM     15  H   UNL     1      30.176  -6.804 -21.884  0.00  0.00    +0.144 HD
ATOM     16  H   UNL     1      32.777  -5.562 -19.914  0.00  0.00    +0.188 HD
ENDBRANCH   8  13
BRANCH   2  17
ATOM     17  C   UNL     1      33.394 -13.798 -23.726  0.00  0.00    +0.047 C 
ATOM     18  C   UNL     1      33.869 -14.907 -23.022  0.00  0.00    +0.135 C 
ATOM     19  C   UNL     1      34.212 -16.073 -23.705  0.00  0.00    +0.034 C 
ATOM     20  C   UNL     1      33.263 -13.861 -25.115  0.00  0.00    +0.004 C 
ATOM     21  C   UNL     1      34.080 -16.134 -25.093  0.00  0.00    +0.003 C 
ATOM     22  C   UNL     1      33.606 -15.028 -25.797  0.00  0.00    +0.000 C 
BRANCH  19  23
ATOM     23  C   UNL     1      34.706 -17.236 -22.994  0.00  0.00    +0.003 C 
ATOM     24  C   UNL     1      35.431 -17.072 -21.815  0.00  0.00    +0.000 C 
ATOM     25  C   UNL     1      34.456 -18.514 -23.491  0.00  0.00    +0.000 C 
ATOM     26  C   UNL     1      35.906 -18.191 -21.129  0.00  0.00    +0.000 C 
ATOM     27  C   UNL     1      34.932 -19.632 -22.806  0.00  0.00    +0.000 C 
ATOM     28  C   UNL     1      35.657 -19.470 -21.626  0.00  0.00    +0.000 C 
ENDBRANCH  19  23
BRANCH  18  29
ATOM     29  O   UNL     1      33.996 -14.847 -21.663  0.00  0.00    -0.505 OA
ATOM     30  H   UNL     1      34.812 -14.593 -21.279  0.00  0.00    +0.292 HD
ENDBRANCH  18  29
ENDBRANCH   2  17
TORSDOF 4
ENDMDL
