MODEL 1
REMARK VINA RESULT:     -11.9      0.000      0.000
REMARK  Name = 135565465
REMARK  7 active torsions:
REMARK  status: ('A' for Active; 'I' for Inactive)
REMARK    1  A    between atoms: N_2  and  C_9
REMARK    2  A    between atoms: N_2  and  O_21
REMARK    3  A    between atoms: C_3  and  C_23
REMARK    4  A    between atoms: C_10  and  C_14
REMARK    5  A    between atoms: C_23  and  C_24
REMARK    6  A    between atoms: C_24  and  C_25
REMARK    7  A    between atoms: C_25  and  N_27
REMARK                            x       y       z     vdW  Elec       q    Type
REMARK                         _______ _______ _______ _____ _____    ______ ____
ROOT
ATOM      1  O   UNL     1      36.000 -22.682 -17.258  0.00  0.00    -0.453 OA
ATOM      2  C   UNL     1      34.826 -20.550 -20.624  0.00  0.00    -0.040 C 
ATOM      3  C   UNL     1      33.841 -21.151 -19.835  0.00  0.00    +0.053 C 
ATOM      4  C   UNL     1      34.204 -21.876 -18.694  0.00  0.00    +0.036 C 
ATOM      5  C   UNL     1      36.171 -20.668 -20.281  0.00  0.00    -0.005 C 
ATOM      6  C   UNL     1      35.556 -21.990 -18.357  0.00  0.00    +0.143 C 
ATOM      7  C   UNL     1      36.537 -21.388 -19.147  0.00  0.00    +0.037 C 
ATOM      8  C   UNL     1      33.205 -22.531 -17.821  0.00  0.00    +0.110 C 
ATOM      9  C   UNL     1      35.069 -23.306 -16.448  0.00  0.00    +0.160 C 
ATOM     10  C   UNL     1      33.744 -23.268 -16.655  0.00  0.00    +0.060 C 
ENDROOT
BRANCH   9  13
ATOM     11  S   UNL     1      37.300 -23.454 -11.675  0.00  0.00    -0.091 S 
ATOM     12  N   UNL     1      35.704 -25.361 -15.400  0.00  0.00    -0.266 NA
ATOM     13  C   UNL     1      35.656 -24.019 -15.295  0.00  0.00    +0.093 C 
ATOM     14  C   UNL     1      36.110 -23.294 -14.208  0.00  0.00    +0.081 C 
ATOM     15  C   UNL     1      36.652 -24.046 -13.159  0.00  0.00    +0.011 C 
ATOM     16  C   UNL     1      36.721 -25.441 -13.225  0.00  0.00    +0.005 C 
ATOM     17  C   UNL     1      36.230 -26.073 -14.378  0.00  0.00    +0.152 C 
ATOM     18  C   UNL     1      37.313 -25.988 -12.039  0.00  0.00    +0.005 C 
ATOM     19  C   UNL     1      37.670 -25.025 -11.125  0.00  0.00    +0.035 C 
ENDBRANCH   9  13
BRANCH   8  20
ATOM     20  N   UNL     1      31.924 -22.499 -18.008  0.00  0.00    -0.135 NA
BRANCH  20  21
ATOM     21  O   UNL     1      31.299 -22.846 -16.810  0.00  0.00    -0.265 OA
ATOM     22  H   UNL     1      30.374 -22.733 -16.714  0.00  0.00    +0.247 HD
ENDBRANCH  20  21
ENDBRANCH   8  20
BRANCH   2  23
ATOM     23  C   UNL     1      34.433 -19.778 -21.839  0.00  0.00    +0.020 C 
BRANCH  23  24
ATOM     24  C   UNL     1      35.576 -18.894 -22.361  0.00  0.00    -0.018 C 
BRANCH  24  25
ATOM     25  C   UNL     1      35.561 -17.512 -21.709  0.00  0.00    -0.077 C 
BRANCH  25  27
ATOM     26  O   UNL     1      33.504 -14.881 -24.252  0.00  0.00    -0.358 OA
ATOM     27  N   UNL     1      35.280 -16.483 -22.709  0.00  0.00    +0.390 N 
ATOM     28  C   UNL     1      34.522 -17.043 -23.837  0.00  0.00    -0.045 C 
ATOM     29  C   UNL     1      34.539 -15.363 -22.112  0.00  0.00    -0.045 C 
ATOM     30  C   UNL     1      34.246 -14.309 -23.175  0.00  0.00    +0.119 C 
ATOM     31  C   UNL     1      34.231 -15.949 -24.859  0.00  0.00    +0.119 C 
ATOM     32  H   UNL     1      36.173 -16.134 -23.057  0.00  0.00    -0.079 HD
ENDBRANCH  25  27
ENDBRANCH  24  25
ENDBRANCH  23  24
ENDBRANCH   2  23
TORSDOF 7
ENDMDL
MODEL 2
REMARK VINA RESULT:     -11.7      5.098     12.550
REMARK  Name = 135565465
REMARK  7 active torsions:
REMARK  status: ('A' for Active; 'I' for Inactive)
REMARK    1  A    between atoms: N_2  and  C_9
REMARK    2  A    between atoms: N_2  and  O_21
REMARK    3  A    between atoms: C_3  and  C_23
REMARK    4  A    between atoms: C_10  and  C_14
REMARK    5  A    between atoms: C_23  and  C_24
REMARK    6  A    between atoms: C_24  and  C_25
REMARK    7  A    between atoms: C_25  and  N_27
REMARK                            x       y       z     vdW  Elec       q    Type
REMARK                         _______ _______ _______ _____ _____    ______ ____
ROOT
ATOM      1  O   UNL     1      33.620 -13.423 -22.010  0.00  0.00    -0.453 OA
ATOM      2  C   UNL     1      35.159 -17.264 -22.377  0.00  0.00    -0.040 C 
ATOM      3  C   UNL     1      34.663 -16.629 -23.520  0.00  0.00    +0.053 C 
ATOM      4  C   UNL     1      34.138 -15.335 -23.430  0.00  0.00    +0.036 C 
ATOM      5  C   UNL     1      35.135 -16.614 -21.146  0.00  0.00    -0.005 C 
ATOM      6  C   UNL     1      34.116 -14.690 -22.190  0.00  0.00    +0.143 C 
ATOM      7  C   UNL     1      34.613 -15.327 -21.050  0.00  0.00    +0.037 C 
ATOM      8  C   UNL     1      33.601 -14.615 -24.605  0.00  0.00    +0.110 C 
ATOM      9  C   UNL     1      33.105 -12.753 -23.106  0.00  0.00    +0.160 C 
ATOM     10  C   UNL     1      33.074 -13.255 -24.349  0.00  0.00    +0.060 C 
ENDROOT
BRANCH   9  13
ATOM     11  S   UNL     1      32.304  -7.678 -24.278  0.00  0.00    -0.091 S 
ATOM     12  N   UNL     1      32.001 -11.256 -21.602  0.00  0.00    -0.266 NA
ATOM     13  C   UNL     1      32.601 -11.399 -22.799  0.00  0.00    +0.093 C 
ATOM     14  C   UNL     1      32.767 -10.386 -23.727  0.00  0.00    +0.081 C 
ATOM     15  C   UNL     1      32.261  -9.134 -23.358  0.00  0.00    +0.011 C 
ATOM     16  C   UNL     1      31.630  -8.941 -22.125  0.00  0.00    +0.005 C 
ATOM     17  C   UNL     1      31.517 -10.041 -21.261  0.00  0.00    +0.152 C 
ATOM     18  C   UNL     1      31.197  -7.582 -21.972  0.00  0.00    +0.005 C 
ATOM     19  C   UNL     1      31.499  -6.797 -23.059  0.00  0.00    +0.035 C 
ENDBRANCH   9  13
BRANCH   8  20
ATOM     20  N   UNL     1      33.567 -15.087 -25.811  0.00  0.00    -0.135 NA
BRANCH  20  21
ATOM     21  O   UNL     1      33.860 -14.048 -26.695  0.00  0.00    -0.265 OA
ATOM     22  H   UNL     1      33.393 -13.238 -26.637  0.00  0.00    +0.247 HD
ENDBRANCH  20  21
ENDBRANCH   8  20
BRANCH   2  23
ATOM     23  C   UNL     1      35.717 -18.644 -22.479  0.00  0.00    +0.020 C 
BRANCH  23  24
ATOM     24  C   UNL     1      35.729 -19.368 -21.124  0.00  0.00    -0.018 C 
BRANCH  24  25
ATOM     25  C   UNL     1      34.450 -20.175 -20.906  0.00  0.00    -0.077 C 
BRANCH  25  27
ATOM     26  O   UNL     1      34.782 -23.158 -17.972  0.00  0.00    -0.358 OA
ATOM     27  N   UNL     1      34.490 -20.848 -19.609  0.00  0.00    +0.390 N 
ATOM     28  C   UNL     1      33.431 -21.862 -19.514  0.00  0.00    -0.045 C 
ATOM     29  C   UNL     1      35.802 -21.469 -19.383  0.00  0.00    -0.045 C 
ATOM     30  C   UNL     1      35.816 -22.175 -18.031  0.00  0.00    +0.119 C 
ATOM     31  C   UNL     1      33.500 -22.558 -18.158  0.00  0.00    +0.119 C 
ATOM     32  H   UNL     1      34.334 -20.144 -18.888  0.00  0.00    -0.079 HD
ENDBRANCH  25  27
ENDBRANCH  24  25
ENDBRANCH  23  24
ENDBRANCH   2  23
TORSDOF 7
ENDMDL
MODEL 3
REMARK VINA RESULT:     -11.5      2.874      3.963
REMARK  Name = 135565465
REMARK  7 active torsions:
REMARK  status: ('A' for Active; 'I' for Inactive)
REMARK    1  A    between atoms: N_2  and  C_9
REMARK    2  A    between atoms: N_2  and  O_21
REMARK    3  A    between atoms: C_3  and  C_23
REMARK    4  A    between atoms: C_10  and  C_14
REMARK    5  A    between atoms: C_23  and  C_24
REMARK    6  A    between atoms: C_24  and  C_25
REMARK    7  A    between atoms: C_25  and  N_27
REMARK                            x       y       z     vdW  Elec       q    Type
REMARK                         _______ _______ _______ _____ _____    ______ ____
ROOT
ATOM      1  O   UNL     1      32.635 -21.815 -18.626  0.00  0.00    -0.453 OA
ATOM      2  C   UNL     1      34.949 -19.890 -21.489  0.00  0.00    -0.040 C 
ATOM      3  C   UNL     1      35.595 -20.615 -20.482  0.00  0.00    +0.053 C 
ATOM      4  C   UNL     1      34.844 -21.275 -19.503  0.00  0.00    +0.036 C 
ATOM      5  C   UNL     1      33.559 -19.821 -21.524  0.00  0.00    -0.005 C 
ATOM      6  C   UNL     1      33.448 -21.200 -19.545  0.00  0.00    +0.143 C 
ATOM      7  C   UNL     1      32.806 -20.476 -20.552  0.00  0.00    +0.037 C 
ATOM      8  C   UNL     1      35.473 -22.057 -18.417  0.00  0.00    +0.110 C 
ATOM      9  C   UNL     1      33.221 -22.536 -17.602  0.00  0.00    +0.160 C 
ATOM     10  C   UNL     1      34.545 -22.692 -17.452  0.00  0.00    +0.060 C 
ENDROOT
BRANCH   9  13
ATOM     11  S   UNL     1      31.980 -25.297 -13.287  0.00  0.00    -0.091 S 
ATOM     12  N   UNL     1      30.955 -23.002 -16.994  0.00  0.00    -0.266 NA
ATOM     13  C   UNL     1      32.254 -23.156 -16.673  0.00  0.00    +0.093 C 
ATOM     14  C   UNL     1      32.719 -23.837 -15.563  0.00  0.00    +0.081 C 
ATOM     15  C   UNL     1      31.737 -24.395 -14.735  0.00  0.00    +0.011 C 
ATOM     16  C   UNL     1      30.377 -24.260 -15.030  0.00  0.00    +0.005 C 
ATOM     17  C   UNL     1      30.019 -23.546 -16.185  0.00  0.00    +0.152 C 
ATOM     18  C   UNL     1      29.566 -24.911 -14.044  0.00  0.00    +0.005 C 
ATOM     19  C   UNL     1      30.305 -25.509 -13.051  0.00  0.00    +0.035 C 
ENDBRANCH   9  13
BRANCH   8  20
ATOM     20  N   UNL     1      36.748 -22.218 -18.263  0.00  0.00    -0.135 NA
BRANCH  20  21
ATOM     21  O   UNL     1      36.969 -22.775 -17.002  0.00  0.00    -0.265 OA
ATOM     22  H   UNL     1      37.680 -23.370 -16.872  0.00  0.00    +0.247 HD
ENDBRANCH  20  21
ENDBRANCH   8  20
BRANCH   2  23
ATOM     23  C   UNL     1      35.755 -19.189 -22.530  0.00  0.00    +0.020 C 
BRANCH  23  24
ATOM     24  C   UNL     1      34.983 -18.031 -23.181  0.00  0.00    -0.018 C 
BRANCH  24  25
ATOM     25  C   UNL     1      35.280 -16.699 -22.493  0.00  0.00    -0.077 C 
BRANCH  25  27
ATOM     26  O   UNL     1      32.980 -13.812 -24.492  0.00  0.00    -0.358 OA
ATOM     27  N   UNL     1      34.898 -15.585 -23.358  0.00  0.00    +0.390 N 
ATOM     28  C   UNL     1      33.960 -16.029 -24.399  0.00  0.00    -0.045 C 
ATOM     29  C   UNL     1      34.299 -14.497 -22.573  0.00  0.00    -0.045 C 
ATOM     30  C   UNL     1      33.896 -13.351 -23.497  0.00  0.00    +0.119 C 
ATOM     31  C   UNL     1      33.567 -14.848 -25.280  0.00  0.00    +0.119 C 
ATOM     32  H   UNL     1      35.743 -15.234 -23.808  0.00  0.00    -0.079 HD
ENDBRANCH  25  27
ENDBRANCH  24  25
ENDBRANCH  23  24
ENDBRANCH   2  23
TORSDOF 7
ENDMDL
MODEL 4
REMARK VINA RESULT:     -11.2      4.461      8.287
REMARK  Name = 135565465
REMARK  7 active torsions:
REMARK  status: ('A' for Active; 'I' for Inactive)
REMARK    1  A    between atoms: N_2  and  C_9
REMARK    2  A    between atoms: N_2  and  O_21
REMARK    3  A    between atoms: C_3  and  C_23
REMARK    4  A    between atoms: C_10  and  C_14
REMARK    5  A    between atoms: C_23  and  C_24
REMARK    6  A    between atoms: C_24  and  C_25
REMARK    7  A    between atoms: C_25  and  N_27
REMARK                            x       y       z     vdW  Elec       q    Type
REMARK                         _______ _______ _______ _____ _____    ______ ____
ROOT
ATOM      1  O   UNL     1      34.778 -16.524 -21.056  0.00  0.00    -0.453 OA
ATOM      2  C   UNL     1      33.900 -12.904 -22.894  0.00  0.00    -0.040 C 
ATOM      3  C   UNL     1      34.088 -14.034 -23.696  0.00  0.00    +0.053 C 
ATOM      4  C   UNL     1      34.384 -15.269 -23.107  0.00  0.00    +0.036 C 
ATOM      5  C   UNL     1      34.007 -12.999 -21.509  0.00  0.00    -0.005 C 
ATOM      6  C   UNL     1      34.490 -15.356 -21.716  0.00  0.00    +0.143 C 
ATOM      7  C   UNL     1      34.302 -14.225 -20.918  0.00  0.00    +0.037 C 
ATOM      8  C   UNL     1      34.590 -16.497 -23.905  0.00  0.00    +0.110 C 
ATOM      9  C   UNL     1      34.984 -17.671 -21.800  0.00  0.00    +0.160 C 
ATOM     10  C   UNL     1      34.904 -17.725 -23.139  0.00  0.00    +0.060 C 
ENDROOT
BRANCH   9  13
ATOM     11  S   UNL     1      33.596 -22.064 -19.242  0.00  0.00    -0.091 S 
ATOM     12  N   UNL     1      36.580 -19.043 -20.663  0.00  0.00    -0.266 NA
ATOM     13  C   UNL     1      35.285 -18.869 -20.990  0.00  0.00    +0.093 C 
ATOM     14  C   UNL     1      34.256 -19.717 -20.623  0.00  0.00    +0.081 C 
ATOM     15  C   UNL     1      34.627 -20.827 -19.855  0.00  0.00    +0.011 C 
ATOM     16  C   UNL     1      35.959 -21.047 -19.493  0.00  0.00    +0.005 C 
ATOM     17  C   UNL     1      36.922 -20.120 -19.921  0.00  0.00    +0.152 C 
ATOM     18  C   UNL     1      36.093 -22.242 -18.711  0.00  0.00    +0.005 C 
ATOM     19  C   UNL     1      34.896 -22.884 -18.503  0.00  0.00    +0.035 C 
ENDBRANCH   9  13
BRANCH   8  20
ATOM     20  N   UNL     1      34.513 -16.563 -25.196  0.00  0.00    -0.135 NA
BRANCH  20  21
ATOM     21  O   UNL     1      33.164 -16.587 -25.553  0.00  0.00    -0.265 OA
ATOM     22  H   UNL     1      32.504 -16.595 -24.888  0.00  0.00    +0.247 HD
ENDBRANCH  20  21
ENDBRANCH   8  20
BRANCH   2  23
ATOM     23  C   UNL     1      33.584 -11.591 -23.527  0.00  0.00    +0.020 C 
BRANCH  23  24
ATOM     24  C   UNL     1      32.342 -10.931 -22.910  0.00  0.00    -0.018 C 
BRANCH  24  25
ATOM     25  C   UNL     1      32.379  -9.411 -23.059  0.00  0.00    -0.077 C 
BRANCH  25  27
ATOM     26  O   UNL     1      32.689  -8.180 -19.058  0.00  0.00    -0.358 OA
ATOM     27  N   UNL     1      32.090  -8.769 -21.778  0.00  0.00    +0.390 N 
ATOM     28  C   UNL     1      31.918  -9.772 -20.717  0.00  0.00    -0.045 C 
ATOM     29  C   UNL     1      33.159  -7.829 -21.412  0.00  0.00    -0.045 C 
ATOM     30  C   UNL     1      32.843  -7.182 -20.068  0.00  0.00    +0.119 C 
ATOM     31  C   UNL     1      31.630  -9.078 -19.390  0.00  0.00    +0.119 C 
ATOM     32  H   UNL     1      31.219  -8.248 -21.878  0.00  0.00    -0.079 HD
ENDBRANCH  25  27
ENDBRANCH  24  25
ENDBRANCH  23  24
ENDBRANCH   2  23
TORSDOF 7
ENDMDL
MODEL 5
REMARK VINA RESULT:     -10.8      1.734      2.502
REMARK  Name = 135565465
REMARK  7 active torsions:
REMARK  status: ('A' for Active; 'I' for Inactive)
REMARK    1  A    between atoms: N_2  and  C_9
REMARK    2  A    between atoms: N_2  and  O_21
REMARK    3  A    between atoms: C_3  and  C_23
REMARK    4  A    between atoms: C_10  and  C_14
REMARK    5  A    between atoms: C_23  and  C_24
REMARK    6  A    between atoms: C_24  and  C_25
REMARK    7  A    between atoms: C_25  and  N_27
REMARK                            x       y       z     vdW  Elec       q    Type
REMARK                         _______ _______ _______ _____ _____    ______ ____
ROOT
ATOM      1  O   UNL     1      36.498 -21.139 -18.541  0.00  0.00    -0.453 OA
ATOM      2  C   UNL     1      35.479 -19.021 -21.966  0.00  0.00    -0.040 C 
ATOM      3  C   UNL     1      34.515 -19.844 -21.376  0.00  0.00    +0.053 C 
ATOM      4  C   UNL     1      34.826 -20.570 -20.220  0.00  0.00    +0.036 C 
ATOM      5  C   UNL     1      36.752 -18.920 -21.410  0.00  0.00    -0.005 C 
ATOM      6  C   UNL     1      36.107 -20.463 -19.669  0.00  0.00    +0.143 C 
ATOM      7  C   UNL     1      37.068 -19.640 -20.261  0.00  0.00    +0.037 C 
ATOM      8  C   UNL     1      33.846 -21.453 -19.552  0.00  0.00    +0.110 C 
ATOM      9  C   UNL     1      35.587 -21.976 -17.922  0.00  0.00    +0.160 C 
ATOM     10  C   UNL     1      34.326 -22.161 -18.343  0.00  0.00    +0.060 C 
ENDROOT
BRANCH   9  13
ATOM     11  S   UNL     1      34.998 -24.691 -13.443  0.00  0.00    -0.091 S 
ATOM     12  N   UNL     1      37.450 -22.627 -16.571  0.00  0.00    -0.266 NA
ATOM     13  C   UNL     1      36.111 -22.650 -16.717  0.00  0.00    +0.093 C 
ATOM     14  C   UNL     1      35.230 -23.248 -15.834  0.00  0.00    +0.081 C 
ATOM     15  C   UNL     1      35.809 -23.864 -14.719  0.00  0.00    +0.011 C 
ATOM     16  C   UNL     1      37.194 -23.864 -14.528  0.00  0.00    +0.005 C 
ATOM     17  C   UNL     1      37.995 -23.227 -15.489  0.00  0.00    +0.152 C 
ATOM     18  C   UNL     1      37.551 -24.553 -13.321  0.00  0.00    +0.005 C 
ATOM     19  C   UNL     1      36.462 -25.046 -12.643  0.00  0.00    +0.035 C 
ENDBRANCH   9  13
BRANCH   8  20
ATOM     20  N   UNL     1      32.627 -21.639 -19.947  0.00  0.00    -0.135 NA
BRANCH  20  21
ATOM     21  O   UNL     1      31.872 -20.526 -19.573  0.00  0.00    -0.265 OA
ATOM     22  H   UNL     1      30.981 -20.633 -19.306  0.00  0.00    +0.247 HD
ENDBRANCH  20  21
ENDBRANCH   8  20
BRANCH   2  23
ATOM     23  C   UNL     1      35.142 -18.250 -23.198  0.00  0.00    +0.020 C 
BRANCH  23  24
ATOM     24  C   UNL     1      35.481 -16.758 -23.060  0.00  0.00    -0.018 C 
BRANCH  24  25
ATOM     25  C   UNL     1      34.814 -16.139 -21.833  0.00  0.00    -0.077 C 
BRANCH  25  27
ATOM     26  O   UNL     1      33.065 -12.410 -22.641  0.00  0.00    -0.358 OA
ATOM     27  N   UNL     1      33.853 -15.116 -22.240  0.00  0.00    +0.390 N 
ATOM     28  C   UNL     1      33.515 -14.237 -21.111  0.00  0.00    -0.045 C 
ATOM     29  C   UNL     1      34.380 -14.319 -23.356  0.00  0.00    -0.045 C 
ATOM     30  C   UNL     1      33.367 -13.250 -23.755  0.00  0.00    +0.119 C 
ATOM     31  C   UNL     1      32.521 -13.172 -21.563  0.00  0.00    +0.119 C 
ATOM     32  H   UNL     1      33.004 -15.589 -22.549  0.00  0.00    -0.079 HD
ENDBRANCH  25  27
ENDBRANCH  24  25
ENDBRANCH  23  24
ENDBRANCH   2  23
TORSDOF 7
ENDMDL
MODEL 6
REMARK VINA RESULT:     -10.7      4.157     10.737
REMARK  Name = 135565465
REMARK  7 active torsions:
REMARK  status: ('A' for Active; 'I' for Inactive)
REMARK    1  A    between atoms: N_2  and  C_9
REMARK    2  A    between atoms: N_2  and  O_21
REMARK    3  A    between atoms: C_3  and  C_23
REMARK    4  A    between atoms: C_10  and  C_14
REMARK    5  A    between atoms: C_23  and  C_24
REMARK    6  A    between atoms: C_24  and  C_25
REMARK    7  A    between atoms: C_25  and  N_27
REMARK                            x       y       z     vdW  Elec       q    Type
REMARK                         _______ _______ _______ _____ _____    ______ ____
ROOT
ATOM      1  O   UNL     1      33.930 -18.793 -21.698  0.00  0.00    -0.453 OA
ATOM      2  C   UNL     1      34.677 -21.902 -19.046  0.00  0.00    -0.040 C 
ATOM      3  C   UNL     1      35.755 -21.141 -19.507  0.00  0.00    +0.053 C 
ATOM      4  C   UNL     1      35.537 -20.086 -20.400  0.00  0.00    +0.036 C 
ATOM      5  C   UNL     1      33.382 -21.616 -19.472  0.00  0.00    -0.005 C 
ATOM      6  C   UNL     1      34.234 -19.806 -20.824  0.00  0.00    +0.143 C 
ATOM      7  C   UNL     1      33.159 -20.568 -20.361  0.00  0.00    +0.037 C 
ATOM      8  C   UNL     1      36.639 -19.247 -20.919  0.00  0.00    +0.110 C 
ATOM      9  C   UNL     1      34.960 -18.015 -22.195  0.00  0.00    +0.160 C 
ATOM     10  C   UNL     1      36.251 -18.174 -21.863  0.00  0.00    +0.060 C 
ENDROOT
BRANCH   9  13
ATOM     11  S   UNL     1      33.949 -12.992 -23.428  0.00  0.00    -0.091 S 
ATOM     12  N   UNL     1      34.151 -17.370 -24.351  0.00  0.00    -0.266 NA
ATOM     13  C   UNL     1      34.520 -16.955 -23.123  0.00  0.00    +0.093 C 
ATOM     14  C   UNL     1      34.509 -15.640 -22.697  0.00  0.00    +0.081 C 
ATOM     15  C   UNL     1      34.078 -14.698 -23.639  0.00  0.00    +0.011 C 
ATOM     16  C   UNL     1      33.687 -15.083 -24.924  0.00  0.00    +0.005 C 
ATOM     17  C   UNL     1      33.737 -16.448 -25.249  0.00  0.00    +0.152 C 
ATOM     18  C   UNL     1      33.286 -13.950 -25.707  0.00  0.00    +0.005 C 
ATOM     19  C   UNL     1      33.380 -12.764 -25.019  0.00  0.00    +0.035 C 
ENDBRANCH   9  13
BRANCH   8  20
ATOM     20  N   UNL     1      37.888 -19.388 -20.606  0.00  0.00    -0.135 NA
BRANCH  20  21
ATOM     21  O   UNL     1      38.653 -18.667 -21.523  0.00  0.00    -0.265 OA
ATOM     22  H   UNL     1      38.920 -17.792 -21.325  0.00  0.00    +0.247 HD
ENDBRANCH  20  21
ENDBRANCH   8  20
BRANCH   2  23
ATOM     23  C   UNL     1      34.915 -23.025 -18.093  0.00  0.00    +0.020 C 
BRANCH  23  24
ATOM     24  C   UNL     1      33.607 -23.591 -17.522  0.00  0.00    -0.018 C 
BRANCH  24  25
ATOM     25  C   UNL     1      33.571 -23.496 -15.997  0.00  0.00    -0.077 C 
BRANCH  25  27
ATOM     26  O   UNL     1      29.713 -22.941 -14.439  0.00  0.00    -0.358 OA
ATOM     27  N   UNL     1      32.222 -23.765 -15.503  0.00  0.00    +0.390 N 
ATOM     28  C   UNL     1      32.083 -23.336 -14.104  0.00  0.00    -0.045 C 
ATOM     29  C   UNL     1      31.218 -23.091 -16.337  0.00  0.00    -0.045 C 
ATOM     30  C   UNL     1      29.819 -23.374 -15.796  0.00  0.00    +0.119 C 
ATOM     31  C   UNL     1      30.665 -23.615 -13.616  0.00  0.00    +0.119 C 
ATOM     32  H   UNL     1      32.065 -24.771 -15.553  0.00  0.00    -0.079 HD
ENDBRANCH  25  27
ENDBRANCH  24  25
ENDBRANCH  23  24
ENDBRANCH   2  23
TORSDOF 7
ENDMDL
MODEL 7
REMARK VINA RESULT:     -10.5      3.315      9.531
REMARK  Name = 135565465
REMARK  7 active torsions:
REMARK  status: ('A' for Active; 'I' for Inactive)
REMARK    1  A    between atoms: N_2  and  C_9
REMARK    2  A    between atoms: N_2  and  O_21
REMARK    3  A    between atoms: C_3  and  C_23
REMARK    4  A    between atoms: C_10  and  C_14
REMARK    5  A    between atoms: C_23  and  C_24
REMARK    6  A    between atoms: C_24  and  C_25
REMARK    7  A    between atoms: C_25  and  N_27
REMARK                            x       y       z     vdW  Elec       q    Type
REMARK                         _______ _______ _______ _____ _____    ______ ____
ROOT
ATOM      1  O   UNL     1      35.927 -20.681 -19.276  0.00  0.00    -0.453 OA
ATOM      2  C   UNL     1      36.359 -23.106 -15.931  0.00  0.00    -0.040 C 
ATOM      3  C   UNL     1      35.161 -23.163 -16.649  0.00  0.00    +0.053 C 
ATOM      4  C   UNL     1      34.984 -22.359 -17.781  0.00  0.00    +0.036 C 
ATOM      5  C   UNL     1      37.382 -22.251 -16.336  0.00  0.00    -0.005 C 
ATOM      6  C   UNL     1      36.015 -21.503 -18.181  0.00  0.00    +0.143 C 
ATOM      7  C   UNL     1      37.211 -21.449 -17.461  0.00  0.00    +0.037 C 
ATOM      8  C   UNL     1      33.739 -22.379 -18.580  0.00  0.00    +0.110 C 
ATOM      9  C   UNL     1      34.759 -20.688 -20.017  0.00  0.00    +0.160 C 
ATOM     10  C   UNL     1      33.700 -21.466 -19.745  0.00  0.00    +0.060 C 
ENDROOT
BRANCH   9  13
ATOM     11  S   UNL     1      34.950 -15.885 -22.177  0.00  0.00    -0.091 S 
ATOM     12  N   UNL     1      34.705 -20.352 -22.384  0.00  0.00    -0.266 NA
ATOM     13  C   UNL     1      34.773 -19.769 -21.172  0.00  0.00    +0.093 C 
ATOM     14  C   UNL     1      34.852 -18.405 -20.954  0.00  0.00    +0.081 C 
ATOM     15  C   UNL     1      34.861 -17.605 -22.103  0.00  0.00    +0.011 C 
ATOM     16  C   UNL     1      34.792 -18.168 -23.380  0.00  0.00    +0.005 C 
ATOM     17  C   UNL     1      34.715 -19.566 -23.483  0.00  0.00    +0.152 C 
ATOM     18  C   UNL     1      34.815 -17.155 -24.396  0.00  0.00    +0.005 C 
ATOM     19  C   UNL     1      34.898 -15.883 -23.881  0.00  0.00    +0.035 C 
ENDBRANCH   9  13
BRANCH   8  20
ATOM     20  N   UNL     1      32.712 -23.127 -18.330  0.00  0.00    -0.135 NA
BRANCH  20  21
ATOM     21  O   UNL     1      31.733 -22.337 -17.726  0.00  0.00    -0.265 OA
ATOM     22  H   UNL     1      31.947 -21.477 -17.422  0.00  0.00    +0.247 HD
ENDBRANCH  20  21
ENDBRANCH   8  20
BRANCH   2  23
ATOM     23  C   UNL     1      36.542 -23.965 -14.725  0.00  0.00    +0.020 C 
BRANCH  23  24
ATOM     24  C   UNL     1      35.374 -24.943 -14.525  0.00  0.00    -0.018 C 
BRANCH  24  25
ATOM     25  C   UNL     1      34.364 -24.413 -13.507  0.00  0.00    -0.077 C 
BRANCH  25  27
ATOM     26  O   UNL     1      30.194 -24.115 -13.875  0.00  0.00    -0.358 OA
ATOM     27  N   UNL     1      33.014 -24.456 -14.064  0.00  0.00    +0.390 N 
ATOM     28  C   UNL     1      32.172 -25.404 -13.320  0.00  0.00    -0.045 C 
ATOM     29  C   UNL     1      32.400 -23.121 -14.049  0.00  0.00    -0.045 C 
ATOM     30  C   UNL     1      30.988 -23.193 -14.622  0.00  0.00    +0.119 C 
ATOM     31  C   UNL     1      30.766 -25.423 -13.911  0.00  0.00    +0.119 C 
ATOM     32  H   UNL     1      33.084 -24.772 -15.031  0.00  0.00    -0.079 HD
ENDBRANCH  25  27
ENDBRANCH  24  25
ENDBRANCH  23  24
ENDBRANCH   2  23
TORSDOF 7
ENDMDL
MODEL 8
REMARK VINA RESULT:     -10.5      3.768     10.923
REMARK  Name = 135565465
REMARK  7 active torsions:
REMARK  status: ('A' for Active; 'I' for Inactive)
REMARK    1  A    between atoms: N_2  and  C_9
REMARK    2  A    between atoms: N_2  and  O_21
REMARK    3  A    between atoms: C_3  and  C_23
REMARK    4  A    between atoms: C_10  and  C_14
REMARK    5  A    between atoms: C_23  and  C_24
REMARK    6  A    between atoms: C_24  and  C_25
REMARK    7  A    between atoms: C_25  and  N_27
REMARK                            x       y       z     vdW  Elec       q    Type
REMARK                         _______ _______ _______ _____ _____    ______ ____
ROOT
ATOM      1  O   UNL     1      33.933 -18.971 -21.573  0.00  0.00    -0.453 OA
ATOM      2  C   UNL     1      34.667 -22.010 -18.838  0.00  0.00    -0.040 C 
ATOM      3  C   UNL     1      35.747 -21.258 -19.309  0.00  0.00    +0.053 C 
ATOM      4  C   UNL     1      35.533 -20.226 -20.230  0.00  0.00    +0.036 C 
ATOM      5  C   UNL     1      33.375 -21.739 -19.282  0.00  0.00    -0.005 C 
ATOM      6  C   UNL     1      34.233 -19.961 -20.672  0.00  0.00    +0.143 C 
ATOM      7  C   UNL     1      33.156 -20.715 -20.199  0.00  0.00    +0.037 C 
ATOM      8  C   UNL     1      36.637 -19.397 -20.761  0.00  0.00    +0.110 C 
ATOM      9  C   UNL     1      34.966 -18.203 -22.081  0.00  0.00    +0.160 C 
ATOM     10  C   UNL     1      36.254 -18.349 -21.735  0.00  0.00    +0.060 C 
ENDROOT
BRANCH   9  13
ATOM     11  S   UNL     1      33.979 -13.212 -23.457  0.00  0.00    -0.091 S 
ATOM     12  N   UNL     1      34.158 -17.616 -24.254  0.00  0.00    -0.266 NA
ATOM     13  C   UNL     1      34.530 -17.168 -23.039  0.00  0.00    +0.093 C 
ATOM     14  C   UNL     1      34.527 -15.840 -22.651  0.00  0.00    +0.081 C 
ATOM     15  C   UNL     1      34.099 -14.924 -23.620  0.00  0.00    +0.011 C 
ATOM     16  C   UNL     1      33.705 -15.344 -24.893  0.00  0.00    +0.005 C 
ATOM     17  C   UNL     1      33.749 -16.718 -25.178  0.00  0.00    +0.152 C 
ATOM     18  C   UNL     1      33.310 -14.232 -25.708  0.00  0.00    +0.005 C 
ATOM     19  C   UNL     1      33.411 -13.027 -25.054  0.00  0.00    +0.035 C 
ENDBRANCH   9  13
BRANCH   8  20
ATOM     20  N   UNL     1      37.883 -19.526 -20.434  0.00  0.00    -0.135 NA
BRANCH  20  21
ATOM     21  O   UNL     1      38.649 -18.765 -21.318  0.00  0.00    -0.265 OA
ATOM     22  H   UNL     1      39.425 -18.336 -21.017  0.00  0.00    +0.247 HD
ENDBRANCH  20  21
ENDBRANCH   8  20
BRANCH   2  23
ATOM     23  C   UNL     1      34.901 -23.109 -17.856  0.00  0.00    +0.020 C 
BRANCH  23  24
ATOM     24  C   UNL     1      35.749 -22.649 -16.660  0.00  0.00    -0.018 C 
BRANCH  24  25
ATOM     25  C   UNL     1      35.130 -23.080 -15.331  0.00  0.00    -0.077 C 
BRANCH  25  27
ATOM     26  O   UNL     1      37.903 -26.148 -14.615  0.00  0.00    -0.358 OA
ATOM     27  N   UNL     1      36.011 -24.022 -14.644  0.00  0.00    +0.390 N 
ATOM     28  C   UNL     1      35.614 -25.409 -14.924  0.00  0.00    -0.045 C 
ATOM     29  C   UNL     1      37.410 -23.810 -15.037  0.00  0.00    -0.045 C 
ATOM     30  C   UNL     1      38.308 -24.811 -14.317  0.00  0.00    +0.119 C 
ATOM     31  C   UNL     1      36.554 -26.372 -14.206  0.00  0.00    +0.119 C 
ATOM     32  H   UNL     1      35.925 -23.855 -13.641  0.00  0.00    -0.079 HD
ENDBRANCH  25  27
ENDBRANCH  24  25
ENDBRANCH  23  24
ENDBRANCH   2  23
TORSDOF 7
ENDMDL
MODEL 9
REMARK VINA RESULT:     -10.0      3.401     10.175
REMARK  Name = 135565465
REMARK  7 active torsions:
REMARK  status: ('A' for Active; 'I' for Inactive)
REMARK    1  A    between atoms: N_2  and  C_9
REMARK    2  A    between atoms: N_2  and  O_21
REMARK    3  A    between atoms: C_3  and  C_23
REMARK    4  A    between atoms: C_10  and  C_14
REMARK    5  A    between atoms: C_23  and  C_24
REMARK    6  A    between atoms: C_24  and  C_25
REMARK    7  A    between atoms: C_25  and  N_27
REMARK                            x       y       z     vdW  Elec       q    Type
REMARK                         _______ _______ _______ _____ _____    ______ ____
ROOT
ATOM      1  O   UNL     1      33.751 -21.139 -19.592  0.00  0.00    -0.453 OA
ATOM      2  C   UNL     1      33.470 -23.601 -16.258  0.00  0.00    -0.040 C 
ATOM      3  C   UNL     1      34.731 -23.134 -16.641  0.00  0.00    +0.053 C 
ATOM      4  C   UNL     1      34.859 -22.302 -17.760  0.00  0.00    +0.036 C 
ATOM      5  C   UNL     1      32.337 -23.243 -16.985  0.00  0.00    -0.005 C 
ATOM      6  C   UNL     1      33.717 -21.948 -18.484  0.00  0.00    +0.143 C 
ATOM      7  C   UNL     1      32.459 -22.416 -18.098  0.00  0.00    +0.037 C 
ATOM      8  C   UNL     1      36.167 -21.777 -18.209  0.00  0.00    +0.110 C 
ATOM      9  C   UNL     1      34.975 -20.658 -20.023  0.00  0.00    +0.160 C 
ATOM     10  C   UNL     1      36.142 -20.916 -19.414  0.00  0.00    +0.060 C 
ENDROOT
BRANCH   9  13
ATOM     11  S   UNL     1      34.976 -15.969 -22.430  0.00  0.00    -0.091 S 
ATOM     12  N   UNL     1      34.734 -20.441 -22.392  0.00  0.00    -0.266 NA
ATOM     13  C   UNL     1      34.895 -19.797 -21.220  0.00  0.00    +0.093 C 
ATOM     14  C   UNL     1      34.985 -18.424 -21.078  0.00  0.00    +0.081 C 
ATOM     15  C   UNL     1      34.900 -17.683 -22.262  0.00  0.00    +0.011 C 
ATOM     16  C   UNL     1      34.733 -18.309 -23.501  0.00  0.00    +0.005 C 
ATOM     17  C   UNL     1      34.654 -19.711 -23.527  0.00  0.00    +0.152 C 
ATOM     18  C   UNL     1      34.672 -17.349 -24.564  0.00  0.00    +0.005 C 
ATOM     19  C   UNL     1      34.790 -16.052 -24.123  0.00  0.00    +0.035 C 
ENDBRANCH   9  13
BRANCH   8  20
ATOM     20  N   UNL     1      37.300 -22.017 -17.630  0.00  0.00    -0.135 NA
BRANCH  20  21
ATOM     21  O   UNL     1      37.482 -21.072 -16.619  0.00  0.00    -0.265 OA
ATOM     22  H   UNL     1      37.224 -21.270 -15.741  0.00  0.00    +0.247 HD
ENDBRANCH  20  21
ENDBRANCH   8  20
BRANCH   2  23
ATOM     23  C   UNL     1      33.339 -24.487 -15.065  0.00  0.00    +0.020 C 
BRANCH  23  24
ATOM     24  C   UNL     1      34.702 -24.852 -14.459  0.00  0.00    -0.018 C 
BRANCH  24  25
ATOM     25  C   UNL     1      34.791 -24.446 -12.988  0.00  0.00    -0.077 C 
BRANCH  25  27
ATOM     26  O   UNL     1      38.953 -24.511 -12.450  0.00  0.00    -0.358 OA
ATOM     27  N   UNL     1      36.116 -24.754 -12.456  0.00  0.00    +0.390 N 
ATOM     28  C   UNL     1      36.947 -25.415 -13.472  0.00  0.00    -0.045 C 
ATOM     29  C   UNL     1      36.782 -23.535 -11.977  0.00  0.00    -0.045 C 
ATOM     30  C   UNL     1      38.168 -23.878 -11.439  0.00  0.00    +0.119 C 
ATOM     31  C   UNL     1      38.328 -25.715 -12.898  0.00  0.00    +0.119 C 
ATOM     32  H   UNL     1      35.997 -25.390 -11.668  0.00  0.00    -0.079 HD
ENDBRANCH  25  27
ENDBRANCH  24  25
ENDBRANCH  23  24
ENDBRANCH   2  23
TORSDOF 7
ENDMDL
