MODEL 1
REMARK VINA RESULT:     -11.9      0.000      0.000
REMARK  Name = 71226662
REMARK  4 active torsions:
REMARK  status: ('A' for Active; 'I' for Inactive)
REMARK    1  A    between atoms: C_5  and  C_15
REMARK    2  A    between atoms: C_7  and  C_23
REMARK    3  A    between atoms: C_19  and  C_20
REMARK    4  A    between atoms: C_28  and  C_31
REMARK                            x       y       z     vdW  Elec       q    Type
REMARK                         _______ _______ _______ _____ _____    ______ ____
ROOT
ATOM      1  N   UNL     1      32.903 -24.539 -14.354  0.00  0.00    -0.251 N 
ATOM      2  N   UNL     1      34.832 -23.965 -15.290  0.00  0.00    -0.392 NA
ATOM      3  N   UNL     1      30.250 -24.071 -15.016  0.00  0.00    -0.231 NA
ATOM      4  N   UNL     1      30.795 -22.857 -16.915  0.00  0.00    -0.344 N 
ATOM      5  C   UNL     1      34.266 -24.603 -14.286  0.00  0.00    +0.182 C 
ATOM      6  C   UNL     1      32.580 -23.812 -15.474  0.00  0.00    +0.185 C 
ATOM      7  C   UNL     1      33.788 -23.468 -16.036  0.00  0.00    +0.136 C 
ATOM      8  C   UNL     1      31.905 -25.043 -13.546  0.00  0.00    +0.089 C 
ATOM      9  C   UNL     1      31.183 -23.576 -15.807  0.00  0.00    +0.128 C 
ATOM     10  C   UNL     1      30.632 -24.796 -13.899  0.00  0.00    +0.116 C 
ATOM     11  H   UNL     1      29.838 -22.721 -17.102  0.00  0.00    +0.143 HD
ATOM     12  H   UNL     1      31.473 -22.478 -17.519  0.00  0.00    +0.143 HD
ENDROOT
BRANCH   5  15
ATOM     13  O   UNL     1      36.417 -26.937 -15.126  0.00  0.00    -0.260 OA
ATOM     14  N   UNL     1      36.448 -25.422 -13.369  0.00  0.00    -0.263 N 
ATOM     15  C   UNL     1      34.997 -25.332 -13.174  0.00  0.00    +0.143 C 
ATOM     16  C   UNL     1      34.852 -24.630 -11.818  0.00  0.00    +0.030 C 
ATOM     17  C   UNL     1      36.105 -23.764 -11.720  0.00  0.00    +0.024 C 
ATOM     18  C   UNL     1      37.171 -24.621 -12.384  0.00  0.00    +0.095 C 
ATOM     19  C   UNL     1      37.030 -26.268 -14.302  0.00  0.00    +0.293 C 
BRANCH  19  20
ATOM     20  C   UNL     1      38.472 -26.363 -14.298  0.00  0.00    -0.007 C 
ATOM     21  C   UNL     1      39.670 -26.443 -14.294  0.00  0.00    -0.081 C 
ATOM     22  C   UNL     1      41.129 -26.539 -14.289  0.00  0.00    +0.090 C 
ENDBRANCH  19  20
ENDBRANCH   5  15
BRANCH   7  23
ATOM     23  C   UNL     1      33.993 -22.703 -17.228  0.00  0.00    +0.028 C 
ATOM     24  C   UNL     1      32.902 -22.320 -18.009  0.00  0.00    +0.002 C 
ATOM     25  C   UNL     1      35.286 -22.342 -17.609  0.00  0.00    +0.002 C 
ATOM     26  C   UNL     1      33.104 -21.576 -19.171  0.00  0.00    +0.005 C 
ATOM     27  C   UNL     1      35.487 -21.597 -18.771  0.00  0.00    +0.005 C 
ATOM     28  C   UNL     1      34.396 -21.214 -19.552  0.00  0.00    +0.054 C 
BRANCH  28  31
ATOM     29  O   UNL     1      34.785 -21.032 -21.838  0.00  0.00    -0.270 OA
ATOM     30  N   UNL     1      34.610 -19.044 -20.604  0.00  0.00    -0.266 N 
ATOM     31  C   UNL     1      34.606 -20.436 -20.763  0.00  0.00    +0.251 C 
ATOM     32  H   UNL     1      34.452 -18.717 -19.688  0.00  0.00    +0.157 HD
ATOM     33  N   UNL     1      34.773 -16.748 -21.206  0.00  0.00    -0.229 NA
ATOM     34  C   UNL     1      34.811 -18.045 -21.588  0.00  0.00    +0.134 C 
ATOM     35  C   UNL     1      35.036 -18.464 -22.889  0.00  0.00    +0.034 C 
ATOM     36  C   UNL     1      35.236 -17.491 -23.861  0.00  0.00    +0.004 C 
ATOM     37  C   UNL     1      34.970 -15.830 -22.179  0.00  0.00    +0.100 C 
ATOM     38  C   UNL     1      35.204 -16.146 -23.508  0.00  0.00    +0.021 C 
ENDBRANCH  28  31
ENDBRANCH   7  23
TORSDOF 4
ENDMDL
MODEL 2
REMARK VINA RESULT:     -11.4      8.601     15.972
REMARK  Name = 71226662
REMARK  4 active torsions:
REMARK  status: ('A' for Active; 'I' for Inactive)
REMARK    1  A    between atoms: C_5  and  C_15
REMARK    2  A    between atoms: C_7  and  C_23
REMARK    3  A    between atoms: C_19  and  C_20
REMARK    4  A    between atoms: C_28  and  C_31
REMARK                            x       y       z     vdW  Elec       q    Type
REMARK                         _______ _______ _______ _____ _____    ______ ____
ROOT
ATOM      1  N   UNL     1      32.365  -7.970 -21.189  0.00  0.00    -0.251 N 
ATOM      2  N   UNL     1      33.040  -8.705 -23.171  0.00  0.00    -0.392 NA
ATOM      3  N   UNL     1      31.646  -9.239 -18.829  0.00  0.00    -0.231 NA
ATOM      4  N   UNL     1      32.015 -11.357 -19.696  0.00  0.00    -0.344 N 
ATOM      5  C   UNL     1      32.763  -7.636 -22.453  0.00  0.00    +0.182 C 
ATOM      6  C   UNL     1      32.390  -9.340 -21.097  0.00  0.00    +0.185 C 
ATOM      7  C   UNL     1      32.810  -9.772 -22.333  0.00  0.00    +0.136 C 
ATOM      8  C   UNL     1      31.979  -7.211 -20.103  0.00  0.00    +0.089 C 
ATOM      9  C   UNL     1      32.010  -9.990 -19.852  0.00  0.00    +0.128 C 
ATOM     10  C   UNL     1      31.638  -7.861 -18.978  0.00  0.00    +0.116 C 
ATOM     11  H   UNL     1      31.750 -11.755 -18.835  0.00  0.00    +0.143 HD
ATOM     12  H   UNL     1      32.283 -11.938 -20.444  0.00  0.00    +0.143 HD
ENDROOT
BRANCH   5  15
ATOM     13  O   UNL     1      35.643  -6.595 -23.635  0.00  0.00    -0.260 OA
ATOM     14  N   UNL     1      33.475  -6.045 -24.251  0.00  0.00    -0.263 N 
ATOM     15  C   UNL     1      32.861  -6.198 -22.928  0.00  0.00    +0.143 C 
ATOM     16  C   UNL     1      31.485  -5.537 -23.084  0.00  0.00    +0.030 C 
ATOM     17  C   UNL     1      31.154  -5.729 -24.561  0.00  0.00    +0.024 C 
ATOM     18  C   UNL     1      32.506  -5.583 -25.241  0.00  0.00    +0.095 C 
ATOM     19  C   UNL     1      34.835  -6.207 -24.471  0.00  0.00    +0.293 C 
BRANCH  19  20
ATOM     20  C   UNL     1      35.333  -5.892 -25.791  0.00  0.00    -0.007 C 
ATOM     21  C   UNL     1      35.746  -5.631 -26.888  0.00  0.00    -0.081 C 
ATOM     22  C   UNL     1      36.251  -5.313 -28.223  0.00  0.00    +0.090 C 
ENDBRANCH  19  20
ENDBRANCH   5  15
BRANCH   7  23
ATOM     23  C   UNL     1      33.001 -11.128 -22.750  0.00  0.00    +0.028 C 
ATOM     24  C   UNL     1      34.056 -11.454 -23.603  0.00  0.00    +0.002 C 
ATOM     25  C   UNL     1      32.131 -12.123 -22.303  0.00  0.00    +0.002 C 
ATOM     26  C   UNL     1      34.240 -12.775 -24.010  0.00  0.00    +0.005 C 
ATOM     27  C   UNL     1      32.317 -13.444 -22.709  0.00  0.00    +0.005 C 
ATOM     28  C   UNL     1      33.371 -13.771 -23.563  0.00  0.00    +0.054 C 
BRANCH  28  31
ATOM     29  O   UNL     1      33.120 -15.509 -25.088  0.00  0.00    -0.270 OA
ATOM     30  N   UNL     1      34.235 -15.979 -23.077  0.00  0.00    -0.266 N 
ATOM     31  C   UNL     1      33.565 -15.149 -23.985  0.00  0.00    +0.251 C 
ATOM     32  H   UNL     1      34.531 -15.550 -22.242  0.00  0.00    +0.157 HD
ATOM     33  N   UNL     1      35.204 -17.964 -22.193  0.00  0.00    -0.229 NA
ATOM     34  C   UNL     1      34.543 -17.356 -23.204  0.00  0.00    +0.134 C 
ATOM     35  C   UNL     1      34.145 -17.997 -24.365  0.00  0.00    +0.034 C 
ATOM     36  C   UNL     1      34.442 -19.348 -24.498  0.00  0.00    +0.004 C 
ATOM     37  C   UNL     1      35.477 -19.278 -22.358  0.00  0.00    +0.100 C 
ATOM     38  C   UNL     1      35.121 -20.009 -23.480  0.00  0.00    +0.021 C 
ENDBRANCH  28  31
ENDBRANCH   7  23
TORSDOF 4
ENDMDL
MODEL 3
REMARK VINA RESULT:     -10.4      1.607      2.898
REMARK  Name = 71226662
REMARK  4 active torsions:
REMARK  status: ('A' for Active; 'I' for Inactive)
REMARK    1  A    between atoms: C_5  and  C_15
REMARK    2  A    between atoms: C_7  and  C_23
REMARK    3  A    between atoms: C_19  and  C_20
REMARK    4  A    between atoms: C_28  and  C_31
REMARK                            x       y       z     vdW  Elec       q    Type
REMARK                         _______ _______ _______ _____ _____    ______ ____
ROOT
ATOM      1  N   UNL     1      35.018 -24.047 -15.298  0.00  0.00    -0.251 N 
ATOM      2  N   UNL     1      36.651 -23.118 -16.480  0.00  0.00    -0.392 NA
ATOM      3  N   UNL     1      32.254 -24.057 -15.546  0.00  0.00    -0.231 NA
ATOM      4  N   UNL     1      32.283 -22.735 -17.450  0.00  0.00    -0.344 N 
ATOM      5  C   UNL     1      36.365 -23.864 -15.432  0.00  0.00    +0.182 C 
ATOM      6  C   UNL     1      34.406 -23.373 -16.327  0.00  0.00    +0.185 C 
ATOM      7  C   UNL     1      35.435 -22.807 -17.043  0.00  0.00    +0.136 C 
ATOM      8  C   UNL     1      34.258 -24.736 -14.375  0.00  0.00    +0.089 C 
ATOM      9  C   UNL     1      32.955 -23.389 -16.442  0.00  0.00    +0.128 C 
ATOM     10  C   UNL     1      32.924 -24.718 -14.528  0.00  0.00    +0.116 C 
ATOM     11  H   UNL     1      31.300 -22.772 -17.490  0.00  0.00    +0.143 HD
ATOM     12  H   UNL     1      32.785 -22.231 -18.130  0.00  0.00    +0.143 HD
ENDROOT
BRANCH   5  15
ATOM     13  O   UNL     1      36.513 -22.641 -12.390  0.00  0.00    -0.260 OA
ATOM     14  N   UNL     1      36.817 -24.809 -13.157  0.00  0.00    -0.263 N 
ATOM     15  C   UNL     1      37.373 -24.466 -14.470  0.00  0.00    +0.143 C 
ATOM     16  C   UNL     1      37.952 -25.791 -14.981  0.00  0.00    +0.030 C 
ATOM     17  C   UNL     1      37.078 -26.851 -14.318  0.00  0.00    +0.024 C 
ATOM     18  C   UNL     1      36.788 -26.255 -12.950  0.00  0.00    +0.095 C 
ATOM     19  C   UNL     1      36.487 -23.853 -12.209  0.00  0.00    +0.293 C 
BRANCH  19  20
ATOM     20  C   UNL     1      36.079 -24.329 -10.906  0.00  0.00    -0.007 C 
ATOM     21  C   UNL     1      35.741 -24.725  -9.824  0.00  0.00    -0.081 C 
ATOM     22  C   UNL     1      35.329 -25.207  -8.506  0.00  0.00    +0.090 C 
ENDBRANCH  19  20
ENDBRANCH   5  15
BRANCH   7  23
ATOM     23  C   UNL     1      35.320 -22.000 -18.219  0.00  0.00    +0.028 C 
ATOM     24  C   UNL     1      34.078 -21.836 -18.835  0.00  0.00    +0.002 C 
ATOM     25  C   UNL     1      36.449 -21.376 -18.749  0.00  0.00    +0.002 C 
ATOM     26  C   UNL     1      33.967 -21.050 -19.981  0.00  0.00    +0.005 C 
ATOM     27  C   UNL     1      36.337 -20.590 -19.895  0.00  0.00    +0.005 C 
ATOM     28  C   UNL     1      35.097 -20.426 -20.512  0.00  0.00    +0.054 C 
BRANCH  28  31
ATOM     29  O   UNL     1      34.953 -20.158 -22.818  0.00  0.00    -0.270 OA
ATOM     30  N   UNL     1      34.930 -18.220 -21.494  0.00  0.00    -0.266 N 
ATOM     31  C   UNL     1      34.980 -19.604 -21.706  0.00  0.00    +0.251 C 
ATOM     32  H   UNL     1      34.960 -17.929 -20.554  0.00  0.00    +0.157 HD
ATOM     33  N   UNL     1      34.806 -15.904 -22.024  0.00  0.00    -0.229 NA
ATOM     34  C   UNL     1      34.842 -17.184 -22.457  0.00  0.00    +0.134 C 
ATOM     35  C   UNL     1      34.797 -17.553 -23.791  0.00  0.00    +0.034 C 
ATOM     36  C   UNL     1      34.711 -16.543 -24.743  0.00  0.00    +0.004 C 
ATOM     37  C   UNL     1      34.721 -14.949 -22.977  0.00  0.00    +0.100 C 
ATOM     38  C   UNL     1      34.672 -15.213 -24.337  0.00  0.00    +0.021 C 
ENDBRANCH  28  31
ENDBRANCH   7  23
TORSDOF 4
ENDMDL
MODEL 4
REMARK VINA RESULT:     -10.3     10.741     19.535
REMARK  Name = 71226662
REMARK  4 active torsions:
REMARK  status: ('A' for Active; 'I' for Inactive)
REMARK    1  A    between atoms: C_5  and  C_15
REMARK    2  A    between atoms: C_7  and  C_23
REMARK    3  A    between atoms: C_19  and  C_20
REMARK    4  A    between atoms: C_28  and  C_31
REMARK                            x       y       z     vdW  Elec       q    Type
REMARK                         _______ _______ _______ _____ _____    ______ ____
ROOT
ATOM      1  N   UNL     1      32.562  -3.862 -25.873  0.00  0.00    -0.251 N 
ATOM      2  N   UNL     1      33.419  -5.875 -26.249  0.00  0.00    -0.392 NA
ATOM      3  N   UNL     1      30.945  -2.822 -23.874  0.00  0.00    -0.231 NA
ATOM      4  N   UNL     1      30.821  -4.839 -22.737  0.00  0.00    -0.344 N 
ATOM      5  C   UNL     1      33.332  -4.638 -26.694  0.00  0.00    +0.182 C 
ATOM      6  C   UNL     1      32.132  -4.657 -24.839  0.00  0.00    +0.185 C 
ATOM      7  C   UNL     1      32.674  -5.896 -25.093  0.00  0.00    +0.136 C 
ATOM      8  C   UNL     1      32.190  -2.535 -25.926  0.00  0.00    +0.089 C 
ATOM      9  C   UNL     1      31.284  -4.096 -23.799  0.00  0.00    +0.128 C 
ATOM     10  C   UNL     1      31.407  -2.067 -24.939  0.00  0.00    +0.116 C 
ATOM     11  H   UNL     1      30.249  -4.419 -22.054  0.00  0.00    +0.143 HD
ATOM     12  H   UNL     1      31.061  -5.790 -22.659  0.00  0.00    +0.143 HD
ENDROOT
BRANCH   5  15
ATOM     13  O   UNL     1      36.611  -4.662 -26.857  0.00  0.00    -0.260 OA
ATOM     14  N   UNL     1      35.018  -4.978 -28.514  0.00  0.00    -0.263 N 
ATOM     15  C   UNL     1      33.987  -4.099 -27.953  0.00  0.00    +0.143 C 
ATOM     16  C   UNL     1      32.989  -3.923 -29.104  0.00  0.00    +0.030 C 
ATOM     17  C   UNL     1      33.120  -5.217 -29.902  0.00  0.00    +0.024 C 
ATOM     18  C   UNL     1      34.602  -5.540 -29.797  0.00  0.00    +0.095 C 
ATOM     19  C   UNL     1      36.268  -5.136 -27.934  0.00  0.00    +0.293 C 
BRANCH  19  20
ATOM     20  C   UNL     1      37.240  -5.922 -28.662  0.00  0.00    -0.007 C 
ATOM     21  C   UNL     1      38.046  -6.574 -29.266  0.00  0.00    -0.081 C 
ATOM     22  C   UNL     1      39.029  -7.369 -30.000  0.00  0.00    +0.090 C 
ENDBRANCH  19  20
ENDBRANCH   5  15
BRANCH   7  23
ATOM     23  C   UNL     1      32.520  -7.078 -24.302  0.00  0.00    +0.028 C 
ATOM     24  C   UNL     1      33.596  -7.566 -23.560  0.00  0.00    +0.002 C 
ATOM     25  C   UNL     1      31.294  -7.743 -24.274  0.00  0.00    +0.002 C 
ATOM     26  C   UNL     1      33.446  -8.719 -22.790  0.00  0.00    +0.005 C 
ATOM     27  C   UNL     1      31.145  -8.896 -23.504  0.00  0.00    +0.005 C 
ATOM     28  C   UNL     1      32.220  -9.385 -22.762  0.00  0.00    +0.054 C 
BRANCH  28  31
ATOM     29  O   UNL     1      31.145 -10.638 -21.123  0.00  0.00    -0.270 OA
ATOM     30  N   UNL     1      33.003 -11.601 -22.184  0.00  0.00    -0.266 N 
ATOM     31  C   UNL     1      32.064 -10.586 -21.958  0.00  0.00    +0.251 C 
ATOM     32  H   UNL     1      33.674 -11.417 -22.881  0.00  0.00    +0.157 HD
ATOM     33  N   UNL     1      34.108 -13.693 -21.923  0.00  0.00    -0.229 NA
ATOM     34  C   UNL     1      33.114 -12.859 -21.542  0.00  0.00    +0.134 C 
ATOM     35  C   UNL     1      32.188 -13.157 -20.555  0.00  0.00    +0.034 C 
ATOM     36  C   UNL     1      32.289 -14.389 -19.918  0.00  0.00    +0.004 C 
ATOM     37  C   UNL     1      34.174 -14.881 -21.283  0.00  0.00    +0.100 C 
ATOM     38  C   UNL     1      33.299 -15.273 -20.283  0.00  0.00    +0.021 C 
ENDBRANCH  28  31
ENDBRANCH   7  23
TORSDOF 4
ENDMDL
MODEL 5
REMARK VINA RESULT:      -9.6     11.125     15.767
REMARK  Name = 71226662
REMARK  4 active torsions:
REMARK  status: ('A' for Active; 'I' for Inactive)
REMARK    1  A    between atoms: C_5  and  C_15
REMARK    2  A    between atoms: C_7  and  C_23
REMARK    3  A    between atoms: C_19  and  C_20
REMARK    4  A    between atoms: C_28  and  C_31
REMARK                            x       y       z     vdW  Elec       q    Type
REMARK                         _______ _______ _______ _____ _____    ______ ____
ROOT
ATOM      1  N   UNL     1      31.987  -9.956 -20.864  0.00  0.00    -0.251 N 
ATOM      2  N   UNL     1      32.539 -10.275 -22.990  0.00  0.00    -0.392 NA
ATOM      3  N   UNL     1      32.178  -7.782 -19.152  0.00  0.00    -0.231 NA
ATOM      4  N   UNL     1      33.127  -6.418 -20.769  0.00  0.00    -0.344 N 
ATOM      5  C   UNL     1      32.022 -10.831 -21.914  0.00  0.00    +0.182 C 
ATOM      6  C   UNL     1      32.516  -8.766 -21.303  0.00  0.00    +0.185 C 
ATOM      7  C   UNL     1      32.849  -8.988 -22.618  0.00  0.00    +0.136 C 
ATOM      8  C   UNL     1      31.546 -10.079 -19.563  0.00  0.00    +0.089 C 
ATOM      9  C   UNL     1      32.608  -7.636 -20.391  0.00  0.00    +0.128 C 
ATOM     10  C   UNL     1      31.654  -9.004 -18.764  0.00  0.00    +0.116 C 
ATOM     11  H   UNL     1      33.171  -5.679 -20.119  0.00  0.00    +0.143 HD
ATOM     12  H   UNL     1      33.453  -6.285 -21.688  0.00  0.00    +0.143 HD
ENDROOT
BRANCH   5  15
ATOM     13  O   UNL     1      32.354 -12.784 -24.531  0.00  0.00    -0.260 OA
ATOM     14  N   UNL     1      32.475 -13.269 -22.266  0.00  0.00    -0.263 N 
ATOM     15  C   UNL     1      31.517 -12.258 -21.807  0.00  0.00    +0.143 C 
ATOM     16  C   UNL     1      31.217 -12.668 -20.359  0.00  0.00    +0.030 C 
ATOM     17  C   UNL     1      32.496 -13.363 -19.904  0.00  0.00    +0.024 C 
ATOM     18  C   UNL     1      32.962 -14.087 -21.158  0.00  0.00    +0.095 C 
ATOM     19  C   UNL     1      32.766 -13.475 -23.606  0.00  0.00    +0.293 C 
BRANCH  19  20
ATOM     20  C   UNL     1      33.622 -14.593 -23.932  0.00  0.00    -0.007 C 
ATOM     21  C   UNL     1      34.332 -15.522 -24.203  0.00  0.00    -0.081 C 
ATOM     22  C   UNL     1      35.197 -16.654 -24.533  0.00  0.00    +0.090 C 
ENDBRANCH  19  20
ENDBRANCH   5  15
BRANCH   7  23
ATOM     23  C   UNL     1      33.439  -8.050 -23.524  0.00  0.00    +0.028 C 
ATOM     24  C   UNL     1      32.652  -7.429 -24.495  0.00  0.00    +0.002 C 
ATOM     25  C   UNL     1      34.800  -7.757 -23.436  0.00  0.00    +0.002 C 
ATOM     26  C   UNL     1      33.228  -6.516 -25.378  0.00  0.00    +0.005 C 
ATOM     27  C   UNL     1      35.375  -6.844 -24.319  0.00  0.00    +0.005 C 
ATOM     28  C   UNL     1      34.589  -6.223 -25.291  0.00  0.00    +0.054 C 
BRANCH  28  31
ATOM     29  O   UNL     1      34.784  -4.095 -26.209  0.00  0.00    -0.270 OA
ATOM     30  N   UNL     1      36.182  -5.777 -27.058  0.00  0.00    -0.266 N 
ATOM     31  C   UNL     1      35.188  -5.269 -26.211  0.00  0.00    +0.251 C 
ATOM     32  H   UNL     1      36.397  -6.731 -26.942  0.00  0.00    +0.157 HD
ATOM     33  N   UNL     1      37.837  -5.793 -28.768  0.00  0.00    -0.229 NA
ATOM     34  C   UNL     1      36.916  -5.099 -28.062  0.00  0.00    +0.134 C 
ATOM     35  C   UNL     1      36.642  -3.755 -28.256  0.00  0.00    +0.034 C 
ATOM     36  C   UNL     1      37.357  -3.080 -29.239  0.00  0.00    +0.004 C 
ATOM     37  C   UNL     1      38.513  -5.104 -29.714  0.00  0.00    +0.100 C 
ATOM     38  C   UNL     1      38.313  -3.760 -29.987  0.00  0.00    +0.021 C 
ENDBRANCH  28  31
ENDBRANCH   7  23
TORSDOF 4
ENDMDL
MODEL 6
REMARK VINA RESULT:      -9.2     11.570     20.229
REMARK  Name = 71226662
REMARK  4 active torsions:
REMARK  status: ('A' for Active; 'I' for Inactive)
REMARK    1  A    between atoms: C_5  and  C_15
REMARK    2  A    between atoms: C_7  and  C_23
REMARK    3  A    between atoms: C_19  and  C_20
REMARK    4  A    between atoms: C_28  and  C_31
REMARK                            x       y       z     vdW  Elec       q    Type
REMARK                         _______ _______ _______ _____ _____    ______ ____
ROOT
ATOM      1  N   UNL     1      33.403  -3.539 -25.380  0.00  0.00    -0.251 N 
ATOM      2  N   UNL     1      32.339  -4.621 -23.760  0.00  0.00    -0.392 NA
ATOM      3  N   UNL     1      35.230  -4.322 -27.315  0.00  0.00    -0.231 NA
ATOM      4  N   UNL     1      35.232  -6.532 -26.613  0.00  0.00    -0.344 N 
ATOM      5  C   UNL     1      32.516  -3.453 -24.344  0.00  0.00    +0.182 C 
ATOM      6  C   UNL     1      33.819  -4.846 -25.459  0.00  0.00    +0.185 C 
ATOM      7  C   UNL     1      33.149  -5.495 -24.449  0.00  0.00    +0.136 C 
ATOM      8  C   UNL     1      33.895  -2.602 -26.265  0.00  0.00    +0.089 C 
ATOM      9  C   UNL     1      34.778  -5.240 -26.480  0.00  0.00    +0.128 C 
ATOM     10  C   UNL     1      34.778  -3.019 -27.188  0.00  0.00    +0.116 C 
ATOM     11  H   UNL     1      35.882  -6.755 -27.319  0.00  0.00    +0.143 HD
ATOM     12  H   UNL     1      34.908  -7.234 -26.003  0.00  0.00    +0.143 HD
ENDROOT
BRANCH   5  15
ATOM     13  O   UNL     1      30.316  -2.171 -26.416  0.00  0.00    -0.260 OA
ATOM     14  N   UNL     1      30.380  -2.169 -24.097  0.00  0.00    -0.263 N 
ATOM     15  C   UNL     1      31.839  -2.153 -23.950  0.00  0.00    +0.143 C 
ATOM     16  C   UNL     1      32.055  -1.804 -22.472  0.00  0.00    +0.030 C 
ATOM     17  C   UNL     1      30.813  -2.357 -21.781  0.00  0.00    +0.024 C 
ATOM     18  C   UNL     1      29.711  -2.110 -22.800  0.00  0.00    +0.095 C 
ATOM     19  C   UNL     1      29.748  -2.121 -25.331  0.00  0.00    +0.293 C 
BRANCH  19  20
ATOM     20  C   UNL     1      28.307  -2.003 -25.331  0.00  0.00    -0.007 C 
ATOM     21  C   UNL     1      27.111  -1.904 -25.332  0.00  0.00    -0.081 C 
ATOM     22  C   UNL     1      25.654  -1.786 -25.332  0.00  0.00    +0.090 C 
ENDBRANCH  19  20
ENDBRANCH   5  15
BRANCH   7  23
ATOM     23  C   UNL     1      33.238  -6.883 -24.113  0.00  0.00    +0.028 C 
ATOM     24  C   UNL     1      32.177  -7.742 -24.406  0.00  0.00    +0.002 C 
ATOM     25  C   UNL     1      34.385  -7.377 -23.492  0.00  0.00    +0.002 C 
ATOM     26  C   UNL     1      32.265  -9.094 -24.077  0.00  0.00    +0.005 C 
ATOM     27  C   UNL     1      34.471  -8.730 -23.164  0.00  0.00    +0.005 C 
ATOM     28  C   UNL     1      33.412  -9.589 -23.456  0.00  0.00    +0.054 C 
BRANCH  28  31
ATOM     29  O   UNL     1      33.601 -11.325 -21.921  0.00  0.00    -0.270 OA
ATOM     30  N   UNL     1      33.495 -11.892 -24.195  0.00  0.00    -0.266 N 
ATOM     31  C   UNL     1      33.503 -10.999 -23.115  0.00  0.00    +0.251 C 
ATOM     32  H   UNL     1      33.410 -11.484 -25.087  0.00  0.00    +0.157 HD
ATOM     33  N   UNL     1      33.563 -13.973 -25.347  0.00  0.00    -0.229 NA
ATOM     34  C   UNL     1      33.593 -13.305 -24.171  0.00  0.00    +0.134 C 
ATOM     35  C   UNL     1      33.713 -13.917 -22.935  0.00  0.00    +0.034 C 
ATOM     36  C   UNL     1      33.812 -15.304 -22.901  0.00  0.00    +0.004 C 
ATOM     37  C   UNL     1      33.660 -15.320 -25.275  0.00  0.00    +0.100 C 
ATOM     38  C   UNL     1      33.785 -16.026 -24.089  0.00  0.00    +0.021 C 
ENDBRANCH  28  31
ENDBRANCH   7  23
TORSDOF 4
ENDMDL
MODEL 7
REMARK VINA RESULT:      -9.2     11.532     20.133
REMARK  Name = 71226662
REMARK  4 active torsions:
REMARK  status: ('A' for Active; 'I' for Inactive)
REMARK    1  A    between atoms: C_5  and  C_15
REMARK    2  A    between atoms: C_7  and  C_23
REMARK    3  A    between atoms: C_19  and  C_20
REMARK    4  A    between atoms: C_28  and  C_31
REMARK                            x       y       z     vdW  Elec       q    Type
REMARK                         _______ _______ _______ _____ _____    ______ ____
ROOT
ATOM      1  N   UNL     1      31.691  -3.208 -24.762  0.00  0.00    -0.251 N 
ATOM      2  N   UNL     1      32.556  -4.989 -25.765  0.00  0.00    -0.392 NA
ATOM      3  N   UNL     1      30.566  -2.788 -22.261  0.00  0.00    -0.231 NA
ATOM      4  N   UNL     1      30.866  -4.991 -21.605  0.00  0.00    -0.344 N 
ATOM      5  C   UNL     1      32.278  -3.707 -25.891  0.00  0.00    +0.182 C 
ATOM      6  C   UNL     1      31.589  -4.239 -23.860  0.00  0.00    +0.185 C 
ATOM      7  C   UNL     1      32.129  -5.328 -24.502  0.00  0.00    +0.136 C 
ATOM      8  C   UNL     1      31.231  -1.950 -24.430  0.00  0.00    +0.089 C 
ATOM      9  C   UNL     1      30.996  -4.001 -22.553  0.00  0.00    +0.128 C 
ATOM     10  C   UNL     1      30.694  -1.786 -23.209  0.00  0.00    +0.116 C 
ATOM     11  H   UNL     1      30.459  -4.786 -20.732  0.00  0.00    +0.143 HD
ATOM     12  H   UNL     1      31.181  -5.903 -21.800  0.00  0.00    +0.143 HD
ENDROOT
BRANCH   5  15
ATOM     13  O   UNL     1      34.940  -1.787 -25.857  0.00  0.00    -0.260 OA
ATOM     14  N   UNL     1      33.937  -2.940 -27.603  0.00  0.00    -0.263 N 
ATOM     15  C   UNL     1      32.557  -2.854 -27.115  0.00  0.00    +0.143 C 
ATOM     16  C   UNL     1      31.713  -3.272 -28.326  0.00  0.00    +0.030 C 
ATOM     17  C   UNL     1      32.628  -4.218 -29.098  0.00  0.00    +0.024 C 
ATOM     18  C   UNL     1      34.006  -3.606 -28.901  0.00  0.00    +0.095 C 
ATOM     19  C   UNL     1      35.004  -2.344 -26.947  0.00  0.00    +0.293 C 
BRANCH  19  20
ATOM     20  C   UNL     1      36.291  -2.386 -27.605  0.00  0.00    -0.007 C 
ATOM     21  C   UNL     1      37.359  -2.422 -28.152  0.00  0.00    -0.081 C 
ATOM     22  C   UNL     1      38.660  -2.464 -28.819  0.00  0.00    +0.090 C 
ENDBRANCH  19  20
ENDBRANCH   5  15
BRANCH   7  23
ATOM     23  C   UNL     1      32.259  -6.654 -23.981  0.00  0.00    +0.028 C 
ATOM     24  C   UNL     1      33.524  -7.216 -23.807  0.00  0.00    +0.002 C 
ATOM     25  C   UNL     1      31.119  -7.387 -23.648  0.00  0.00    +0.002 C 
ATOM     26  C   UNL     1      33.649  -8.509 -23.301  0.00  0.00    +0.005 C 
ATOM     27  C   UNL     1      31.245  -8.680 -23.141  0.00  0.00    +0.005 C 
ATOM     28  C   UNL     1      32.509  -9.242 -22.967  0.00  0.00    +0.054 C 
BRANCH  28  31
ATOM     29  O   UNL     1      32.141 -10.853 -21.331  0.00  0.00    -0.270 OA
ATOM     30  N   UNL     1      33.358 -11.493 -23.232  0.00  0.00    -0.266 N 
ATOM     31  C   UNL     1      32.640 -10.589 -22.437  0.00  0.00    +0.251 C 
ATOM     32  H   UNL     1      33.694 -11.138 -24.087  0.00  0.00    +0.157 HD
ATOM     33  N   UNL     1      34.377 -13.542 -23.885  0.00  0.00    -0.229 NA
ATOM     34  C   UNL     1      33.664 -12.851 -22.967  0.00  0.00    +0.134 C 
ATOM     35  C   UNL     1      33.209 -13.387 -21.774  0.00  0.00    +0.034 C 
ATOM     36  C   UNL     1      33.506 -14.718 -21.503  0.00  0.00    +0.004 C 
ATOM     37  C   UNL     1      34.645 -14.833 -23.588  0.00  0.00    +0.100 C 
ATOM     38  C   UNL     1      34.237 -15.463 -22.423  0.00  0.00    +0.021 C 
ENDBRANCH  28  31
ENDBRANCH   7  23
TORSDOF 4
ENDMDL
