MODEL 1
REMARK VINA RESULT:     -13.2      0.000      0.000
REMARK  Name = 5287728
REMARK  9 active torsions:
REMARK  status: ('A' for Active; 'I' for Inactive)
REMARK    1  A    between atoms: S_1  and  N_4
REMARK    2  A    between atoms: S_1  and  N_22
REMARK    3  A    between atoms: C_5  and  N_10
REMARK    4  A    between atoms: N_10  and  C_13
REMARK    5  A    between atoms: C_13  and  C_14
REMARK    6  A    between atoms: C_15  and  O_20
REMARK    7  A    between atoms: N_22  and  C_24
REMARK    8  A    between atoms: C_27  and  O_30
REMARK    9  A    between atoms: O_30  and  C_32
REMARK                            x       y       z     vdW  Elec       q    Type
REMARK                         _______ _______ _______ _____ _____    ______ ____
ROOT
ATOM      1  S   UNL     1      36.103 -18.791 -20.892  0.00  0.00    +0.113 S 
ATOM      2  O   UNL     1      35.538 -17.534 -20.434  0.00  0.00    -0.138 OA
ATOM      3  O   UNL     1      37.539 -18.999 -20.856  0.00  0.00    -0.138 OA
ENDROOT
BRANCH   1   4
ATOM      4  N   UNL     1      35.347 -20.061 -20.023  0.00  0.00    -0.143 NA
ATOM      5  C   UNL     1      34.156 -22.559 -19.130  0.00  0.00    -0.059 C 
ATOM      6  C   UNL     1      33.304 -21.336 -19.486  0.00  0.00    -0.002 C 
ATOM      7  C   UNL     1      35.553 -22.120 -18.678  0.00  0.00    -0.002 C 
ATOM      8  C   UNL     1      34.003 -20.467 -20.529  0.00  0.00    +0.095 C 
ATOM      9  C   UNL     1      36.217 -21.239 -19.732  0.00  0.00    +0.095 C 
BRANCH   5  10
ATOM     10  N   UNL     1      33.506 -23.331 -18.073  0.00  0.00    +0.388 N 
ATOM     11  H   UNL     1      34.157 -23.450 -17.297  0.00  0.00    -0.084 HD
ATOM     12  H   UNL     1      33.234 -24.239 -18.450  0.00  0.00    -0.084 HD
BRANCH  10  13
ATOM     13  C   UNL     1      32.313 -22.648 -17.595  0.00  0.00    -0.051 C 
BRANCH  13  14
ATOM     14  C   UNL     1      31.895 -23.139 -16.235  0.00  0.00    -0.010 C 
ATOM     15  C   UNL     1      30.552 -23.165 -15.881  0.00  0.00    +0.128 C 
ATOM     16  C   UNL     1      32.874 -23.562 -15.345  0.00  0.00    -0.003 C 
ATOM     17  C   UNL     1      30.182 -23.622 -14.617  0.00  0.00    +0.036 C 
ATOM     18  C   UNL     1      32.504 -24.018 -14.080  0.00  0.00    -0.000 C 
ATOM     19  C   UNL     1      31.158 -24.048 -13.716  0.00  0.00    +0.003 C 
BRANCH  15  20
ATOM     20  O   UNL     1      29.586 -22.751 -16.749  0.00  0.00    -0.506 OA
ATOM     21  H   UNL     1      28.719 -23.103 -16.688  0.00  0.00    +0.292 HD
ENDBRANCH  15  20
ENDBRANCH  13  14
ENDBRANCH  10  13
ENDBRANCH   5  10
ENDBRANCH   1   4
BRANCH   1  22
ATOM     22  N   UNL     1      35.501 -19.087 -22.481  0.00  0.00    -0.205 N 
ATOM     23  H   UNL     1      35.537 -19.983 -22.889  0.00  0.00    +0.175 HD
BRANCH  22  24
ATOM     24  C   UNL     1      34.942 -17.962 -23.185  0.00  0.00    +0.069 C 
ATOM     25  C   UNL     1      35.183 -16.675 -22.721  0.00  0.00    +0.053 C 
ATOM     26  C   UNL     1      34.168 -18.177 -24.318  0.00  0.00    +0.016 C 
ATOM     27  C   UNL     1      34.641 -15.585 -23.402  0.00  0.00    +0.147 C 
ATOM     28  C   UNL     1      33.626 -17.087 -24.999  0.00  0.00    +0.004 C 
ATOM     29  C   UNL     1      33.863 -15.791 -24.541  0.00  0.00    +0.038 C 
BRANCH  27  30
ATOM     30  O   UNL     1      34.871 -14.320 -22.954  0.00  0.00    -0.453 OA
BRANCH  30  32
ATOM     31  F   UNL     1      30.637 -11.564 -20.804  0.00  0.00    -0.204 F 
ATOM     32  C   UNL     1      33.803 -13.625 -22.412  0.00  0.00    +0.145 C 
ATOM     33  C   UNL     1      33.345 -12.486 -23.051  0.00  0.00    +0.040 C 
ATOM     34  C   UNL     1      33.221 -14.087 -21.246  0.00  0.00    +0.040 C 
ATOM     35  C   UNL     1      32.270 -11.787 -22.505  0.00  0.00    +0.033 C 
ATOM     36  C   UNL     1      32.146 -13.387 -20.698  0.00  0.00    +0.033 C 
ATOM     37  C   UNL     1      31.671 -12.236 -21.328  0.00  0.00    +0.140 C 
ENDBRANCH  30  32
ENDBRANCH  27  30
ENDBRANCH  22  24
ENDBRANCH   1  22
TORSDOF 9
ENDMDL
MODEL 2
REMARK VINA RESULT:     -12.9      3.553      6.579
REMARK  Name = 5287728
REMARK  9 active torsions:
REMARK  status: ('A' for Active; 'I' for Inactive)
REMARK    1  A    between atoms: S_1  and  N_4
REMARK    2  A    between atoms: S_1  and  N_22
REMARK    3  A    between atoms: C_5  and  N_10
REMARK    4  A    between atoms: N_10  and  C_13
REMARK    5  A    between atoms: C_13  and  C_14
REMARK    6  A    between atoms: C_15  and  O_20
REMARK    7  A    between atoms: N_22  and  C_24
REMARK    8  A    between atoms: C_27  and  O_30
REMARK    9  A    between atoms: O_30  and  C_32
REMARK                            x       y       z     vdW  Elec       q    Type
REMARK                         _______ _______ _______ _____ _____    ______ ____
ROOT
ATOM      1  S   UNL     1      33.294 -13.617 -23.482  0.00  0.00    +0.113 S 
ATOM      2  O   UNL     1      34.178 -12.496 -23.219  0.00  0.00    -0.138 OA
ATOM      3  O   UNL     1      32.982 -13.994 -24.849  0.00  0.00    -0.138 OA
ENDROOT
BRANCH   1   4
ATOM      4  N   UNL     1      33.920 -14.990 -22.668  0.00  0.00    -0.143 NA
ATOM      5  C   UNL     1      35.581 -17.011 -21.398  0.00  0.00    -0.059 C 
ATOM      6  C   UNL     1      34.952 -17.229 -22.778  0.00  0.00    -0.002 C 
ATOM      7  C   UNL     1      34.742 -16.021 -20.582  0.00  0.00    -0.002 C 
ATOM      8  C   UNL     1      34.755 -15.900 -23.506  0.00  0.00    +0.095 C 
ATOM      9  C   UNL     1      34.548 -14.712 -21.342  0.00  0.00    +0.095 C 
BRANCH   5  10
ATOM     10  N   UNL     1      35.684 -18.284 -20.689  0.00  0.00    +0.388 N 
ATOM     11  H   UNL     1      35.337 -18.166 -19.737  0.00  0.00    -0.084 HD
ATOM     12  H   UNL     1      36.662 -18.575 -20.676  0.00  0.00    -0.084 HD
BRANCH  10  13
ATOM     13  C   UNL     1      34.900 -19.312 -21.358  0.00  0.00    -0.051 C 
BRANCH  13  14
ATOM     14  C   UNL     1      34.467 -20.395 -20.406  0.00  0.00    -0.010 C 
ATOM     15  C   UNL     1      35.414 -21.163 -19.739  0.00  0.00    +0.128 C 
ATOM     16  C   UNL     1      33.109 -20.610 -20.209  0.00  0.00    -0.003 C 
ATOM     17  C   UNL     1      34.996 -22.162 -18.861  0.00  0.00    +0.036 C 
ATOM     18  C   UNL     1      32.691 -21.611 -19.331  0.00  0.00    -0.000 C 
ATOM     19  C   UNL     1      33.634 -22.386 -18.658  0.00  0.00    +0.003 C 
BRANCH  15  20
ATOM     20  O   UNL     1      36.748 -20.957 -19.927  0.00  0.00    -0.506 OA
ATOM     21  H   UNL     1      37.055 -20.571 -20.725  0.00  0.00    +0.292 HD
ENDBRANCH  15  20
ENDBRANCH  13  14
ENDBRANCH  10  13
ENDBRANCH   5  10
ENDBRANCH   1   4
BRANCH   1  22
ATOM     22  N   UNL     1      31.838 -13.354 -22.593  0.00  0.00    -0.205 N 
ATOM     23  H   UNL     1      31.079 -13.978 -22.649  0.00  0.00    +0.175 HD
BRANCH  22  24
ATOM     24  C   UNL     1      31.787 -12.177 -21.765  0.00  0.00    +0.069 C 
ATOM     25  C   UNL     1      31.604 -10.932 -22.354  0.00  0.00    +0.053 C 
ATOM     26  C   UNL     1      31.921 -12.301 -20.388  0.00  0.00    +0.016 C 
ATOM     27  C   UNL     1      31.555  -9.792 -21.550  0.00  0.00    +0.147 C 
ATOM     28  C   UNL     1      31.872 -11.161 -19.586  0.00  0.00    +0.004 C 
ATOM     29  C   UNL     1      31.688  -9.907 -20.167  0.00  0.00    +0.038 C 
BRANCH  27  30
ATOM     30  O   UNL     1      31.377  -8.568 -22.118  0.00  0.00    -0.453 OA
BRANCH  30  32
ATOM     31  F   UNL     1      35.682  -6.272 -24.637  0.00  0.00    -0.204 F 
ATOM     32  C   UNL     1      32.463  -7.989 -22.753  0.00  0.00    +0.145 C 
ATOM     33  C   UNL     1      33.645  -7.826 -22.053  0.00  0.00    +0.040 C 
ATOM     34  C   UNL     1      32.338  -7.589 -24.071  0.00  0.00    +0.040 C 
ATOM     35  C   UNL     1      34.738  -7.243 -22.693  0.00  0.00    +0.033 C 
ATOM     36  C   UNL     1      33.431  -7.005 -24.711  0.00  0.00    +0.033 C 
ATOM     37  C   UNL     1      34.631  -6.832 -24.022  0.00  0.00    +0.140 C 
ENDBRANCH  30  32
ENDBRANCH  27  30
ENDBRANCH  22  24
ENDBRANCH   1  22
TORSDOF 9
ENDMDL
MODEL 3
REMARK VINA RESULT:     -12.9      3.284     10.474
REMARK  Name = 5287728
REMARK  9 active torsions:
REMARK  status: ('A' for Active; 'I' for Inactive)
REMARK    1  A    between atoms: S_1  and  N_4
REMARK    2  A    between atoms: S_1  and  N_22
REMARK    3  A    between atoms: C_5  and  N_10
REMARK    4  A    between atoms: N_10  and  C_13
REMARK    5  A    between atoms: C_13  and  C_14
REMARK    6  A    between atoms: C_15  and  O_20
REMARK    7  A    between atoms: N_22  and  C_24
REMARK    8  A    between atoms: C_27  and  O_30
REMARK    9  A    between atoms: O_30  and  C_32
REMARK                            x       y       z     vdW  Elec       q    Type
REMARK                         _______ _______ _______ _____ _____    ______ ____
ROOT
ATOM      1  S   UNL     1      33.498 -23.168 -18.016  0.00  0.00    +0.113 S 
ATOM      2  O   UNL     1      32.212 -22.779 -17.467  0.00  0.00    -0.138 OA
ATOM      3  O   UNL     1      33.694 -24.511 -18.532  0.00  0.00    -0.138 OA
ENDROOT
BRANCH   1   4
ATOM      4  N   UNL     1      33.912 -22.047 -19.246  0.00  0.00    -0.143 NA
ATOM      5  C   UNL     1      34.627 -19.704 -20.813  0.00  0.00    -0.059 C 
ATOM      6  C   UNL     1      33.213 -20.292 -20.833  0.00  0.00    -0.002 C 
ATOM      7  C   UNL     1      35.649 -20.793 -20.470  0.00  0.00    -0.002 C 
ATOM      8  C   UNL     1      32.891 -20.991 -19.514  0.00  0.00    +0.095 C 
ATOM      9  C   UNL     1      35.292 -21.485 -19.158  0.00  0.00    +0.095 C 
BRANCH   5  10
ATOM     10  N   UNL     1      34.942 -19.112 -22.111  0.00  0.00    +0.388 N 
ATOM     11  H   UNL     1      34.083 -18.764 -22.538  0.00  0.00    -0.084 HD
ATOM     12  H   UNL     1      35.368 -19.826 -22.703  0.00  0.00    -0.084 HD
BRANCH  10  13
ATOM     13  C   UNL     1      35.881 -18.010 -21.962  0.00  0.00    -0.051 C 
BRANCH  13  14
ATOM     14  C   UNL     1      35.184 -16.675 -21.977  0.00  0.00    -0.010 C 
ATOM     15  C   UNL     1      34.879 -16.057 -23.183  0.00  0.00    +0.128 C 
ATOM     16  C   UNL     1      34.855 -16.078 -20.766  0.00  0.00    -0.003 C 
ATOM     17  C   UNL     1      34.234 -14.821 -23.178  0.00  0.00    +0.036 C 
ATOM     18  C   UNL     1      34.210 -14.841 -20.763  0.00  0.00    -0.000 C 
ATOM     19  C   UNL     1      33.899 -14.213 -21.968  0.00  0.00    +0.003 C 
BRANCH  15  20
ATOM     20  O   UNL     1      35.199 -16.637 -24.373  0.00  0.00    -0.506 OA
ATOM     21  H   UNL     1      35.814 -16.223 -24.947  0.00  0.00    +0.292 HD
ENDBRANCH  15  20
ENDBRANCH  13  14
ENDBRANCH  10  13
ENDBRANCH   5  10
ENDBRANCH   1   4
BRANCH   1  22
ATOM     22  N   UNL     1      34.703 -22.805 -16.834  0.00  0.00    -0.205 N 
ATOM     23  H   UNL     1      35.423 -22.158 -17.013  0.00  0.00    +0.175 HD
BRANCH  22  24
ATOM     24  C   UNL     1      34.603 -23.494 -15.573  0.00  0.00    +0.069 C 
ATOM     25  C   UNL     1      33.393 -23.504 -14.891  0.00  0.00    +0.053 C 
ATOM     26  C   UNL     1      35.719 -24.139 -15.055  0.00  0.00    +0.016 C 
ATOM     27  C   UNL     1      33.298 -24.170 -13.669  0.00  0.00    +0.147 C 
ATOM     28  C   UNL     1      35.623 -24.805 -13.833  0.00  0.00    +0.004 C 
ATOM     29  C   UNL     1      34.413 -24.821 -13.141  0.00  0.00    +0.038 C 
BRANCH  27  30
ATOM     30  O   UNL     1      32.117 -24.185 -12.993  0.00  0.00    -0.453 OA
BRANCH  30  32
ATOM     31  F   UNL     1      27.485 -24.040 -15.937  0.00  0.00    -0.204 F 
ATOM     32  C   UNL     1      30.949 -24.148 -13.736  0.00  0.00    +0.145 C 
ATOM     33  C   UNL     1      30.495 -22.934 -14.219  0.00  0.00    +0.040 C 
ATOM     34  C   UNL     1      30.266 -25.327 -13.976  0.00  0.00    +0.040 C 
ATOM     35  C   UNL     1      29.319 -22.898 -14.967  0.00  0.00    +0.033 C 
ATOM     36  C   UNL     1      29.089 -25.290 -14.723  0.00  0.00    +0.033 C 
ATOM     37  C   UNL     1      28.616 -24.076 -15.218  0.00  0.00    +0.140 C 
ENDBRANCH  30  32
ENDBRANCH  27  30
ENDBRANCH  22  24
ENDBRANCH   1  22
TORSDOF 9
ENDMDL
MODEL 4
REMARK VINA RESULT:     -12.7      3.505      6.358
REMARK  Name = 5287728
REMARK  9 active torsions:
REMARK  status: ('A' for Active; 'I' for Inactive)
REMARK    1  A    between atoms: S_1  and  N_4
REMARK    2  A    between atoms: S_1  and  N_22
REMARK    3  A    between atoms: C_5  and  N_10
REMARK    4  A    between atoms: N_10  and  C_13
REMARK    5  A    between atoms: C_13  and  C_14
REMARK    6  A    between atoms: C_15  and  O_20
REMARK    7  A    between atoms: N_22  and  C_24
REMARK    8  A    between atoms: C_27  and  O_30
REMARK    9  A    between atoms: O_30  and  C_32
REMARK                            x       y       z     vdW  Elec       q    Type
REMARK                         _______ _______ _______ _____ _____    ______ ____
ROOT
ATOM      1  S   UNL     1      33.445 -13.698 -23.584  0.00  0.00    +0.113 S 
ATOM      2  O   UNL     1      34.422 -12.765 -23.053  0.00  0.00    -0.138 OA
ATOM      3  O   UNL     1      33.080 -13.649 -24.989  0.00  0.00    -0.138 OA
ENDROOT
BRANCH   1   4
ATOM      4  N   UNL     1      33.971 -15.287 -23.213  0.00  0.00    -0.143 NA
ATOM      5  C   UNL     1      35.471 -17.739 -22.773  0.00  0.00    -0.059 C 
ATOM      6  C   UNL     1      34.545 -17.561 -23.981  0.00  0.00    -0.002 C 
ATOM      7  C   UNL     1      35.004 -16.854 -21.612  0.00  0.00    -0.002 C 
ATOM      8  C   UNL     1      34.443 -16.090 -24.379  0.00  0.00    +0.095 C 
ATOM      9  C   UNL     1      34.894 -15.395 -22.045  0.00  0.00    +0.095 C 
BRANCH   5  10
ATOM     10  N   UNL     1      35.489 -19.140 -22.359  0.00  0.00    +0.388 N 
ATOM     11  H   UNL     1      36.314 -19.308 -21.783  0.00  0.00    -0.084 HD
ATOM     12  H   UNL     1      35.513 -19.728 -23.192  0.00  0.00    -0.084 HD
BRANCH  10  13
ATOM     13  C   UNL     1      34.297 -19.467 -21.591  0.00  0.00    -0.051 C 
BRANCH  13  14
ATOM     14  C   UNL     1      34.588 -20.463 -20.501  0.00  0.00    -0.010 C 
ATOM     15  C   UNL     1      33.549 -21.121 -19.856  0.00  0.00    +0.128 C 
ATOM     16  C   UNL     1      35.911 -20.710 -20.155  0.00  0.00    -0.003 C 
ATOM     17  C   UNL     1      33.836 -22.042 -18.849  0.00  0.00    +0.036 C 
ATOM     18  C   UNL     1      36.198 -21.630 -19.146  0.00  0.00    -0.000 C 
ATOM     19  C   UNL     1      35.161 -22.296 -18.494  0.00  0.00    +0.003 C 
BRANCH  15  20
ATOM     20  O   UNL     1      32.249 -20.885 -20.191  0.00  0.00    -0.506 OA
ATOM     21  H   UNL     1      31.646 -21.598 -20.261  0.00  0.00    +0.292 HD
ENDBRANCH  15  20
ENDBRANCH  13  14
ENDBRANCH  10  13
ENDBRANCH   5  10
ENDBRANCH   1   4
BRANCH   1  22
ATOM     22  N   UNL     1      32.031 -13.591 -22.601  0.00  0.00    -0.205 N 
ATOM     23  H   UNL     1      31.338 -14.291 -22.614  0.00  0.00    +0.175 HD
BRANCH  22  24
ATOM     24  C   UNL     1      31.912 -12.428 -21.759  0.00  0.00    +0.069 C 
ATOM     25  C   UNL     1      31.662 -11.188 -22.334  0.00  0.00    +0.053 C 
ATOM     26  C   UNL     1      32.048 -12.560 -20.383  0.00  0.00    +0.016 C 
ATOM     27  C   UNL     1      31.547 -10.062 -21.518  0.00  0.00    +0.147 C 
ATOM     28  C   UNL     1      31.934 -11.435 -19.569  0.00  0.00    +0.004 C 
ATOM     29  C   UNL     1      31.683 -10.186 -20.136  0.00  0.00    +0.038 C 
BRANCH  27  30
ATOM     30  O   UNL     1      31.304  -8.843 -22.073  0.00  0.00    -0.453 OA
BRANCH  30  32
ATOM     31  F   UNL     1      35.476  -6.301 -24.578  0.00  0.00    -0.204 F 
ATOM     32  C   UNL     1      32.356  -8.201 -22.705  0.00  0.00    +0.145 C 
ATOM     33  C   UNL     1      32.239  -7.872 -24.043  0.00  0.00    +0.040 C 
ATOM     34  C   UNL     1      33.497  -7.906 -21.981  0.00  0.00    +0.040 C 
ATOM     35  C   UNL     1      33.298  -7.227 -24.679  0.00  0.00    +0.033 C 
ATOM     36  C   UNL     1      34.558  -7.262 -22.618  0.00  0.00    +0.033 C 
ATOM     37  C   UNL     1      34.458  -6.921 -23.967  0.00  0.00    +0.140 C 
ENDBRANCH  30  32
ENDBRANCH  27  30
ENDBRANCH  22  24
ENDBRANCH   1  22
TORSDOF 9
ENDMDL
MODEL 5
REMARK VINA RESULT:     -12.5      3.988     10.830
REMARK  Name = 5287728
REMARK  9 active torsions:
REMARK  status: ('A' for Active; 'I' for Inactive)
REMARK    1  A    between atoms: S_1  and  N_4
REMARK    2  A    between atoms: S_1  and  N_22
REMARK    3  A    between atoms: C_5  and  N_10
REMARK    4  A    between atoms: N_10  and  C_13
REMARK    5  A    between atoms: C_13  and  C_14
REMARK    6  A    between atoms: C_15  and  O_20
REMARK    7  A    between atoms: N_22  and  C_24
REMARK    8  A    between atoms: C_27  and  O_30
REMARK    9  A    between atoms: O_30  and  C_32
REMARK                            x       y       z     vdW  Elec       q    Type
REMARK                         _______ _______ _______ _____ _____    ______ ____
ROOT
ATOM      1  S   UNL     1      33.808 -23.400 -17.905  0.00  0.00    +0.113 S 
ATOM      2  O   UNL     1      33.523 -24.661 -18.565  0.00  0.00    -0.138 OA
ATOM      3  O   UNL     1      34.875 -23.317 -16.924  0.00  0.00    -0.138 OA
ENDROOT
BRANCH   1   4
ATOM      4  N   UNL     1      34.086 -22.218 -19.116  0.00  0.00    -0.143 NA
ATOM      5  C   UNL     1      34.576 -19.788 -20.636  0.00  0.00    -0.059 C 
ATOM      6  C   UNL     1      33.200 -20.460 -20.602  0.00  0.00    -0.002 C 
ATOM      7  C   UNL     1      35.678 -20.823 -20.384  0.00  0.00    -0.002 C 
ATOM      8  C   UNL     1      32.992 -21.219 -19.293  0.00  0.00    +0.095 C 
ATOM      9  C   UNL     1      35.434 -21.576 -19.080  0.00  0.00    +0.095 C 
BRANCH   5  10
ATOM     10  N   UNL     1      34.784 -19.138 -21.928  0.00  0.00    +0.388 N 
ATOM     11  H   UNL     1      33.903 -18.733 -22.244  0.00  0.00    -0.084 HD
ATOM     12  H   UNL     1      35.115 -19.834 -22.595  0.00  0.00    -0.084 HD
BRANCH  10  13
ATOM     13  C   UNL     1      35.782 -18.084 -21.819  0.00  0.00    -0.051 C 
BRANCH  13  14
ATOM     14  C   UNL     1      35.158 -16.715 -21.867  0.00  0.00    -0.010 C 
ATOM     15  C   UNL     1      34.915 -16.096 -23.086  0.00  0.00    +0.128 C 
ATOM     16  C   UNL     1      34.831 -16.086 -20.671  0.00  0.00    -0.003 C 
ATOM     17  C   UNL     1      34.336 -14.828 -23.112  0.00  0.00    +0.036 C 
ATOM     18  C   UNL     1      34.253 -14.816 -20.698  0.00  0.00    -0.000 C 
ATOM     19  C   UNL     1      34.005 -14.188 -21.917  0.00  0.00    +0.003 C 
BRANCH  15  20
ATOM     20  O   UNL     1      35.232 -16.708 -24.262  0.00  0.00    -0.506 OA
ATOM     21  H   UNL     1      34.938 -17.581 -24.431  0.00  0.00    +0.292 HD
ENDBRANCH  15  20
ENDBRANCH  13  14
ENDBRANCH  10  13
ENDBRANCH   5  10
ENDBRANCH   1   4
BRANCH   1  22
ATOM     22  N   UNL     1      32.331 -22.821 -17.225  0.00  0.00    -0.205 N 
ATOM     23  H   UNL     1      31.772 -22.159 -17.693  0.00  0.00    +0.175 HD
BRANCH  22  24
ATOM     24  C   UNL     1      31.955 -23.352 -15.941  0.00  0.00    +0.069 C 
ATOM     25  C   UNL     1      32.928 -23.548 -14.968  0.00  0.00    +0.053 C 
ATOM     26  C   UNL     1      30.624 -23.663 -15.690  0.00  0.00    +0.016 C 
ATOM     27  C   UNL     1      32.562 -24.064 -13.724  0.00  0.00    +0.147 C 
ATOM     28  C   UNL     1      30.260 -24.178 -14.447  0.00  0.00    +0.004 C 
ATOM     29  C   UNL     1      31.229 -24.379 -13.464  0.00  0.00    +0.038 C 
BRANCH  27  30
ATOM     30  O   UNL     1      33.508 -24.261 -12.766  0.00  0.00    -0.453 OA
BRANCH  30  32
ATOM     31  F   UNL     1      38.708 -24.903 -14.406  0.00  0.00    -0.204 F 
ATOM     32  C   UNL     1      34.820 -24.423 -13.179  0.00  0.00    +0.145 C 
ATOM     33  C   UNL     1      35.805 -23.627 -12.623  0.00  0.00    +0.040 C 
ATOM     34  C   UNL     1      35.111 -25.377 -14.138  0.00  0.00    +0.040 C 
ATOM     35  C   UNL     1      37.126 -23.790 -13.040  0.00  0.00    +0.033 C 
ATOM     36  C   UNL     1      36.432 -25.539 -14.555  0.00  0.00    +0.033 C 
ATOM     37  C   UNL     1      37.439 -24.746 -14.006  0.00  0.00    +0.140 C 
ENDBRANCH  30  32
ENDBRANCH  27  30
ENDBRANCH  22  24
ENDBRANCH   1  22
TORSDOF 9
ENDMDL
MODEL 6
REMARK VINA RESULT:     -12.1      3.259     10.196
REMARK  Name = 5287728
REMARK  9 active torsions:
REMARK  status: ('A' for Active; 'I' for Inactive)
REMARK    1  A    between atoms: S_1  and  N_4
REMARK    2  A    between atoms: S_1  and  N_22
REMARK    3  A    between atoms: C_5  and  N_10
REMARK    4  A    between atoms: N_10  and  C_13
REMARK    5  A    between atoms: C_13  and  C_14
REMARK    6  A    between atoms: C_15  and  O_20
REMARK    7  A    between atoms: N_22  and  C_24
REMARK    8  A    between atoms: C_27  and  O_30
REMARK    9  A    between atoms: O_30  and  C_32
REMARK                            x       y       z     vdW  Elec       q    Type
REMARK                         _______ _______ _______ _____ _____    ______ ____
ROOT
ATOM      1  S   UNL     1      35.051 -18.695 -22.447  0.00  0.00    +0.113 S 
ATOM      2  O   UNL     1      34.599 -19.489 -23.575  0.00  0.00    -0.138 OA
ATOM      3  O   UNL     1      36.454 -18.696 -22.072  0.00  0.00    -0.138 OA
ENDROOT
BRANCH   1   4
ATOM      4  N   UNL     1      34.557 -17.074 -22.705  0.00  0.00    -0.143 NA
ATOM      5  C   UNL     1      34.385 -14.222 -23.246  0.00  0.00    -0.059 C 
ATOM      6  C   UNL     1      34.253 -14.788 -21.828  0.00  0.00    -0.002 C 
ATOM      7  C   UNL     1      33.954 -15.270 -24.278  0.00  0.00    -0.002 C 
ATOM      8  C   UNL     1      35.033 -16.093 -21.686  0.00  0.00    +0.095 C 
ATOM      9  C   UNL     1      34.737 -16.568 -24.098  0.00  0.00    +0.095 C 
BRANCH   5  10
ATOM     10  N   UNL     1      33.567 -13.019 -23.383  0.00  0.00    +0.388 N 
ATOM     11  H   UNL     1      33.330 -12.885 -24.366  0.00  0.00    -0.084 HD
ATOM     12  H   UNL     1      34.096 -12.221 -23.033  0.00  0.00    -0.084 HD
BRANCH  10  13
ATOM     13  C   UNL     1      32.339 -13.140 -22.610  0.00  0.00    -0.051 C 
BRANCH  13  14
ATOM     14  C   UNL     1      32.125 -11.952 -21.710  0.00  0.00    -0.010 C 
ATOM     15  C   UNL     1      32.110 -10.667 -22.236  0.00  0.00    +0.128 C 
ATOM     16  C   UNL     1      31.944 -12.167 -20.349  0.00  0.00    -0.003 C 
ATOM     17  C   UNL     1      31.911  -9.578 -21.388  0.00  0.00    +0.036 C 
ATOM     18  C   UNL     1      31.745 -11.077 -19.501  0.00  0.00    -0.000 C 
ATOM     19  C   UNL     1      31.728  -9.784 -20.020  0.00  0.00    +0.003 C 
BRANCH  15  20
ATOM     20  O   UNL     1      32.287 -10.449 -23.569  0.00  0.00    -0.506 OA
ATOM     21  H   UNL     1      32.884  -9.788 -23.861  0.00  0.00    +0.292 HD
ENDBRANCH  15  20
ENDBRANCH  13  14
ENDBRANCH  10  13
ENDBRANCH   5  10
ENDBRANCH   1   4
BRANCH   1  22
ATOM     22  N   UNL     1      34.074 -19.116 -21.088  0.00  0.00    -0.205 N 
ATOM     23  H   UNL     1      33.290 -18.578 -20.830  0.00  0.00    +0.175 HD
BRANCH  22  24
ATOM     24  C   UNL     1      34.459 -20.290 -20.349  0.00  0.00    +0.069 C 
ATOM     25  C   UNL     1      33.479 -21.126 -19.829  0.00  0.00    +0.053 C 
ATOM     26  C   UNL     1      35.807 -20.573 -20.164  0.00  0.00    +0.016 C 
ATOM     27  C   UNL     1      33.853 -22.262 -19.113  0.00  0.00    +0.147 C 
ATOM     28  C   UNL     1      36.180 -21.709 -19.448  0.00  0.00    +0.004 C 
ATOM     29  C   UNL     1      35.204 -22.554 -18.923  0.00  0.00    +0.038 C 
BRANCH  27  30
ATOM     30  O   UNL     1      32.899 -23.086 -18.598  0.00  0.00    -0.453 OA
BRANCH  30  32
ATOM     31  F   UNL     1      32.561 -23.500 -13.134  0.00  0.00    -0.204 F 
ATOM     32  C   UNL     1      32.814 -23.191 -17.220  0.00  0.00    +0.145 C 
ATOM     33  C   UNL     1      31.587 -23.013 -16.605  0.00  0.00    +0.040 C 
ATOM     34  C   UNL     1      33.957 -23.470 -16.494  0.00  0.00    +0.040 C 
ATOM     35  C   UNL     1      31.502 -23.119 -15.217  0.00  0.00    +0.033 C 
ATOM     36  C   UNL     1      33.872 -23.575 -15.105  0.00  0.00    +0.033 C 
ATOM     37  C   UNL     1      32.644 -23.399 -14.467  0.00  0.00    +0.140 C 
ENDBRANCH  30  32
ENDBRANCH  27  30
ENDBRANCH  22  24
ENDBRANCH   1  22
TORSDOF 9
ENDMDL
MODEL 7
REMARK VINA RESULT:     -11.9      3.331     10.543
REMARK  Name = 5287728
REMARK  9 active torsions:
REMARK  status: ('A' for Active; 'I' for Inactive)
REMARK    1  A    between atoms: S_1  and  N_4
REMARK    2  A    between atoms: S_1  and  N_22
REMARK    3  A    between atoms: C_5  and  N_10
REMARK    4  A    between atoms: N_10  and  C_13
REMARK    5  A    between atoms: C_13  and  C_14
REMARK    6  A    between atoms: C_15  and  O_20
REMARK    7  A    between atoms: N_22  and  C_24
REMARK    8  A    between atoms: C_27  and  O_30
REMARK    9  A    between atoms: O_30  and  C_32
REMARK                            x       y       z     vdW  Elec       q    Type
REMARK                         _______ _______ _______ _____ _____    ______ ____
ROOT
ATOM      1  S   UNL     1      35.195 -18.762 -22.474  0.00  0.00    +0.113 S 
ATOM      2  O   UNL     1      34.607 -19.749 -23.362  0.00  0.00    -0.138 OA
ATOM      3  O   UNL     1      36.638 -18.674 -22.336  0.00  0.00    -0.138 OA
ENDROOT
BRANCH   1   4
ATOM      4  N   UNL     1      34.596 -17.219 -22.924  0.00  0.00    -0.143 NA
ATOM      5  C   UNL     1      34.235 -14.477 -23.821  0.00  0.00    -0.059 C 
ATOM      6  C   UNL     1      34.170 -14.861 -22.339  0.00  0.00    -0.002 C 
ATOM      7  C   UNL     1      33.848 -15.674 -24.696  0.00  0.00    -0.002 C 
ATOM      8  C   UNL     1      35.031 -16.089 -22.053  0.00  0.00    +0.095 C 
ATOM      9  C   UNL     1      34.713 -16.889 -24.375  0.00  0.00    +0.095 C 
BRANCH   5  10
ATOM     10  N   UNL     1      33.341 -13.352 -24.086  0.00  0.00    +0.388 N 
ATOM     11  H   UNL     1      32.644 -13.634 -24.776  0.00  0.00    -0.084 HD
ATOM     12  H   UNL     1      33.893 -12.571 -24.438  0.00  0.00    -0.084 HD
BRANCH  10  13
ATOM     13  C   UNL     1      32.664 -12.934 -22.868  0.00  0.00    -0.051 C 
BRANCH  13  14
ATOM     14  C   UNL     1      32.561 -11.435 -22.771  0.00  0.00    -0.010 C 
ATOM     15  C   UNL     1      31.460 -10.845 -22.163  0.00  0.00    +0.128 C 
ATOM     16  C   UNL     1      33.584 -10.658 -23.300  0.00  0.00    -0.003 C 
ATOM     17  C   UNL     1      31.381  -9.455 -22.082  0.00  0.00    +0.036 C 
ATOM     18  C   UNL     1      33.504  -9.267 -23.219  0.00  0.00    -0.000 C 
ATOM     19  C   UNL     1      32.403  -8.667 -22.610  0.00  0.00    +0.003 C 
BRANCH  15  20
ATOM     20  O   UNL     1      30.453 -11.601 -21.642  0.00  0.00    -0.506 OA
ATOM     21  H   UNL     1      30.625 -12.477 -21.355  0.00  0.00    +0.292 HD
ENDBRANCH  15  20
ENDBRANCH  13  14
ENDBRANCH  10  13
ENDBRANCH   5  10
ENDBRANCH   1   4
BRANCH   1  22
ATOM     22  N   UNL     1      34.462 -18.951 -20.923  0.00  0.00    -0.205 N 
ATOM     23  H   UNL     1      33.934 -18.230 -20.510  0.00  0.00    +0.175 HD
BRANCH  22  24
ATOM     24  C   UNL     1      34.657 -20.216 -20.262  0.00  0.00    +0.069 C 
ATOM     25  C   UNL     1      33.562 -20.896 -19.746  0.00  0.00    +0.053 C 
ATOM     26  C   UNL     1      35.939 -20.739 -20.149  0.00  0.00    +0.016 C 
ATOM     27  C   UNL     1      33.753 -22.120 -19.104  0.00  0.00    +0.147 C 
ATOM     28  C   UNL     1      36.129 -21.963 -19.508  0.00  0.00    +0.004 C 
ATOM     29  C   UNL     1      35.036 -22.654 -18.986  0.00  0.00    +0.038 C 
BRANCH  27  30
ATOM     30  O   UNL     1      32.685 -22.794 -18.594  0.00  0.00    -0.453 OA
BRANCH  30  32
ATOM     31  F   UNL     1      32.631 -23.769 -13.191  0.00  0.00    -0.204 F 
ATOM     32  C   UNL     1      32.672 -23.040 -17.231  0.00  0.00    +0.145 C 
ATOM     33  C   UNL     1      31.466 -23.014 -16.554  0.00  0.00    +0.040 C 
ATOM     34  C   UNL     1      33.864 -23.306 -16.582  0.00  0.00    +0.040 C 
ATOM     35  C   UNL     1      31.452 -23.262 -15.181  0.00  0.00    +0.033 C 
ATOM     36  C   UNL     1      33.851 -23.553 -15.210  0.00  0.00    +0.033 C 
ATOM     37  C   UNL     1      32.644 -23.531 -14.509  0.00  0.00    +0.140 C 
ENDBRANCH  30  32
ENDBRANCH  27  30
ENDBRANCH  22  24
ENDBRANCH   1  22
TORSDOF 9
ENDMDL
MODEL 8
REMARK VINA RESULT:     -11.8      3.654      6.475
REMARK  Name = 5287728
REMARK  9 active torsions:
REMARK  status: ('A' for Active; 'I' for Inactive)
REMARK    1  A    between atoms: S_1  and  N_4
REMARK    2  A    between atoms: S_1  and  N_22
REMARK    3  A    between atoms: C_5  and  N_10
REMARK    4  A    between atoms: N_10  and  C_13
REMARK    5  A    between atoms: C_13  and  C_14
REMARK    6  A    between atoms: C_15  and  O_20
REMARK    7  A    between atoms: N_22  and  C_24
REMARK    8  A    between atoms: C_27  and  O_30
REMARK    9  A    between atoms: O_30  and  C_32
REMARK                            x       y       z     vdW  Elec       q    Type
REMARK                         _______ _______ _______ _____ _____    ______ ____
ROOT
ATOM      1  S   UNL     1      33.545 -13.834 -23.717  0.00  0.00    +0.113 S 
ATOM      2  O   UNL     1      34.625 -12.954 -23.309  0.00  0.00    -0.138 OA
ATOM      3  O   UNL     1      33.057 -13.804 -25.084  0.00  0.00    -0.138 OA
ENDROOT
BRANCH   1   4
ATOM      4  N   UNL     1      33.999 -15.444 -23.336  0.00  0.00    -0.143 NA
ATOM      5  C   UNL     1      35.386 -17.960 -22.886  0.00  0.00    -0.059 C 
ATOM      6  C   UNL     1      34.461 -17.747 -24.088  0.00  0.00    -0.002 C 
ATOM      7  C   UNL     1      34.970 -17.044 -21.729  0.00  0.00    -0.002 C 
ATOM      8  C   UNL     1      34.425 -16.277 -24.499  0.00  0.00    +0.095 C 
ATOM      9  C   UNL     1      34.926 -15.585 -22.174  0.00  0.00    +0.095 C 
BRANCH   5  10
ATOM     10  N   UNL     1      35.343 -19.356 -22.461  0.00  0.00    +0.388 N 
ATOM     11  H   UNL     1      36.220 -19.593 -21.996  0.00  0.00    -0.084 HD
ATOM     12  H   UNL     1      35.206 -19.945 -23.282  0.00  0.00    -0.084 HD
BRANCH  10  13
ATOM     13  C   UNL     1      34.240 -19.580 -21.537  0.00  0.00    -0.051 C 
BRANCH  13  14
ATOM     14  C   UNL     1      34.616 -20.534 -20.435  0.00  0.00    -0.010 C 
ATOM     15  C   UNL     1      33.634 -21.240 -19.753  0.00  0.00    +0.128 C 
ATOM     16  C   UNL     1      35.959 -20.693 -20.117  0.00  0.00    -0.003 C 
ATOM     17  C   UNL     1      34.000 -22.120 -18.735  0.00  0.00    +0.036 C 
ATOM     18  C   UNL     1      36.325 -21.573 -19.098  0.00  0.00    -0.000 C 
ATOM     19  C   UNL     1      35.346 -22.286 -18.408  0.00  0.00    +0.003 C 
BRANCH  15  20
ATOM     20  O   UNL     1      32.315 -21.089 -20.060  0.00  0.00    -0.506 OA
ATOM     21  H   UNL     1      31.689 -21.718 -19.760  0.00  0.00    +0.292 HD
ENDBRANCH  15  20
ENDBRANCH  13  14
ENDBRANCH  10  13
ENDBRANCH   5  10
ENDBRANCH   1   4
BRANCH   1  22
ATOM     22  N   UNL     1      32.237 -13.602 -22.615  0.00  0.00    -0.205 N 
ATOM     23  H   UNL     1      31.654 -14.346 -22.341  0.00  0.00    +0.175 HD
BRANCH  22  24
ATOM     24  C   UNL     1      32.037 -12.265 -22.117  0.00  0.00    +0.069 C 
ATOM     25  C   UNL     1      32.385 -11.179 -22.910  0.00  0.00    +0.053 C 
ATOM     26  C   UNL     1      31.500 -12.079 -20.850  0.00  0.00    +0.016 C 
ATOM     27  C   UNL     1      32.192  -9.885 -22.426  0.00  0.00    +0.147 C 
ATOM     28  C   UNL     1      31.307 -10.785 -20.367  0.00  0.00    +0.004 C 
ATOM     29  C   UNL     1      31.653  -9.688 -21.155  0.00  0.00    +0.038 C 
BRANCH  27  30
ATOM     30  O   UNL     1      32.531  -8.814 -23.195  0.00  0.00    -0.453 OA
BRANCH  30  32
ATOM     31  F   UNL     1      31.670  -3.805 -21.117  0.00  0.00    -0.204 F 
ATOM     32  C   UNL     1      32.315  -7.550 -22.671  0.00  0.00    +0.145 C 
ATOM     33  C   UNL     1      33.017  -7.158 -21.545  0.00  0.00    +0.040 C 
ATOM     34  C   UNL     1      31.401  -6.714 -23.286  0.00  0.00    +0.040 C 
ATOM     35  C   UNL     1      32.798  -5.885 -21.018  0.00  0.00    +0.033 C 
ATOM     36  C   UNL     1      31.182  -5.442 -22.758  0.00  0.00    +0.033 C 
ATOM     37  C   UNL     1      31.880  -5.027 -21.624  0.00  0.00    +0.140 C 
ENDBRANCH  30  32
ENDBRANCH  27  30
ENDBRANCH  22  24
ENDBRANCH   1  22
TORSDOF 9
ENDMDL
MODEL 9
REMARK VINA RESULT:     -11.8      4.424     11.474
REMARK  Name = 5287728
REMARK  9 active torsions:
REMARK  status: ('A' for Active; 'I' for Inactive)
REMARK    1  A    between atoms: S_1  and  N_4
REMARK    2  A    between atoms: S_1  and  N_22
REMARK    3  A    between atoms: C_5  and  N_10
REMARK    4  A    between atoms: N_10  and  C_13
REMARK    5  A    between atoms: C_13  and  C_14
REMARK    6  A    between atoms: C_15  and  O_20
REMARK    7  A    between atoms: N_22  and  C_24
REMARK    8  A    between atoms: C_27  and  O_30
REMARK    9  A    between atoms: O_30  and  C_32
REMARK                            x       y       z     vdW  Elec       q    Type
REMARK                         _______ _______ _______ _____ _____    ______ ____
ROOT
ATOM      1  S   UNL     1      33.958 -14.398 -21.175  0.00  0.00    +0.113 S 
ATOM      2  O   UNL     1      35.097 -14.159 -20.308  0.00  0.00    -0.138 OA
ATOM      3  O   UNL     1      32.894 -15.291 -20.750  0.00  0.00    -0.138 OA
ENDROOT
BRANCH   1   4
ATOM      4  N   UNL     1      33.267 -12.880 -21.575  0.00  0.00    -0.143 NA
ATOM      5  C   UNL     1      31.592 -10.691 -22.500  0.00  0.00    -0.059 C 
ATOM      6  C   UNL     1      32.858 -11.117 -23.251  0.00  0.00    -0.002 C 
ATOM      7  C   UNL     1      31.710 -11.050 -21.015  0.00  0.00    -0.002 C 
ATOM      8  C   UNL     1      33.149 -12.600 -23.036  0.00  0.00    +0.095 C 
ATOM      9  C   UNL     1      32.019 -12.533 -20.833  0.00  0.00    +0.095 C 
BRANCH   5  10
ATOM     10  N   UNL     1      31.378  -9.254 -22.653  0.00  0.00    +0.388 N 
ATOM     11  H   UNL     1      30.439  -9.019 -22.330  0.00  0.00    -0.084 HD
ATOM     12  H   UNL     1      31.487  -9.009 -23.638  0.00  0.00    -0.084 HD
BRANCH  10  13
ATOM     13  C   UNL     1      32.352  -8.503 -21.876  0.00  0.00    -0.051 C 
BRANCH  13  14
ATOM     14  C   UNL     1      33.182  -7.595 -22.744  0.00  0.00    -0.010 C 
ATOM     15  C   UNL     1      32.599  -6.506 -23.380  0.00  0.00    +0.128 C 
ATOM     16  C   UNL     1      34.536  -7.867 -22.895  0.00  0.00    -0.003 C 
ATOM     17  C   UNL     1      33.382  -5.676 -24.180  0.00  0.00    +0.036 C 
ATOM     18  C   UNL     1      35.319  -7.036 -23.697  0.00  0.00    -0.000 C 
ATOM     19  C   UNL     1      34.742  -5.941 -24.339  0.00  0.00    +0.003 C 
BRANCH  15  20
ATOM     20  O   UNL     1      31.271  -6.234 -23.235  0.00  0.00    -0.506 OA
ATOM     21  H   UNL     1      30.993  -5.549 -22.658  0.00  0.00    +0.292 HD
ENDBRANCH  15  20
ENDBRANCH  13  14
ENDBRANCH  10  13
ENDBRANCH   5  10
ENDBRANCH   1   4
BRANCH   1  22
ATOM     22  N   UNL     1      34.565 -14.890 -22.713  0.00  0.00    -0.205 N 
ATOM     23  H   UNL     1      34.832 -14.233 -23.397  0.00  0.00    +0.175 HD
BRANCH  22  24
ATOM     24  C   UNL     1      34.663 -16.307 -22.950  0.00  0.00    +0.069 C 
ATOM     25  C   UNL     1      35.317 -17.113 -22.027  0.00  0.00    +0.053 C 
ATOM     26  C   UNL     1      34.102 -16.851 -24.099  0.00  0.00    +0.016 C 
ATOM     27  C   UNL     1      35.412 -18.486 -22.258  0.00  0.00    +0.147 C 
ATOM     28  C   UNL     1      34.197 -18.223 -24.329  0.00  0.00    +0.004 C 
ATOM     29  C   UNL     1      34.852 -19.040 -23.409  0.00  0.00    +0.038 C 
BRANCH  27  30
ATOM     30  O   UNL     1      36.053 -19.283 -21.360  0.00  0.00    -0.453 OA
BRANCH  30  32
ATOM     31  F   UNL     1      33.003 -22.762 -18.404  0.00  0.00    -0.204 F 
ATOM     32  C   UNL     1      35.284 -20.161 -20.614  0.00  0.00    +0.145 C 
ATOM     33  C   UNL     1      35.912 -21.148 -19.877  0.00  0.00    +0.040 C 
ATOM     34  C   UNL     1      33.908 -20.026 -20.626  0.00  0.00    +0.040 C 
ATOM     35  C   UNL     1      35.137 -22.031 -19.126  0.00  0.00    +0.033 C 
ATOM     36  C   UNL     1      33.132 -20.911 -19.876  0.00  0.00    +0.033 C 
ATOM     37  C   UNL     1      33.747 -21.913 -19.126  0.00  0.00    +0.140 C 
ENDBRANCH  30  32
ENDBRANCH  27  30
ENDBRANCH  22  24
ENDBRANCH   1  22
TORSDOF 9
ENDMDL
