MODEL 1
REMARK VINA RESULT:     -11.6      0.000      0.000
REMARK  Name = 445481
REMARK  5 active torsions:
REMARK  status: ('A' for Active; 'I' for Inactive)
REMARK    1  A    between atoms: N_2  and  C_21
REMARK    2  A    between atoms: C_3  and  N_7
REMARK    3  A    between atoms: N_7  and  S_9
REMARK    4  A    between atoms: S_9  and  C_14
REMARK    5  A    between atoms: C_21  and  C_24
REMARK                            x       y       z     vdW  Elec       q    Type
REMARK                         _______ _______ _______ _____ _____    ______ ____
ROOT
ATOM      1  O   UNL     1      36.775 -21.014 -19.598  0.00  0.00    -0.273 OA
ATOM      2  N   UNL     1      35.326 -19.828 -21.024  0.00  0.00    -0.273 N 
ATOM      3  C   UNL     1      34.410 -21.552 -19.751  0.00  0.00    +0.153 C 
ATOM      4  C   UNL     1      33.298 -20.625 -20.231  0.00  0.00    +0.048 C 
ATOM      5  C   UNL     1      33.931 -19.881 -21.391  0.00  0.00    +0.096 C 
ATOM      6  C   UNL     1      35.671 -20.789 -20.072  0.00  0.00    +0.242 C 
ENDROOT
BRANCH   3   7
ATOM      7  N   UNL     1      34.327 -21.771 -18.303  0.00  0.00    -0.171 NA
ATOM      8  H   UNL     1      35.281 -21.877 -17.958  0.00  0.00    +0.149 HD
BRANCH   7   9
ATOM      9  S   UNL     1      33.429 -23.118 -17.739  0.00  0.00    +0.066 S 
ATOM     10  O   UNL     1      33.773 -24.285 -18.528  0.00  0.00    -0.152 OA
ATOM     11  O   UNL     1      32.048 -22.721 -17.544  0.00  0.00    -0.152 OA
BRANCH   9  14
ATOM     12  S   UNL     1      35.614 -23.032 -15.806  0.00  0.00    -0.066 S 
ATOM     13  N   UNL     1      33.953 -24.623 -12.669  0.00  0.00    -0.243 NA
ATOM     14  C   UNL     1      34.003 -23.477 -16.079  0.00  0.00    +0.153 C 
ATOM     15  C   UNL     1      33.391 -24.034 -15.010  0.00  0.00    +0.046 C 
ATOM     16  C   UNL     1      34.272 -24.113 -13.890  0.00  0.00    +0.089 C 
ATOM     17  C   UNL     1      35.535 -23.596 -14.184  0.00  0.00    +0.048 C 
ATOM     18  C   UNL     1      36.536 -23.588 -13.203  0.00  0.00    +0.010 C 
ATOM     19  C   UNL     1      36.216 -24.108 -11.955  0.00  0.00    +0.021 C 
ATOM     20  C   UNL     1      34.941 -24.599 -11.750  0.00  0.00    +0.099 C 
ENDBRANCH   9  14
ENDBRANCH   7   9
ENDBRANCH   3   7
BRANCH   2  21
ATOM     21  C   UNL     1      36.253 -18.942 -21.693  0.00  0.00    +0.135 C 
BRANCH  21  24
ATOM     22  N   UNL     1      35.185 -17.581 -23.471  0.00  0.00    -0.313 N 
ATOM     23  N   UNL     1      33.450 -14.566 -24.703  0.00  0.00    -0.241 NA
ATOM     24  C   UNL     1      35.546 -17.703 -22.170  0.00  0.00    +0.046 C 
ATOM     25  C   UNL     1      35.174 -16.594 -21.481  0.00  0.00    +0.013 C 
ATOM     26  C   UNL     1      34.540 -15.724 -22.412  0.00  0.00    +0.017 C 
ATOM     27  C   UNL     1      34.561 -16.369 -23.651  0.00  0.00    +0.068 C 
ATOM     28  C   UNL     1      33.951 -14.455 -22.325  0.00  0.00    +0.022 C 
ATOM     29  C   UNL     1      34.018 -15.791 -24.791  0.00  0.00    +0.113 C 
ATOM     30  C   UNL     1      33.429 -13.940 -23.505  0.00  0.00    +0.099 C 
ATOM     31  H   UNL     1      35.345 -18.251 -24.173  0.00  0.00    +0.152 HD
ENDBRANCH  21  24
ENDBRANCH   2  21
TORSDOF 5
ENDMDL
MODEL 2
REMARK VINA RESULT:     -11.5      2.626     10.429
REMARK  Name = 445481
REMARK  5 active torsions:
REMARK  status: ('A' for Active; 'I' for Inactive)
REMARK    1  A    between atoms: N_2  and  C_21
REMARK    2  A    between atoms: C_3  and  N_7
REMARK    3  A    between atoms: N_7  and  S_9
REMARK    4  A    between atoms: S_9  and  C_14
REMARK    5  A    between atoms: C_21  and  C_24
REMARK                            x       y       z     vdW  Elec       q    Type
REMARK                         _______ _______ _______ _____ _____    ______ ____
ROOT
ATOM      1  O   UNL     1      36.082 -21.662 -19.874  0.00  0.00    -0.273 OA
ATOM      2  N   UNL     1      33.914 -22.209 -19.141  0.00  0.00    -0.273 N 
ATOM      3  C   UNL     1      34.200 -20.165 -20.223  0.00  0.00    +0.153 C 
ATOM      4  C   UNL     1      32.725 -20.551 -20.244  0.00  0.00    +0.048 C 
ATOM      5  C   UNL     1      32.612 -21.585 -19.140  0.00  0.00    +0.096 C 
ATOM      6  C   UNL     1      34.889 -21.422 -19.754  0.00  0.00    +0.242 C 
ENDROOT
BRANCH   3   7
ATOM      7  N   UNL     1      34.675 -19.819 -21.567  0.00  0.00    -0.171 NA
ATOM      8  H   UNL     1      35.073 -20.666 -21.974  0.00  0.00    +0.149 HD
BRANCH   7   9
ATOM      9  S   UNL     1      35.853 -18.582 -21.714  0.00  0.00    +0.066 S 
ATOM     10  O   UNL     1      36.979 -19.083 -22.478  0.00  0.00    -0.152 OA
ATOM     11  O   UNL     1      36.040 -17.948 -20.423  0.00  0.00    -0.152 OA
BRANCH   9  14
ATOM     12  S   UNL     1      34.899 -15.829 -21.887  0.00  0.00    -0.066 S 
ATOM     13  N   UNL     1      33.742 -15.628 -25.596  0.00  0.00    -0.243 NA
ATOM     14  C   UNL     1      35.132 -17.285 -22.720  0.00  0.00    +0.153 C 
ATOM     15  C   UNL     1      34.741 -17.254 -24.015  0.00  0.00    +0.046 C 
ATOM     16  C   UNL     1      34.217 -15.975 -24.369  0.00  0.00    +0.089 C 
ATOM     17  C   UNL     1      34.242 -15.087 -23.292  0.00  0.00    +0.048 C 
ATOM     18  C   UNL     1      33.766 -13.777 -23.451  0.00  0.00    +0.010 C 
ATOM     19  C   UNL     1      33.280 -13.418 -24.702  0.00  0.00    +0.021 C 
ATOM     20  C   UNL     1      33.293 -14.362 -25.712  0.00  0.00    +0.099 C 
ENDBRANCH   9  14
ENDBRANCH   7   9
ENDBRANCH   3   7
BRANCH   2  21
ATOM     21  C   UNL     1      34.156 -23.460 -18.455  0.00  0.00    +0.135 C 
BRANCH  21  24
ATOM     22  N   UNL     1      34.081 -23.863 -16.009  0.00  0.00    -0.313 N 
ATOM     23  N   UNL     1      32.357 -23.952 -12.746  0.00  0.00    -0.241 NA
ATOM     24  C   UNL     1      33.431 -23.487 -17.138  0.00  0.00    +0.046 C 
ATOM     25  C   UNL     1      32.141 -23.181 -16.849  0.00  0.00    +0.013 C 
ATOM     26  C   UNL     1      31.975 -23.378 -15.449  0.00  0.00    +0.017 C 
ATOM     27  C   UNL     1      33.206 -23.805 -14.949  0.00  0.00    +0.068 C 
ATOM     28  C   UNL     1      30.902 -23.236 -14.559  0.00  0.00    +0.022 C 
ATOM     29  C   UNL     1      33.396 -24.091 -13.603  0.00  0.00    +0.113 C 
ATOM     30  C   UNL     1      31.164 -23.539 -13.229  0.00  0.00    +0.099 C 
ATOM     31  H   UNL     1      35.025 -24.134 -15.957  0.00  0.00    +0.152 HD
ENDBRANCH  21  24
ENDBRANCH   2  21
TORSDOF 5
ENDMDL
MODEL 3
REMARK VINA RESULT:     -11.1      2.630     10.507
REMARK  Name = 445481
REMARK  5 active torsions:
REMARK  status: ('A' for Active; 'I' for Inactive)
REMARK    1  A    between atoms: N_2  and  C_21
REMARK    2  A    between atoms: C_3  and  N_7
REMARK    3  A    between atoms: N_7  and  S_9
REMARK    4  A    between atoms: S_9  and  C_14
REMARK    5  A    between atoms: C_21  and  C_24
REMARK                            x       y       z     vdW  Elec       q    Type
REMARK                         _______ _______ _______ _____ _____    ______ ____
ROOT
ATOM      1  O   UNL     1      32.403 -20.748 -20.045  0.00  0.00    -0.273 OA
ATOM      2  N   UNL     1      33.843 -22.084 -18.749  0.00  0.00    -0.273 N 
ATOM      3  C   UNL     1      34.790 -20.853 -20.486  0.00  0.00    +0.153 C 
ATOM      4  C   UNL     1      35.878 -21.263 -19.500  0.00  0.00    +0.048 C 
ATOM      5  C   UNL     1      35.249 -22.412 -18.734  0.00  0.00    +0.096 C 
ATOM      6  C   UNL     1      33.510 -21.181 -19.759  0.00  0.00    +0.242 C 
ENDROOT
BRANCH   3   7
ATOM      7  N   UNL     1      34.841 -19.412 -20.760  0.00  0.00    -0.171 NA
ATOM      8  H   UNL     1      33.878 -19.087 -20.848  0.00  0.00    +0.149 HD
BRANCH   7   9
ATOM      9  S   UNL     1      35.688 -18.884 -22.154  0.00  0.00    +0.066 S 
ATOM     10  O   UNL     1      35.320 -19.718 -23.281  0.00  0.00    -0.152 OA
ATOM     11  O   UNL     1      37.077 -18.655 -21.808  0.00  0.00    -0.152 OA
BRANCH   9  14
ATOM     12  S   UNL     1      34.538 -17.091 -24.150  0.00  0.00    -0.066 S 
ATOM     13  N   UNL     1      34.178 -13.788 -22.127  0.00  0.00    -0.243 NA
ATOM     14  C   UNL     1      35.077 -17.246 -22.552  0.00  0.00    +0.153 C 
ATOM     15  C   UNL     1      34.967 -16.117 -21.816  0.00  0.00    +0.046 C 
ATOM     16  C   UNL     1      34.413 -15.048 -22.583  0.00  0.00    +0.089 C 
ATOM     17  C   UNL     1      34.127 -15.442 -23.892  0.00  0.00    +0.048 C 
ATOM     18  C   UNL     1      33.575 -14.524 -24.796  0.00  0.00    +0.010 C 
ATOM     19  C   UNL     1      33.333 -13.235 -24.336  0.00  0.00    +0.021 C 
ATOM     20  C   UNL     1      33.647 -12.932 -23.024  0.00  0.00    +0.099 C 
ENDBRANCH   9  14
ENDBRANCH   7   9
ENDBRANCH   3   7
BRANCH   2  21
ATOM     21  C   UNL     1      32.901 -22.745 -17.873  0.00  0.00    +0.135 C 
BRANCH  21  24
ATOM     22  N   UNL     1      32.819 -23.599 -15.545  0.00  0.00    -0.313 N 
ATOM     23  N   UNL     1      34.374 -24.506 -12.323  0.00  0.00    -0.241 NA
ATOM     24  C   UNL     1      33.558 -23.107 -16.569  0.00  0.00    +0.046 C 
ATOM     25  C   UNL     1      34.862 -23.023 -16.200  0.00  0.00    +0.013 C 
ATOM     26  C   UNL     1      34.941 -23.494 -14.859  0.00  0.00    +0.017 C 
ATOM     27  C   UNL     1      33.647 -23.849 -14.475  0.00  0.00    +0.068 C 
ATOM     28  C   UNL     1      35.983 -23.655 -13.936  0.00  0.00    +0.022 C 
ATOM     29  C   UNL     1      33.364 -24.352 -13.212  0.00  0.00    +0.113 C 
ATOM     30  C   UNL     1      35.628 -24.163 -12.693  0.00  0.00    +0.099 C 
ATOM     31  H   UNL     1      31.847 -23.753 -15.565  0.00  0.00    +0.152 HD
ENDBRANCH  21  24
ENDBRANCH   2  21
TORSDOF 5
ENDMDL
MODEL 4
REMARK VINA RESULT:     -10.8      1.912      2.324
REMARK  Name = 445481
REMARK  5 active torsions:
REMARK  status: ('A' for Active; 'I' for Inactive)
REMARK    1  A    between atoms: N_2  and  C_21
REMARK    2  A    between atoms: C_3  and  N_7
REMARK    3  A    between atoms: N_7  and  S_9
REMARK    4  A    between atoms: S_9  and  C_14
REMARK    5  A    between atoms: C_21  and  C_24
REMARK                            x       y       z     vdW  Elec       q    Type
REMARK                         _______ _______ _______ _____ _____    ______ ____
ROOT
ATOM      1  O   UNL     1      36.567 -20.398 -19.849  0.00  0.00    -0.273 OA
ATOM      2  N   UNL     1      35.220 -19.345 -21.466  0.00  0.00    -0.273 N 
ATOM      3  C   UNL     1      34.307 -21.157 -20.319  0.00  0.00    +0.153 C 
ATOM      4  C   UNL     1      33.188 -20.337 -20.951  0.00  0.00    +0.048 C 
ATOM      5  C   UNL     1      33.899 -19.528 -22.019  0.00  0.00    +0.096 C 
ATOM      6  C   UNL     1      35.522 -20.276 -20.471  0.00  0.00    +0.242 C 
ENDROOT
BRANCH   3   7
ATOM      7  N   UNL     1      34.049 -21.393 -18.894  0.00  0.00    -0.171 NA
ATOM      8  H   UNL     1      34.565 -20.684 -18.372  0.00  0.00    +0.149 HD
BRANCH   7   9
ATOM      9  S   UNL     1      34.475 -22.919 -18.238  0.00  0.00    +0.066 S 
ATOM     10  O   UNL     1      35.770 -22.817 -17.595  0.00  0.00    -0.152 OA
ATOM     11  O   UNL     1      34.199 -23.951 -19.218  0.00  0.00    -0.152 OA
BRANCH   9  14
ATOM     12  S   UNL     1      34.042 -23.854 -15.507  0.00  0.00    -0.066 S 
ATOM     13  N   UNL     1      30.177 -23.558 -15.177  0.00  0.00    -0.243 NA
ATOM     14  C   UNL     1      33.313 -23.267 -16.919  0.00  0.00    +0.153 C 
ATOM     15  C   UNL     1      31.967 -23.150 -16.843  0.00  0.00    +0.046 C 
ATOM     16  C   UNL     1      31.482 -23.559 -15.563  0.00  0.00    +0.089 C 
ATOM     17  C   UNL     1      32.517 -23.972 -14.723  0.00  0.00    +0.048 C 
ATOM     18  C   UNL     1      32.232 -24.410 -13.421  0.00  0.00    +0.010 C 
ATOM     19  C   UNL     1      30.901 -24.411 -13.021  0.00  0.00    +0.021 C 
ATOM     20  C   UNL     1      29.941 -23.984 -13.920  0.00  0.00    +0.099 C 
ENDBRANCH   9  14
ENDBRANCH   7   9
ENDBRANCH   3   7
BRANCH   2  21
ATOM     21  C   UNL     1      36.141 -18.370 -22.008  0.00  0.00    +0.135 C 
BRANCH  21  24
ATOM     22  N   UNL     1      35.034 -17.048 -23.790  0.00  0.00    -0.313 N 
ATOM     23  N   UNL     1      33.210 -14.089 -25.033  0.00  0.00    -0.241 NA
ATOM     24  C   UNL     1      35.398 -17.154 -22.489  0.00  0.00    +0.046 C 
ATOM     25  C   UNL     1      34.994 -16.054 -21.804  0.00  0.00    +0.013 C 
ATOM     26  C   UNL     1      34.335 -15.207 -22.739  0.00  0.00    +0.017 C 
ATOM     27  C   UNL     1      34.374 -15.855 -23.975  0.00  0.00    +0.068 C 
ATOM     28  C   UNL     1      33.709 -13.955 -22.656  0.00  0.00    +0.022 C 
ATOM     29  C   UNL     1      33.814 -15.298 -25.117  0.00  0.00    +0.113 C 
ATOM     30  C   UNL     1      33.172 -13.460 -23.837  0.00  0.00    +0.099 C 
ATOM     31  H   UNL     1      35.213 -17.716 -24.490  0.00  0.00    +0.152 HD
ENDBRANCH  21  24
ENDBRANCH   2  21
TORSDOF 5
ENDMDL
MODEL 5
REMARK VINA RESULT:     -10.5      5.153     11.550
REMARK  Name = 445481
REMARK  5 active torsions:
REMARK  status: ('A' for Active; 'I' for Inactive)
REMARK    1  A    between atoms: N_2  and  C_21
REMARK    2  A    between atoms: C_3  and  N_7
REMARK    3  A    between atoms: N_7  and  S_9
REMARK    4  A    between atoms: S_9  and  C_14
REMARK    5  A    between atoms: C_21  and  C_24
REMARK                            x       y       z     vdW  Elec       q    Type
REMARK                         _______ _______ _______ _____ _____    ______ ____
ROOT
ATOM      1  O   UNL     1      35.219 -15.993 -20.673  0.00  0.00    -0.273 OA
ATOM      2  N   UNL     1      35.606 -17.553 -22.391  0.00  0.00    -0.273 N 
ATOM      3  C   UNL     1      34.104 -15.825 -22.826  0.00  0.00    +0.153 C 
ATOM      4  C   UNL     1      34.577 -16.434 -24.142  0.00  0.00    +0.048 C 
ATOM      5  C   UNL     1      35.124 -17.787 -23.732  0.00  0.00    +0.096 C 
ATOM      6  C   UNL     1      35.039 -16.422 -21.804  0.00  0.00    +0.242 C 
ENDROOT
BRANCH   3   7
ATOM      7  N   UNL     1      34.256 -14.366 -22.834  0.00  0.00    -0.171 NA
ATOM      8  H   UNL     1      34.439 -14.076 -21.873  0.00  0.00    +0.149 HD
BRANCH   7   9
ATOM      9  S   UNL     1      32.947 -13.420 -23.411  0.00  0.00    +0.066 S 
ATOM     10  O   UNL     1      31.836 -13.528 -22.486  0.00  0.00    -0.152 OA
ATOM     11  O   UNL     1      32.773 -13.666 -24.830  0.00  0.00    -0.152 OA
BRANCH   9  14
ATOM     12  S   UNL     1      32.275 -10.662 -22.736  0.00  0.00    -0.066 S 
ATOM     13  N   UNL     1      35.559  -8.799 -23.674  0.00  0.00    -0.243 NA
ATOM     14  C   UNL     1      33.464 -11.706 -23.340  0.00  0.00    +0.153 C 
ATOM     15  C   UNL     1      34.623 -11.094 -23.677  0.00  0.00    +0.046 C 
ATOM     16  C   UNL     1      34.556  -9.688 -23.437  0.00  0.00    +0.089 C 
ATOM     17  C   UNL     1      33.318  -9.307 -22.917  0.00  0.00    +0.048 C 
ATOM     18  C   UNL     1      33.068  -7.961 -22.616  0.00  0.00    +0.010 C 
ATOM     19  C   UNL     1      34.088  -7.049 -22.856  0.00  0.00    +0.021 C 
ATOM     20  C   UNL     1      35.283  -7.514 -23.373  0.00  0.00    +0.099 C 
ENDBRANCH   9  14
ENDBRANCH   7   9
ENDBRANCH   3   7
BRANCH   2  21
ATOM     21  C   UNL     1      36.485 -18.490 -21.727  0.00  0.00    +0.135 C 
BRANCH  21  24
ATOM     22  N   UNL     1      36.315 -20.352 -20.097  0.00  0.00    -0.313 N 
ATOM     23  N   UNL     1      34.417 -22.827 -18.124  0.00  0.00    -0.241 NA
ATOM     24  C   UNL     1      35.689 -19.489 -20.934  0.00  0.00    +0.046 C 
ATOM     25  C   UNL     1      34.349 -19.704 -20.901  0.00  0.00    +0.013 C 
ATOM     26  C   UNL     1      34.125 -20.769 -19.983  0.00  0.00    +0.017 C 
ATOM     27  C   UNL     1      35.375 -21.154 -19.495  0.00  0.00    +0.068 C 
ATOM     28  C   UNL     1      32.986 -21.441 -19.520  0.00  0.00    +0.022 C 
ATOM     29  C   UNL     1      35.520 -22.180 -18.569  0.00  0.00    +0.113 C 
ATOM     30  C   UNL     1      33.206 -22.454 -18.596  0.00  0.00    +0.099 C 
ATOM     31  H   UNL     1      37.287 -20.397 -19.945  0.00  0.00    +0.152 HD
ENDBRANCH  21  24
ENDBRANCH   2  21
TORSDOF 5
ENDMDL
MODEL 6
REMARK VINA RESULT:     -10.4      1.599      2.056
REMARK  Name = 445481
REMARK  5 active torsions:
REMARK  status: ('A' for Active; 'I' for Inactive)
REMARK    1  A    between atoms: N_2  and  C_21
REMARK    2  A    between atoms: C_3  and  N_7
REMARK    3  A    between atoms: N_7  and  S_9
REMARK    4  A    between atoms: S_9  and  C_14
REMARK    5  A    between atoms: C_21  and  C_24
REMARK                            x       y       z     vdW  Elec       q    Type
REMARK                         _______ _______ _______ _____ _____    ______ ____
ROOT
ATOM      1  O   UNL     1      36.511 -21.735 -19.037  0.00  0.00    -0.273 OA
ATOM      2  N   UNL     1      35.104 -20.549 -20.504  0.00  0.00    -0.273 N 
ATOM      3  C   UNL     1      34.096 -22.010 -18.993  0.00  0.00    +0.153 C 
ATOM      4  C   UNL     1      33.061 -21.017 -19.512  0.00  0.00    +0.048 C 
ATOM      5  C   UNL     1      33.689 -20.479 -20.783  0.00  0.00    +0.096 C 
ATOM      6  C   UNL     1      35.407 -21.436 -19.471  0.00  0.00    +0.242 C 
ENDROOT
BRANCH   3   7
ATOM      7  N   UNL     1      34.091 -22.062 -17.527  0.00  0.00    -0.171 NA
ATOM      8  H   UNL     1      35.039 -21.854 -17.214  0.00  0.00    +0.149 HD
BRANCH   7   9
ATOM      9  S   UNL     1      33.616 -23.526 -16.773  0.00  0.00    +0.066 S 
ATOM     10  O   UNL     1      33.743 -24.615 -17.721  0.00  0.00    -0.152 OA
ATOM     11  O   UNL     1      32.384 -23.305 -16.040  0.00  0.00    -0.152 OA
BRANCH   9  14
ATOM     12  S   UNL     1      34.863 -25.496 -15.017  0.00  0.00    -0.066 S 
ATOM     13  N   UNL     1      37.402 -23.302 -13.049  0.00  0.00    -0.243 NA
ATOM     14  C   UNL     1      34.815 -23.870 -15.486  0.00  0.00    +0.153 C 
ATOM     15  C   UNL     1      35.686 -23.074 -14.823  0.00  0.00    +0.046 C 
ATOM     16  C   UNL     1      36.446 -23.817 -13.871  0.00  0.00    +0.089 C 
ATOM     17  C   UNL     1      36.098 -25.169 -13.868  0.00  0.00    +0.048 C 
ATOM     18  C   UNL     1      36.742 -26.057 -12.995  0.00  0.00    +0.010 C 
ATOM     19  C   UNL     1      37.719 -25.537 -12.154  0.00  0.00    +0.021 C 
ATOM     20  C   UNL     1      37.999 -24.185 -12.224  0.00  0.00    +0.099 C 
ENDBRANCH   9  14
ENDBRANCH   7   9
ENDBRANCH   3   7
BRANCH   2  21
ATOM     21  C   UNL     1      36.073 -19.852 -21.321  0.00  0.00    +0.135 C 
BRANCH  21  24
ATOM     22  N   UNL     1      35.326 -17.596 -20.608  0.00  0.00    -0.313 N 
ATOM     23  N   UNL     1      34.170 -14.155 -21.276  0.00  0.00    -0.241 NA
ATOM     24  C   UNL     1      35.603 -18.455 -21.620  0.00  0.00    +0.046 C 
ATOM     25  C   UNL     1      35.387 -17.846 -22.814  0.00  0.00    +0.013 C 
ATOM     26  C   UNL     1      34.947 -16.523 -22.528  0.00  0.00    +0.017 C 
ATOM     27  C   UNL     1      34.919 -16.394 -21.138  0.00  0.00    +0.068 C 
ATOM     28  C   UNL     1      34.572 -15.424 -23.312  0.00  0.00    +0.022 C 
ATOM     29  C   UNL     1      34.532 -15.215 -20.515  0.00  0.00    +0.113 C 
ATOM     30  C   UNL     1      34.196 -14.279 -22.622  0.00  0.00    +0.099 C 
ATOM     31  H   UNL     1      35.404 -17.801 -19.648  0.00  0.00    +0.152 HD
ENDBRANCH  21  24
ENDBRANCH   2  21
TORSDOF 5
ENDMDL
MODEL 7
REMARK VINA RESULT:     -10.4      1.664      2.182
REMARK  Name = 445481
REMARK  5 active torsions:
REMARK  status: ('A' for Active; 'I' for Inactive)
REMARK    1  A    between atoms: N_2  and  C_21
REMARK    2  A    between atoms: C_3  and  N_7
REMARK    3  A    between atoms: N_7  and  S_9
REMARK    4  A    between atoms: S_9  and  C_14
REMARK    5  A    between atoms: C_21  and  C_24
REMARK                            x       y       z     vdW  Elec       q    Type
REMARK                         _______ _______ _______ _____ _____    ______ ____
ROOT
ATOM      1  O   UNL     1      33.979 -20.379 -21.583  0.00  0.00    -0.273 OA
ATOM      2  N   UNL     1      36.019 -19.209 -21.512  0.00  0.00    -0.273 N 
ATOM      3  C   UNL     1      35.574 -20.701 -19.778  0.00  0.00    +0.153 C 
ATOM      4  C   UNL     1      37.069 -20.405 -19.825  0.00  0.00    +0.048 C 
ATOM      5  C   UNL     1      37.152 -19.117 -20.622  0.00  0.00    +0.096 C 
ATOM      6  C   UNL     1      35.056 -20.115 -21.068  0.00  0.00    +0.242 C 
ENDROOT
BRANCH   3   7
ATOM      7  N   UNL     1      35.321 -22.146 -19.761  0.00  0.00    -0.171 NA
ATOM      8  H   UNL     1      35.082 -22.422 -20.714  0.00  0.00    +0.149 HD
BRANCH   7   9
ATOM      9  S   UNL     1      34.083 -22.738 -18.734  0.00  0.00    +0.066 S 
ATOM     10  O   UNL     1      33.688 -24.061 -19.176  0.00  0.00    -0.152 OA
ATOM     11  O   UNL     1      33.102 -21.691 -18.520  0.00  0.00    -0.152 OA
BRANCH   9  14
ATOM     12  S   UNL     1      33.752 -23.663 -15.986  0.00  0.00    -0.066 S 
ATOM     13  N   UNL     1      37.260 -22.922 -14.477  0.00  0.00    -0.243 NA
ATOM     14  C   UNL     1      34.810 -22.972 -17.113  0.00  0.00    +0.153 C 
ATOM     15  C   UNL     1      36.042 -22.700 -16.624  0.00  0.00    +0.046 C 
ATOM     16  C   UNL     1      36.149 -23.070 -15.250  0.00  0.00    +0.089 C 
ATOM     17  C   UNL     1      34.960 -23.615 -14.764  0.00  0.00    +0.048 C 
ATOM     18  C   UNL     1      34.875 -24.039 -13.430  0.00  0.00    +0.010 C 
ATOM     19  C   UNL     1      36.006 -23.891 -12.636  0.00  0.00    +0.021 C 
ATOM     20  C   UNL     1      37.142 -23.340 -13.200  0.00  0.00    +0.099 C 
ENDBRANCH   9  14
ENDBRANCH   7   9
ENDBRANCH   3   7
BRANCH   2  21
ATOM     21  C   UNL     1      35.886 -18.342 -22.662  0.00  0.00    +0.135 C 
BRANCH  21  24
ATOM     22  N   UNL     1      34.734 -16.222 -23.241  0.00  0.00    -0.313 N 
ATOM     23  N   UNL     1      33.013 -13.075 -22.371  0.00  0.00    -0.241 NA
ATOM     24  C   UNL     1      35.188 -17.065 -22.281  0.00  0.00    +0.046 C 
ATOM     25  C   UNL     1      34.906 -16.561 -21.053  0.00  0.00    +0.013 C 
ATOM     26  C   UNL     1      34.233 -15.324 -21.260  0.00  0.00    +0.017 C 
ATOM     27  C   UNL     1      34.139 -15.138 -22.640  0.00  0.00    +0.068 C 
ATOM     28  C   UNL     1      33.694 -14.346 -20.412  0.00  0.00    +0.022 C 
ATOM     29  C   UNL     1      33.532 -14.018 -23.193  0.00  0.00    +0.113 C 
ATOM     30  C   UNL     1      33.103 -13.254 -21.034  0.00  0.00    +0.099 C 
ATOM     31  H   UNL     1      34.819 -16.363 -24.211  0.00  0.00    +0.152 HD
ENDBRANCH  21  24
ENDBRANCH   2  21
TORSDOF 5
ENDMDL
MODEL 8
REMARK VINA RESULT:     -10.3      5.186     10.860
REMARK  Name = 445481
REMARK  5 active torsions:
REMARK  status: ('A' for Active; 'I' for Inactive)
REMARK    1  A    between atoms: N_2  and  C_21
REMARK    2  A    between atoms: C_3  and  N_7
REMARK    3  A    between atoms: N_7  and  S_9
REMARK    4  A    between atoms: S_9  and  C_14
REMARK    5  A    between atoms: C_21  and  C_24
REMARK                            x       y       z     vdW  Elec       q    Type
REMARK                         _______ _______ _______ _____ _____    ______ ____
ROOT
ATOM      1  O   UNL     1      34.788 -16.522 -24.321  0.00  0.00    -0.273 OA
ATOM      2  N   UNL     1      35.284 -17.226 -22.131  0.00  0.00    -0.273 N 
ATOM      3  C   UNL     1      34.464 -15.062 -22.405  0.00  0.00    +0.153 C 
ATOM      4  C   UNL     1      34.284 -15.497 -20.954  0.00  0.00    +0.048 C 
ATOM      5  C   UNL     1      35.254 -16.653 -20.806  0.00  0.00    +0.096 C 
ATOM      6  C   UNL     1      34.841 -16.340 -23.113  0.00  0.00    +0.242 C 
ENDROOT
BRANCH   3   7
ATOM      7  N   UNL     1      33.208 -14.548 -22.961  0.00  0.00    -0.171 NA
ATOM      8  H   UNL     1      32.870 -15.237 -23.633  0.00  0.00    +0.149 HD
BRANCH   7   9
ATOM      9  S   UNL     1      33.240 -13.031 -23.761  0.00  0.00    +0.066 S 
ATOM     10  O   UNL     1      32.213 -13.010 -24.784  0.00  0.00    -0.152 OA
ATOM     11  O   UNL     1      34.614 -12.683 -24.065  0.00  0.00    -0.152 OA
BRANCH   9  14
ATOM     12  S   UNL     1      32.086 -12.444 -21.145  0.00  0.00    -0.066 S 
ATOM     13  N   UNL     1      32.199  -8.556 -21.089  0.00  0.00    -0.243 NA
ATOM     14  C   UNL     1      32.746 -11.793 -22.562  0.00  0.00    +0.153 C 
ATOM     15  C   UNL     1      32.802 -10.442 -22.580  0.00  0.00    +0.046 C 
ATOM     16  C   UNL     1      32.280  -9.885 -21.374  0.00  0.00    +0.089 C 
ATOM     17  C   UNL     1      31.847 -10.873 -20.489  0.00  0.00    +0.048 C 
ATOM     18  C   UNL     1      31.303 -10.514 -19.248  0.00  0.00    +0.010 C 
ATOM     19  C   UNL     1      31.218  -9.160 -18.951  0.00  0.00    +0.021 C 
ATOM     20  C   UNL     1      31.671  -8.249 -19.887  0.00  0.00    +0.099 C 
ENDBRANCH   9  14
ENDBRANCH   7   9
ENDBRANCH   3   7
BRANCH   2  21
ATOM     21  C   UNL     1      35.843 -18.538 -22.377  0.00  0.00    +0.135 C 
BRANCH  21  24
ATOM     22  N   UNL     1      36.176 -20.157 -20.528  0.00  0.00    -0.313 N 
ATOM     23  N   UNL     1      34.960 -22.601 -18.043  0.00  0.00    -0.241 NA
ATOM     24  C   UNL     1      35.322 -19.530 -21.373  0.00  0.00    +0.046 C 
ATOM     25  C   UNL     1      34.051 -19.946 -21.141  0.00  0.00    +0.013 C 
ATOM     26  C   UNL     1      34.116 -20.895 -20.082  0.00  0.00    +0.017 C 
ATOM     27  C   UNL     1      35.459 -21.006 -19.717  0.00  0.00    +0.068 C 
ATOM     28  C   UNL     1      33.168 -21.667 -19.397  0.00  0.00    +0.022 C 
ATOM     29  C   UNL     1      35.879 -21.857 -18.702  0.00  0.00    +0.113 C 
ATOM     30  C   UNL     1      33.659 -22.494 -18.396  0.00  0.00    +0.099 C 
ATOM     31  H   UNL     1      37.151 -20.027 -20.499  0.00  0.00    +0.152 HD
ENDBRANCH  21  24
ENDBRANCH   2  21
TORSDOF 5
ENDMDL
MODEL 9
REMARK VINA RESULT:     -10.3      3.710      6.460
REMARK  Name = 445481
REMARK  5 active torsions:
REMARK  status: ('A' for Active; 'I' for Inactive)
REMARK    1  A    between atoms: N_2  and  C_21
REMARK    2  A    between atoms: C_3  and  N_7
REMARK    3  A    between atoms: N_7  and  S_9
REMARK    4  A    between atoms: S_9  and  C_14
REMARK    5  A    between atoms: C_21  and  C_24
REMARK                            x       y       z     vdW  Elec       q    Type
REMARK                         _______ _______ _______ _____ _____    ______ ____
ROOT
ATOM      1  O   UNL     1      33.875 -14.457 -20.708  0.00  0.00    -0.273 OA
ATOM      2  N   UNL     1      33.286 -14.299 -22.981  0.00  0.00    -0.273 N 
ATOM      3  C   UNL     1      34.958 -15.817 -22.406  0.00  0.00    +0.153 C 
ATOM      4  C   UNL     1      34.396 -16.172 -23.779  0.00  0.00    +0.048 C 
ATOM      5  C   UNL     1      33.713 -14.894 -24.225  0.00  0.00    +0.096 C 
ATOM      6  C   UNL     1      33.984 -14.793 -21.879  0.00  0.00    +0.242 C 
ENDROOT
BRANCH   3   7
ATOM      7  N   UNL     1      34.966 -16.986 -21.520  0.00  0.00    -0.171 NA
ATOM      8  H   UNL     1      35.675 -16.819 -20.806  0.00  0.00    +0.149 HD
BRANCH   7   9
ATOM      9  S   UNL     1      35.289 -18.521 -22.210  0.00  0.00    +0.066 S 
ATOM     10  O   UNL     1      36.720 -18.673 -22.389  0.00  0.00    -0.152 OA
ATOM     11  O   UNL     1      34.364 -18.755 -23.303  0.00  0.00    -0.152 OA
BRANCH   9  14
ATOM     12  S   UNL     1      36.143 -20.407 -20.152  0.00  0.00    -0.066 S 
ATOM     13  N   UNL     1      32.745 -21.924 -19.016  0.00  0.00    -0.243 NA
ATOM     14  C   UNL     1      34.826 -19.754 -20.994  0.00  0.00    +0.153 C 
ATOM     15  C   UNL     1      33.626 -20.257 -20.626  0.00  0.00    +0.046 C 
ATOM     16  C   UNL     1      33.767 -21.236 -19.597  0.00  0.00    +0.089 C 
ATOM     17  C   UNL     1      35.102 -21.422 -19.236  0.00  0.00    +0.048 C 
ATOM     18  C   UNL     1      35.436 -22.347 -18.236  0.00  0.00    +0.010 C 
ATOM     19  C   UNL     1      34.398 -23.052 -17.640  0.00  0.00    +0.021 C 
ATOM     20  C   UNL     1      33.104 -22.804 -18.060  0.00  0.00    +0.099 C 
ENDBRANCH   9  14
ENDBRANCH   7   9
ENDBRANCH   3   7
BRANCH   2  21
ATOM     21  C   UNL     1      32.324 -13.219 -22.948  0.00  0.00    +0.135 C 
BRANCH  21  24
ATOM     22  N   UNL     1      32.420 -10.761 -22.633  0.00  0.00    -0.313 N 
ATOM     23  N   UNL     1      34.066  -7.472 -22.942  0.00  0.00    -0.241 NA
ATOM     24  C   UNL     1      33.015 -11.891 -23.085  0.00  0.00    +0.046 C 
ATOM     25  C   UNL     1      34.225 -11.593 -23.624  0.00  0.00    +0.013 C 
ATOM     26  C   UNL     1      34.395 -10.185 -23.499  0.00  0.00    +0.017 C 
ATOM     27  C   UNL     1      33.249  -9.690 -22.875  0.00  0.00    +0.068 C 
ATOM     28  C   UNL     1      35.408  -9.284 -23.854  0.00  0.00    +0.022 C 
ATOM     29  C   UNL     1      33.085  -8.339 -22.598  0.00  0.00    +0.113 C 
ATOM     30  C   UNL     1      35.177  -7.949 -23.548  0.00  0.00    +0.099 C 
ATOM     31  H   UNL     1      31.536 -10.714 -22.203  0.00  0.00    +0.152 HD
ENDBRANCH  21  24
ENDBRANCH   2  21
TORSDOF 5
ENDMDL
