MODEL 1
REMARK VINA RESULT:     -11.9      0.000      0.000
REMARK  Name = 3168
REMARK  6 active torsions:
REMARK  status: ('A' for Active; 'I' for Inactive)
REMARK    1  A    between atoms: N_1  and  C_19
REMARK    2  A    between atoms: C_5  and  N_9
REMARK    3  A    between atoms: C_19  and  C_20
REMARK    4  A    between atoms: C_20  and  C_21
REMARK    5  A    between atoms: C_21  and  C_23
REMARK    6  A    between atoms: C_23  and  C_25
REMARK                            x       y       z     vdW  Elec       q    Type
REMARK                         _______ _______ _______ _____ _____    ______ ____
ROOT
ATOM      1  N   UNL     1      34.095 -15.942 -23.247  0.00  0.00    +0.390 N 
ATOM      2  C   UNL     1      34.874 -16.951 -23.974  0.00  0.00    -0.071 C 
ATOM      3  C   UNL     1      34.932 -18.260 -23.171  0.00  0.00    +0.021 C 
ATOM      4  C   UNL     1      34.737 -15.608 -21.964  0.00  0.00    -0.049 C 
ATOM      5  C   UNL     1      35.239 -18.034 -21.717  0.00  0.00    +0.037 C 
ATOM      6  C   UNL     1      35.164 -16.812 -21.170  0.00  0.00    -0.036 C 
ATOM      7  H   UNL     1      33.176 -16.338 -23.051  0.00  0.00    -0.079 HD
ENDROOT
BRANCH   5   9
ATOM      8  O   UNL     1      37.996 -18.904 -20.943  0.00  0.00    -0.246 OA
ATOM      9  N   UNL     1      35.615 -19.123 -20.984  0.00  0.00    -0.263 N 
ATOM     10  N   UNL     1      36.861 -20.680 -19.880  0.00  0.00    -0.305 N 
ATOM     11  C   UNL     1      34.747 -20.083 -20.429  0.00  0.00    +0.083 A 
ATOM     12  C   UNL     1      36.960 -19.485 -20.647  0.00  0.00    +0.332 A 
ATOM     13  C   UNL     1      35.518 -21.029 -19.757  0.00  0.00    +0.076 A 
ATOM     14  C   UNL     1      33.371 -20.183 -20.470  0.00  0.00    +0.019 C 
ATOM     15  C   UNL     1      34.965 -22.108 -19.101  0.00  0.00    +0.019 C 
ATOM     16  C   UNL     1      32.785 -21.270 -19.812  0.00  0.00    +0.002 C 
ATOM     17  C   UNL     1      33.574 -22.222 -19.134  0.00  0.00    +0.002 C 
ATOM     18  H   UNL     1      37.619 -21.180 -19.498  0.00  0.00    +0.170 HD
ENDBRANCH   5   9
BRANCH   1  19
ATOM     19  C   UNL     1      33.905 -14.740 -24.058  0.00  0.00    -0.076 C 
BRANCH  19  20
ATOM     20  C   UNL     1      33.790 -13.508 -23.158  0.00  0.00    -0.015 C 
BRANCH  20  21
ATOM     21  C   UNL     1      32.335 -13.165 -22.826  0.00  0.00    +0.067 C 
BRANCH  21  23
ATOM     22  O   UNL     1      31.967 -13.932 -20.567  0.00  0.00    -0.291 OA
ATOM     23  C   UNL     1      32.083 -12.981 -21.336  0.00  0.00    +0.173 C 
BRANCH  23  25
ATOM     24  F   UNL     1      31.757  -7.791 -19.303  0.00  0.00    -0.204 F 
ATOM     25  C   UNL     1      31.995 -11.595 -20.792  0.00  0.00    +0.035 C 
ATOM     26  C   UNL     1      31.929 -10.542 -21.677  0.00  0.00    +0.005 C 
ATOM     27  C   UNL     1      31.984 -11.420 -19.427  0.00  0.00    +0.005 C 
ATOM     28  C   UNL     1      31.848  -9.245 -21.169  0.00  0.00    +0.030 C 
ATOM     29  C   UNL     1      31.903 -10.123 -18.919  0.00  0.00    +0.030 C 
ATOM     30  C   UNL     1      31.835  -9.035 -19.790  0.00  0.00    +0.140 C 
ENDBRANCH  23  25
ENDBRANCH  21  23
ENDBRANCH  20  21
ENDBRANCH  19  20
ENDBRANCH   1  19
TORSDOF 6
ENDMDL
MODEL 2
REMARK VINA RESULT:     -11.6      3.725      9.843
REMARK  Name = 3168
REMARK  6 active torsions:
REMARK  status: ('A' for Active; 'I' for Inactive)
REMARK    1  A    between atoms: N_1  and  C_19
REMARK    2  A    between atoms: C_5  and  N_9
REMARK    3  A    between atoms: C_19  and  C_20
REMARK    4  A    between atoms: C_20  and  C_21
REMARK    5  A    between atoms: C_21  and  C_23
REMARK    6  A    between atoms: C_23  and  C_25
REMARK                            x       y       z     vdW  Elec       q    Type
REMARK                         _______ _______ _______ _____ _____    ______ ____
ROOT
ATOM      1  N   UNL     1      34.653 -15.198 -23.613  0.00  0.00    +0.390 N 
ATOM      2  C   UNL     1      33.525 -14.787 -24.457  0.00  0.00    -0.071 C 
ATOM      3  C   UNL     1      33.366 -13.259 -24.426  0.00  0.00    +0.021 C 
ATOM      4  C   UNL     1      34.412 -14.839 -22.205  0.00  0.00    -0.049 C 
ATOM      5  C   UNL     1      33.457 -12.695 -23.036  0.00  0.00    +0.037 C 
ATOM      6  C   UNL     1      33.923 -13.429 -22.015  0.00  0.00    -0.036 C 
ATOM      7  H   UNL     1      35.482 -14.697 -23.933  0.00  0.00    -0.079 HD
ENDROOT
BRANCH   5   9
ATOM      8  O   UNL     1      30.855 -11.736 -21.912  0.00  0.00    -0.246 OA
ATOM      9  N   UNL     1      33.028 -11.411 -22.855  0.00  0.00    -0.263 N 
ATOM     10  N   UNL     1      31.763  -9.594 -22.313  0.00  0.00    -0.305 N 
ATOM     11  C   UNL     1      33.754 -10.247 -23.173  0.00  0.00    +0.083 A 
ATOM     12  C   UNL     1      31.763 -11.017 -22.308  0.00  0.00    +0.332 A 
ATOM     13  C   UNL     1      32.972  -9.143 -22.838  0.00  0.00    +0.076 A 
ATOM     14  C   UNL     1      35.012 -10.091 -23.719  0.00  0.00    +0.019 C 
ATOM     15  C   UNL     1      33.398  -7.847 -23.027  0.00  0.00    +0.019 C 
ATOM     16  C   UNL     1      35.468  -8.784 -23.922  0.00  0.00    +0.002 C 
ATOM     17  C   UNL     1      34.669  -7.674 -23.579  0.00  0.00    +0.002 C 
ATOM     18  H   UNL     1      31.028  -9.021 -21.996  0.00  0.00    +0.170 HD
ENDBRANCH   5   9
BRANCH   1  19
ATOM     19  C   UNL     1      34.914 -16.630 -23.744  0.00  0.00    -0.076 C 
BRANCH  19  20
ATOM     20  C   UNL     1      35.270 -17.230 -22.383  0.00  0.00    -0.015 C 
BRANCH  20  21
ATOM     21  C   UNL     1      35.711 -18.692 -22.489  0.00  0.00    +0.067 C 
BRANCH  21  23
ATOM     22  O   UNL     1      37.342 -18.921 -20.725  0.00  0.00    -0.291 OA
ATOM     23  C   UNL     1      36.253 -19.256 -21.183  0.00  0.00    +0.173 C 
BRANCH  23  25
ATOM     24  F   UNL     1      33.137 -22.929 -18.358  0.00  0.00    -0.204 F 
ATOM     25  C   UNL     1      35.420 -20.236 -20.428  0.00  0.00    +0.035 C 
ATOM     26  C   UNL     1      36.052 -21.165 -19.632  0.00  0.00    +0.005 C 
ATOM     27  C   UNL     1      34.051 -20.177 -20.555  0.00  0.00    +0.005 C 
ATOM     28  C   UNL     1      35.274 -22.083 -18.927  0.00  0.00    +0.030 C 
ATOM     29  C   UNL     1      33.272 -21.095 -19.851  0.00  0.00    +0.030 C 
ATOM     30  C   UNL     1      33.884 -22.048 -19.036  0.00  0.00    +0.140 C 
ENDBRANCH  23  25
ENDBRANCH  21  23
ENDBRANCH  20  21
ENDBRANCH  19  20
ENDBRANCH   1  19
TORSDOF 6
ENDMDL
MODEL 3
REMARK VINA RESULT:     -11.2      4.275      7.340
REMARK  Name = 3168
REMARK  6 active torsions:
REMARK  status: ('A' for Active; 'I' for Inactive)
REMARK    1  A    between atoms: N_1  and  C_19
REMARK    2  A    between atoms: C_5  and  N_9
REMARK    3  A    between atoms: C_19  and  C_20
REMARK    4  A    between atoms: C_20  and  C_21
REMARK    5  A    between atoms: C_21  and  C_23
REMARK    6  A    between atoms: C_23  and  C_25
REMARK                            x       y       z     vdW  Elec       q    Type
REMARK                         _______ _______ _______ _____ _____    ______ ____
ROOT
ATOM      1  N   UNL     1      35.008 -21.528 -18.898  0.00  0.00    +0.390 N 
ATOM      2  C   UNL     1      34.168 -22.708 -19.141  0.00  0.00    -0.071 C 
ATOM      3  C   UNL     1      33.549 -23.201 -17.823  0.00  0.00    +0.021 C 
ATOM      4  C   UNL     1      36.137 -21.861 -18.014  0.00  0.00    -0.049 C 
ATOM      5  C   UNL     1      34.547 -23.255 -16.700  0.00  0.00    +0.037 C 
ATOM      6  C   UNL     1      35.741 -22.652 -16.798  0.00  0.00    -0.036 C 
ATOM      7  H   UNL     1      34.433 -20.826 -18.432  0.00  0.00    -0.079 HD
ENDROOT
BRANCH   5   9
ATOM      8  O   UNL     1      36.172 -25.221 -15.135  0.00  0.00    -0.246 OA
ATOM      9  N   UNL     1      34.191 -23.959 -15.585  0.00  0.00    -0.263 N 
ATOM     10  N   UNL     1      34.235 -25.370 -13.796  0.00  0.00    -0.305 N 
ATOM     11  C   UNL     1      32.946 -23.894 -14.931  0.00  0.00    +0.083 A 
ATOM     12  C   UNL     1      35.022 -24.890 -14.880  0.00  0.00    +0.332 A 
ATOM     13  C   UNL     1      32.983 -24.759 -13.839  0.00  0.00    +0.076 A 
ATOM     14  C   UNL     1      31.817 -23.153 -15.215  0.00  0.00    +0.019 C 
ATOM     15  C   UNL     1      31.913 -24.928 -12.988  0.00  0.00    +0.019 C 
ATOM     16  C   UNL     1      30.716 -23.306 -14.366  0.00  0.00    +0.002 C 
ATOM     17  C   UNL     1      30.764 -24.184 -13.264  0.00  0.00    +0.002 C 
ATOM     18  H   UNL     1      34.527 -26.027 -13.123  0.00  0.00    +0.170 HD
ENDBRANCH   5   9
BRANCH   1  19
ATOM     19  C   UNL     1      35.486 -20.956 -20.156  0.00  0.00    -0.076 C 
BRANCH  19  20
ATOM     20  C   UNL     1      34.407 -20.067 -20.776  0.00  0.00    -0.015 C 
BRANCH  20  21
ATOM     21  C   UNL     1      34.721 -19.700 -22.229  0.00  0.00    +0.067 C 
BRANCH  21  23
ATOM     22  O   UNL     1      36.750 -18.415 -21.993  0.00  0.00    -0.291 OA
ATOM     23  C   UNL     1      35.580 -18.451 -22.365  0.00  0.00    +0.173 C 
BRANCH  23  25
ATOM     24  F   UNL     1      33.332 -13.903 -24.696  0.00  0.00    -0.204 F 
ATOM     25  C   UNL     1      34.981 -17.236 -22.989  0.00  0.00    +0.035 C 
ATOM     26  C   UNL     1      34.966 -16.063 -22.268  0.00  0.00    +0.005 C 
ATOM     27  C   UNL     1      34.463 -17.333 -24.260  0.00  0.00    +0.005 C 
ATOM     28  C   UNL     1      34.403 -14.927 -22.850  0.00  0.00    +0.030 C 
ATOM     29  C   UNL     1      33.900 -16.197 -24.843  0.00  0.00    +0.030 C 
ATOM     30  C   UNL     1      33.871 -14.993 -24.137  0.00  0.00    +0.140 C 
ENDBRANCH  23  25
ENDBRANCH  21  23
ENDBRANCH  20  21
ENDBRANCH  19  20
ENDBRANCH   1  19
TORSDOF 6
ENDMDL
MODEL 4
REMARK VINA RESULT:     -11.2      4.781      9.820
REMARK  Name = 3168
REMARK  6 active torsions:
REMARK  status: ('A' for Active; 'I' for Inactive)
REMARK    1  A    between atoms: N_1  and  C_19
REMARK    2  A    between atoms: C_5  and  N_9
REMARK    3  A    between atoms: C_19  and  C_20
REMARK    4  A    between atoms: C_20  and  C_21
REMARK    5  A    between atoms: C_21  and  C_23
REMARK    6  A    between atoms: C_23  and  C_25
REMARK                            x       y       z     vdW  Elec       q    Type
REMARK                         _______ _______ _______ _____ _____    ______ ____
ROOT
ATOM      1  N   UNL     1      35.665 -20.737 -19.313  0.00  0.00    +0.390 N 
ATOM      2  C   UNL     1      36.764 -20.447 -20.242  0.00  0.00    -0.071 C 
ATOM      3  C   UNL     1      36.533 -19.096 -20.937  0.00  0.00    +0.021 C 
ATOM      4  C   UNL     1      34.387 -20.860 -20.035  0.00  0.00    -0.049 C 
ATOM      5  C   UNL     1      35.122 -18.932 -21.429  0.00  0.00    +0.037 C 
ATOM      6  C   UNL     1      34.143 -19.755 -21.025  0.00  0.00    -0.036 C 
ATOM      7  H   UNL     1      35.591 -19.954 -18.664  0.00  0.00    -0.079 HD
ENDROOT
BRANCH   5   9
ATOM      8  O   UNL     1      34.820 -19.094 -24.402  0.00  0.00    -0.246 OA
ATOM      9  N   UNL     1      34.886 -17.923 -22.318  0.00  0.00    -0.263 N 
ATOM     10  N   UNL     1      34.515 -16.759 -24.242  0.00  0.00    -0.305 N 
ATOM     11  C   UNL     1      34.733 -16.561 -21.997  0.00  0.00    +0.083 A 
ATOM     12  C   UNL     1      34.751 -18.068 -23.738  0.00  0.00    +0.332 A 
ATOM     13  C   UNL     1      34.507 -15.858 -23.180  0.00  0.00    +0.076 A 
ATOM     14  C   UNL     1      34.776 -15.912 -20.780  0.00  0.00    +0.019 C 
ATOM     15  C   UNL     1      34.315 -14.494 -23.208  0.00  0.00    +0.019 C 
ATOM     16  C   UNL     1      34.585 -14.526 -20.782  0.00  0.00    +0.002 C 
ATOM     17  C   UNL     1      34.357 -13.825 -21.984  0.00  0.00    +0.002 C 
ATOM     18  H   UNL     1      34.379 -16.527 -25.190  0.00  0.00    +0.170 HD
ENDBRANCH   5   9
BRANCH   1  19
ATOM     19  C   UNL     1      35.938 -21.944 -18.536  0.00  0.00    -0.076 C 
BRANCH  19  20
ATOM     20  C   UNL     1      34.712 -22.859 -18.533  0.00  0.00    -0.015 C 
BRANCH  20  21
ATOM     21  C   UNL     1      34.222 -23.169 -17.115  0.00  0.00    +0.067 C 
BRANCH  21  23
ATOM     22  O   UNL     1      32.009 -22.508 -17.819  0.00  0.00    -0.291 OA
ATOM     23  C   UNL     1      32.717 -23.010 -16.949  0.00  0.00    +0.173 C 
BRANCH  23  25
ATOM     24  F   UNL     1      30.339 -24.852 -12.245  0.00  0.00    -0.204 F 
ATOM     25  C   UNL     1      32.081 -23.500 -15.693  0.00  0.00    +0.035 C 
ATOM     26  C   UNL     1      32.890 -23.993 -14.693  0.00  0.00    +0.005 C 
ATOM     27  C   UNL     1      30.711 -23.445 -15.579  0.00  0.00    +0.005 C 
ATOM     28  C   UNL     1      32.296 -24.454 -13.518  0.00  0.00    +0.030 C 
ATOM     29  C   UNL     1      30.116 -23.906 -14.405  0.00  0.00    +0.030 C 
ATOM     30  C   UNL     1      30.909 -24.410 -13.373  0.00  0.00    +0.140 C 
ENDBRANCH  23  25
ENDBRANCH  21  23
ENDBRANCH  20  21
ENDBRANCH  19  20
ENDBRANCH   1  19
TORSDOF 6
ENDMDL
MODEL 5
REMARK VINA RESULT:     -11.1      4.441      9.545
REMARK  Name = 3168
REMARK  6 active torsions:
REMARK  status: ('A' for Active; 'I' for Inactive)
REMARK    1  A    between atoms: N_1  and  C_19
REMARK    2  A    between atoms: C_5  and  N_9
REMARK    3  A    between atoms: C_19  and  C_20
REMARK    4  A    between atoms: C_20  and  C_21
REMARK    5  A    between atoms: C_21  and  C_23
REMARK    6  A    between atoms: C_23  and  C_25
REMARK                            x       y       z     vdW  Elec       q    Type
REMARK                         _______ _______ _______ _____ _____    ______ ____
ROOT
ATOM      1  N   UNL     1      35.874 -20.284 -19.814  0.00  0.00    +0.390 N 
ATOM      2  C   UNL     1      36.953 -19.806 -20.688  0.00  0.00    -0.071 C 
ATOM      3  C   UNL     1      36.553 -18.479 -21.351  0.00  0.00    +0.021 C 
ATOM      4  C   UNL     1      34.656 -20.565 -20.592  0.00  0.00    -0.049 C 
ATOM      5  C   UNL     1      35.153 -18.504 -21.897  0.00  0.00    +0.037 C 
ATOM      6  C   UNL     1      34.289 -19.473 -21.558  0.00  0.00    -0.036 C 
ATOM      7  H   UNL     1      35.663 -19.544 -19.145  0.00  0.00    -0.079 HD
ENDROOT
BRANCH   5   9
ATOM      8  O   UNL     1      34.652 -18.683 -24.841  0.00  0.00    -0.246 OA
ATOM      9  N   UNL     1      34.805 -17.508 -22.764  0.00  0.00    -0.263 N 
ATOM     10  N   UNL     1      34.242 -16.366 -24.655  0.00  0.00    -0.305 N 
ATOM     11  C   UNL     1      34.606 -16.155 -22.430  0.00  0.00    +0.083 A 
ATOM     12  C   UNL     1      34.578 -17.662 -24.171  0.00  0.00    +0.332 A 
ATOM     13  C   UNL     1      34.263 -15.466 -23.592  0.00  0.00    +0.076 A 
ATOM     14  C   UNL     1      34.702 -15.504 -21.217  0.00  0.00    +0.019 C 
ATOM     15  C   UNL     1      34.001 -14.114 -23.603  0.00  0.00    +0.019 C 
ATOM     16  C   UNL     1      34.442 -14.129 -21.202  0.00  0.00    +0.002 C 
ATOM     17  C   UNL     1      34.095 -13.442 -22.383  0.00  0.00    +0.002 C 
ATOM     18  H   UNL     1      34.029 -16.142 -25.590  0.00  0.00    +0.170 HD
ENDBRANCH   5   9
BRANCH   1  19
ATOM     19  C   UNL     1      36.292 -21.466 -19.062  0.00  0.00    -0.076 C 
BRANCH  19  20
ATOM     20  C   UNL     1      35.180 -22.516 -19.067  0.00  0.00    -0.015 C 
BRANCH  20  21
ATOM     21  C   UNL     1      34.663 -22.822 -17.659  0.00  0.00    +0.067 C 
BRANCH  21  23
ATOM     22  O   UNL     1      32.425 -22.500 -18.505  0.00  0.00    -0.291 OA
ATOM     23  C   UNL     1      33.145 -22.802 -17.555  0.00  0.00    +0.173 C 
BRANCH  23  25
ATOM     24  F   UNL     1      30.772 -24.217 -12.703  0.00  0.00    -0.204 F 
ATOM     25  C   UNL     1      32.512 -23.182 -16.259  0.00  0.00    +0.035 C 
ATOM     26  C   UNL     1      31.138 -23.191 -16.174  0.00  0.00    +0.005 C 
ATOM     27  C   UNL     1      33.324 -23.507 -15.197  0.00  0.00    +0.005 C 
ATOM     28  C   UNL     1      30.545 -23.544 -14.961  0.00  0.00    +0.030 C 
ATOM     29  C   UNL     1      32.732 -23.859 -13.984  0.00  0.00    +0.030 C 
ATOM     30  C   UNL     1      31.341 -23.878 -13.866  0.00  0.00    +0.140 C 
ENDBRANCH  23  25
ENDBRANCH  21  23
ENDBRANCH  20  21
ENDBRANCH  19  20
ENDBRANCH   1  19
TORSDOF 6
ENDMDL
MODEL 6
REMARK VINA RESULT:     -11.1      1.601      2.194
REMARK  Name = 3168
REMARK  6 active torsions:
REMARK  status: ('A' for Active; 'I' for Inactive)
REMARK    1  A    between atoms: N_1  and  C_19
REMARK    2  A    between atoms: C_5  and  N_9
REMARK    3  A    between atoms: C_19  and  C_20
REMARK    4  A    between atoms: C_20  and  C_21
REMARK    5  A    between atoms: C_21  and  C_23
REMARK    6  A    between atoms: C_23  and  C_25
REMARK                            x       y       z     vdW  Elec       q    Type
REMARK                         _______ _______ _______ _____ _____    ______ ____
ROOT
ATOM      1  N   UNL     1      34.933 -15.705 -23.223  0.00  0.00    +0.390 N 
ATOM      2  C   UNL     1      34.506 -15.662 -21.819  0.00  0.00    -0.071 C 
ATOM      3  C   UNL     1      35.244 -16.735 -21.004  0.00  0.00    +0.021 C 
ATOM      4  C   UNL     1      34.586 -16.998 -23.836  0.00  0.00    -0.049 C 
ATOM      5  C   UNL     1      35.276 -18.068 -21.697  0.00  0.00    +0.037 C 
ATOM      6  C   UNL     1      34.958 -18.187 -22.995  0.00  0.00    -0.036 C 
ATOM      7  H   UNL     1      35.948 -15.604 -23.244  0.00  0.00    -0.079 HD
ENDROOT
BRANCH   5   9
ATOM      8  O   UNL     1      38.007 -18.943 -20.842  0.00  0.00    -0.246 OA
ATOM      9  N   UNL     1      35.627 -19.152 -20.945  0.00  0.00    -0.263 N 
ATOM     10  N   UNL     1      36.836 -20.705 -19.796  0.00  0.00    -0.305 N 
ATOM     11  C   UNL     1      34.740 -20.104 -20.406  0.00  0.00    +0.083 A 
ATOM     12  C   UNL     1      36.962 -19.517 -20.569  0.00  0.00    +0.332 A 
ATOM     13  C   UNL     1      35.489 -21.048 -19.706  0.00  0.00    +0.076 A 
ATOM     14  C   UNL     1      33.365 -20.198 -20.483  0.00  0.00    +0.019 C 
ATOM     15  C   UNL     1      34.914 -22.118 -19.056  0.00  0.00    +0.019 C 
ATOM     16  C   UNL     1      32.757 -21.277 -19.832  0.00  0.00    +0.002 C 
ATOM     17  C   UNL     1      33.524 -22.227 -19.126  0.00  0.00    +0.002 C 
ATOM     18  H   UNL     1      37.582 -21.205 -19.389  0.00  0.00    +0.170 HD
ENDBRANCH   5   9
BRANCH   1  19
ATOM     19  C   UNL     1      34.354 -14.599 -23.983  0.00  0.00    -0.076 C 
BRANCH  19  20
ATOM     20  C   UNL     1      34.163 -13.380 -23.080  0.00  0.00    -0.015 C 
BRANCH  20  21
ATOM     21  C   UNL     1      33.418 -12.244 -23.786  0.00  0.00    +0.067 C 
BRANCH  21  23
ATOM     22  O   UNL     1      31.697 -11.893 -22.131  0.00  0.00    -0.291 OA
ATOM     23  C   UNL     1      32.568 -11.402 -22.845  0.00  0.00    +0.173 C 
BRANCH  23  25
ATOM     24  F   UNL     1      33.495  -5.902 -22.598  0.00  0.00    -0.204 F 
ATOM     25  C   UNL     1      32.817  -9.933 -22.778  0.00  0.00    +0.035 C 
ATOM     26  C   UNL     1      31.841  -9.122 -22.244  0.00  0.00    +0.005 C 
ATOM     27  C   UNL     1      34.011  -9.443 -23.254  0.00  0.00    +0.005 C 
ATOM     28  C   UNL     1      32.072  -7.748 -22.183  0.00  0.00    +0.030 C 
ATOM     29  C   UNL     1      34.244  -8.068 -23.193  0.00  0.00    +0.030 C 
ATOM     30  C   UNL     1      33.273  -7.221 -22.657  0.00  0.00    +0.140 C 
ENDBRANCH  23  25
ENDBRANCH  21  23
ENDBRANCH  20  21
ENDBRANCH  19  20
ENDBRANCH   1  19
TORSDOF 6
ENDMDL
MODEL 7
REMARK VINA RESULT:     -10.9      4.403      9.621
REMARK  Name = 3168
REMARK  6 active torsions:
REMARK  status: ('A' for Active; 'I' for Inactive)
REMARK    1  A    between atoms: N_1  and  C_19
REMARK    2  A    between atoms: C_5  and  N_9
REMARK    3  A    between atoms: C_19  and  C_20
REMARK    4  A    between atoms: C_20  and  C_21
REMARK    5  A    between atoms: C_21  and  C_23
REMARK    6  A    between atoms: C_23  and  C_25
REMARK                            x       y       z     vdW  Elec       q    Type
REMARK                         _______ _______ _______ _____ _____    ______ ____
ROOT
ATOM      1  N   UNL     1      35.281 -21.271 -18.910  0.00  0.00    +0.390 N 
ATOM      2  C   UNL     1      36.405 -21.174 -19.849  0.00  0.00    -0.071 C 
ATOM      3  C   UNL     1      36.359 -19.834 -20.599  0.00  0.00    +0.021 C 
ATOM      4  C   UNL     1      33.996 -21.247 -19.628  0.00  0.00    -0.049 C 
ATOM      5  C   UNL     1      34.983 -19.497 -21.100  0.00  0.00    +0.037 C 
ATOM      6  C   UNL     1      33.901 -20.159 -20.663  0.00  0.00    -0.036 C 
ATOM      7  H   UNL     1      35.319 -20.460 -18.294  0.00  0.00    -0.079 HD
ENDROOT
BRANCH   5   9
ATOM      8  O   UNL     1      34.907 -19.729 -24.082  0.00  0.00    -0.246 OA
ATOM      9  N   UNL     1      34.884 -18.502 -22.029  0.00  0.00    -0.263 N 
ATOM     10  N   UNL     1      34.743 -17.376 -24.006  0.00  0.00    -0.305 N 
ATOM     11  C   UNL     1      34.794 -17.124 -21.756  0.00  0.00    +0.083 A 
ATOM     12  C   UNL     1      34.853 -18.682 -23.451  0.00  0.00    +0.332 A 
ATOM     13  C   UNL     1      34.709 -16.445 -22.970  0.00  0.00    +0.076 A 
ATOM     14  C   UNL     1      34.784 -16.443 -20.555  0.00  0.00    +0.019 C 
ATOM     15  C   UNL     1      34.609 -15.073 -23.048  0.00  0.00    +0.019 C 
ATOM     16  C   UNL     1      34.684 -15.048 -20.608  0.00  0.00    +0.002 C 
ATOM     17  C   UNL     1      34.598 -14.371 -21.841  0.00  0.00    +0.002 C 
ATOM     18  H   UNL     1      34.698 -17.164 -24.967  0.00  0.00    +0.170 HD
ENDBRANCH   5   9
BRANCH   1  19
ATOM     19  C   UNL     1      35.389 -22.472 -18.083  0.00  0.00    -0.076 C 
BRANCH  19  20
ATOM     20  C   UNL     1      36.368 -22.234 -16.933  0.00  0.00    -0.015 C 
BRANCH  20  21
ATOM     21  C   UNL     1      35.734 -22.504 -15.565  0.00  0.00    +0.067 C 
BRANCH  21  23
ATOM     22  O   UNL     1      35.279 -24.870 -15.709  0.00  0.00    -0.291 OA
ATOM     23  C   UNL     1      34.839 -23.735 -15.546  0.00  0.00    +0.173 C 
BRANCH  23  25
ATOM     24  F   UNL     1      29.372 -23.046 -14.641  0.00  0.00    -0.204 F 
ATOM     25  C   UNL     1      33.379 -23.552 -15.304  0.00  0.00    +0.035 C 
ATOM     26  C   UNL     1      32.544 -23.394 -16.388  0.00  0.00    +0.005 C 
ATOM     27  C   UNL     1      32.920 -23.546 -14.006  0.00  0.00    +0.005 C 
ATOM     28  C   UNL     1      31.179 -23.222 -16.162  0.00  0.00    +0.030 C 
ATOM     29  C   UNL     1      31.554 -23.373 -13.779  0.00  0.00    +0.030 C 
ATOM     30  C   UNL     1      30.683 -23.211 -14.858  0.00  0.00    +0.140 C 
ENDBRANCH  23  25
ENDBRANCH  21  23
ENDBRANCH  20  21
ENDBRANCH  19  20
ENDBRANCH   1  19
TORSDOF 6
ENDMDL
MODEL 8
REMARK VINA RESULT:     -10.8      3.802      6.440
REMARK  Name = 3168
REMARK  6 active torsions:
REMARK  status: ('A' for Active; 'I' for Inactive)
REMARK    1  A    between atoms: N_1  and  C_19
REMARK    2  A    between atoms: C_5  and  N_9
REMARK    3  A    between atoms: C_19  and  C_20
REMARK    4  A    between atoms: C_20  and  C_21
REMARK    5  A    between atoms: C_21  and  C_23
REMARK    6  A    between atoms: C_23  and  C_25
REMARK                            x       y       z     vdW  Elec       q    Type
REMARK                         _______ _______ _______ _____ _____    ______ ____
ROOT
ATOM      1  N   UNL     1      32.185 -10.448 -21.809  0.00  0.00    +0.390 N 
ATOM      2  C   UNL     1      31.200 -11.535 -21.874  0.00  0.00    -0.071 C 
ATOM      3  C   UNL     1      31.910 -12.891 -22.008  0.00  0.00    +0.021 C 
ATOM      4  C   UNL     1      32.971 -10.379 -23.052  0.00  0.00    -0.049 C 
ATOM      5  C   UNL     1      33.014 -12.868 -23.028  0.00  0.00    +0.037 C 
ATOM      6  C   UNL     1      33.488 -11.712 -23.517  0.00  0.00    -0.036 C 
ATOM      7  H   UNL     1      32.821 -10.650 -21.038  0.00  0.00    -0.079 HD
ENDROOT
BRANCH   5   9
ATOM      8  O   UNL     1      33.062 -14.001 -25.797  0.00  0.00    -0.246 OA
ATOM      9  N   UNL     1      33.500 -14.073 -23.447  0.00  0.00    -0.263 N 
ATOM     10  N   UNL     1      34.098 -15.846 -24.749  0.00  0.00    -0.305 N 
ATOM     11  C   UNL     1      34.095 -15.052 -22.628  0.00  0.00    +0.083 A 
ATOM     12  C   UNL     1      33.493 -14.558 -24.796  0.00  0.00    +0.332 A 
ATOM     13  C   UNL     1      34.456 -16.131 -23.434  0.00  0.00    +0.076 A 
ATOM     14  C   UNL     1      34.335 -15.065 -21.269  0.00  0.00    +0.019 C 
ATOM     15  C   UNL     1      35.066 -17.260 -22.933  0.00  0.00    +0.019 C 
ATOM     16  C   UNL     1      34.953 -16.201 -20.736  0.00  0.00    +0.002 C 
ATOM     17  C   UNL     1      35.315 -17.287 -21.559  0.00  0.00    +0.002 C 
ATOM     18  H   UNL     1      34.240 -16.439 -25.522  0.00  0.00    +0.170 HD
ENDBRANCH   5   9
BRANCH   1  19
ATOM     19  C   UNL     1      31.536  -9.167 -21.534  0.00  0.00    -0.076 C 
BRANCH  19  20
ATOM     20  C   UNL     1      31.957  -8.647 -20.158  0.00  0.00    -0.015 C 
BRANCH  20  21
ATOM     21  C   UNL     1      32.950  -7.486 -20.255  0.00  0.00    +0.067 C 
BRANCH  21  23
ATOM     22  O   UNL     1      31.613  -5.707 -21.191  0.00  0.00    -0.291 OA
ATOM     23  C   UNL     1      32.578  -6.458 -21.314  0.00  0.00    +0.173 C 
BRANCH  23  25
ATOM     24  F   UNL     1      35.764  -6.053 -25.881  0.00  0.00    -0.204 F 
ATOM     25  C   UNL     1      33.427  -6.351 -22.535  0.00  0.00    +0.035 C 
ATOM     26  C   UNL     1      34.543  -7.152 -22.636  0.00  0.00    +0.005 C 
ATOM     27  C   UNL     1      33.067  -5.454 -23.515  0.00  0.00    +0.005 C 
ATOM     28  C   UNL     1      35.339  -7.051 -23.776  0.00  0.00    +0.030 C 
ATOM     29  C   UNL     1      33.863  -5.351 -24.656  0.00  0.00    +0.030 C 
ATOM     30  C   UNL     1      35.000  -6.151 -24.786  0.00  0.00    +0.140 C 
ENDBRANCH  23  25
ENDBRANCH  21  23
ENDBRANCH  20  21
ENDBRANCH  19  20
ENDBRANCH   1  19
TORSDOF 6
ENDMDL
MODEL 9
REMARK VINA RESULT:     -10.7      5.378      8.774
REMARK  Name = 3168
REMARK  6 active torsions:
REMARK  status: ('A' for Active; 'I' for Inactive)
REMARK    1  A    between atoms: N_1  and  C_19
REMARK    2  A    between atoms: C_5  and  N_9
REMARK    3  A    between atoms: C_19  and  C_20
REMARK    4  A    between atoms: C_20  and  C_21
REMARK    5  A    between atoms: C_21  and  C_23
REMARK    6  A    between atoms: C_23  and  C_25
REMARK                            x       y       z     vdW  Elec       q    Type
REMARK                         _______ _______ _______ _____ _____    ______ ____
ROOT
ATOM      1  N   UNL     1      34.155 -22.973 -17.916  0.00  0.00    +0.390 N 
ATOM      2  C   UNL     1      35.216 -22.249 -17.206  0.00  0.00    -0.071 C 
ATOM      3  C   UNL     1      35.798 -23.124 -16.083  0.00  0.00    +0.021 C 
ATOM      4  C   UNL     1      33.034 -23.278 -17.011  0.00  0.00    -0.049 C 
ATOM      5  C   UNL     1      34.733 -23.805 -15.270  0.00  0.00    +0.037 C 
ATOM      6  C   UNL     1      33.461 -23.860 -15.692  0.00  0.00    -0.036 C 
ATOM      7  H   UNL     1      34.546 -23.853 -18.249  0.00  0.00    -0.079 HD
ENDROOT
BRANCH   5   9
ATOM      8  O   UNL     1      33.126 -24.123 -12.766  0.00  0.00    -0.246 OA
ATOM      9  N   UNL     1      35.114 -24.349 -14.077  0.00  0.00    -0.263 N 
ATOM     10  N   UNL     1      35.106 -25.094 -11.923  0.00  0.00    -0.305 N 
ATOM     11  C   UNL     1      36.381 -24.886 -13.782  0.00  0.00    +0.083 A 
ATOM     12  C   UNL     1      34.290 -24.472 -12.909  0.00  0.00    +0.332 A 
ATOM     13  C   UNL     1      36.366 -25.338 -12.464  0.00  0.00    +0.076 A 
ATOM     14  C   UNL     1      37.513 -25.002 -14.563  0.00  0.00    +0.019 C 
ATOM     15  C   UNL     1      37.461 -25.921 -11.866  0.00  0.00    +0.019 C 
ATOM     16  C   UNL     1      38.640 -25.591 -13.978  0.00  0.00    +0.002 C 
ATOM     17  C   UNL     1      38.614 -26.045 -12.643  0.00  0.00    +0.002 C 
ATOM     18  H   UNL     1      34.824 -25.316 -11.005  0.00  0.00    +0.170 HD
ENDBRANCH   5   9
BRANCH   1  19
ATOM     19  C   UNL     1      33.691 -22.217 -19.078  0.00  0.00    -0.076 C 
BRANCH  19  20
ATOM     20  C   UNL     1      34.803 -21.301 -19.591  0.00  0.00    -0.015 C 
BRANCH  20  21
ATOM     21  C   UNL     1      34.296 -20.293 -20.626  0.00  0.00    +0.067 C 
BRANCH  21  23
ATOM     22  O   UNL     1      36.461 -19.231 -20.533  0.00  0.00    -0.291 OA
ATOM     23  C   UNL     1      35.356 -19.294 -21.066  0.00  0.00    +0.173 C 
BRANCH  23  25
ATOM     24  F   UNL     1      34.184 -15.844 -25.298  0.00  0.00    -0.204 F 
ATOM     25  C   UNL     1      35.044 -18.373 -22.197  0.00  0.00    +0.035 C 
ATOM     26  C   UNL     1      35.293 -17.028 -22.042  0.00  0.00    +0.005 C 
ATOM     27  C   UNL     1      34.517 -18.902 -23.354  0.00  0.00    +0.005 C 
ATOM     28  C   UNL     1      35.000 -16.166 -23.099  0.00  0.00    +0.030 C 
ATOM     29  C   UNL     1      34.223 -18.040 -24.411  0.00  0.00    +0.030 C 
ATOM     30  C   UNL     1      34.465 -16.672 -24.283  0.00  0.00    +0.140 C 
ENDBRANCH  23  25
ENDBRANCH  21  23
ENDBRANCH  20  21
ENDBRANCH  19  20
ENDBRANCH   1  19
TORSDOF 6
ENDMDL
