MODEL 1
REMARK VINA RESULT:     -12.3      0.000      0.000
REMARK  Name = 23729147
REMARK  5 active torsions:
REMARK  status: ('A' for Active; 'I' for Inactive)
REMARK    1  A    between atoms: O_1  and  C_6
REMARK    2  A    between atoms: O_1  and  C_18
REMARK    3  A    between atoms: C_18  and  C_20
REMARK    4  A    between atoms: N_19  and  C_26
REMARK    5  A    between atoms: C_26  and  C_28
REMARK                            x       y       z     vdW  Elec       q    Type
REMARK                         _______ _______ _______ _____ _____    ______ ____
ROOT
ATOM      1  O   UNL     1      34.943 -22.804 -17.256  0.00  0.00    -0.479 OA
ENDROOT
BRANCH   1   6
ATOM      2  N   UNL     1      35.916 -24.185 -12.714  0.00  0.00    -0.332 NA
ATOM      3  N   UNL     1      37.749 -23.489 -14.116  0.00  0.00    -0.317 NA
ATOM      4  N   UNL     1      37.401 -22.804 -16.318  0.00  0.00    -0.335 N 
ATOM      5  N   UNL     1      38.117 -24.174 -11.906  0.00  0.00    -0.283 N 
ATOM      6  C   UNL     1      34.574 -23.260 -16.013  0.00  0.00    +0.130 C 
ATOM      7  C   UNL     1      35.487 -23.492 -14.970  0.00  0.00    +0.177 C 
ATOM      8  C   UNL     1      33.217 -23.496 -15.816  0.00  0.00    +0.033 C 
ATOM      9  C   UNL     1      35.051 -23.961 -13.720  0.00  0.00    +0.137 C 
ATOM     10  C   UNL     1      36.856 -23.275 -15.101  0.00  0.00    +0.181 C 
ATOM     11  C   UNL     1      32.775 -23.961 -14.584  0.00  0.00    +0.005 C 
ATOM     12  C   UNL     1      33.688 -24.187 -13.550  0.00  0.00    +0.030 C 
ATOM     13  C   UNL     1      37.217 -23.937 -12.967  0.00  0.00    +0.197 C 
ATOM     14  H   UNL     1      38.371 -22.655 -16.398  0.00  0.00    +0.144 HD
ATOM     15  H   UNL     1      36.810 -22.624 -17.085  0.00  0.00    +0.144 HD
ATOM     16  H   UNL     1      37.784 -24.503 -11.041  0.00  0.00    +0.156 HD
ATOM     17  H   UNL     1      39.080 -24.010 -12.032  0.00  0.00    +0.156 HD
ENDBRANCH   1   6
BRANCH   1  18
ATOM     18  C   UNL     1      33.922 -22.706 -18.232  0.00  0.00    +0.205 C 
BRANCH  18  20
ATOM     19  N   UNL     1      35.355 -19.453 -20.687  0.00  0.00    +0.390 N 
ATOM     20  C   UNL     1      34.478 -21.958 -19.441  0.00  0.00    +0.040 C 
ATOM     21  C   UNL     1      35.824 -21.303 -19.113  0.00  0.00    -0.019 C 
ATOM     22  C   UNL     1      33.491 -20.894 -19.932  0.00  0.00    -0.019 C 
ATOM     23  C   UNL     1      36.339 -20.468 -20.288  0.00  0.00    -0.077 C 
ATOM     24  C   UNL     1      34.082 -20.072 -21.080  0.00  0.00    -0.077 C 
ATOM     25  H   UNL     1      35.177 -18.853 -19.882  0.00  0.00    -0.079 HD
BRANCH  19  26
ATOM     26  C   UNL     1      35.882 -18.631 -21.776  0.00  0.00    -0.048 C 
BRANCH  26  28
ATOM     27  F   UNL     1      35.204 -17.234 -24.148  0.00  0.00    -0.205 F 
ATOM     28  C   UNL     1      35.285 -17.249 -21.775  0.00  0.00    -0.016 C 
ATOM     29  C   UNL     1      34.975 -16.618 -22.980  0.00  0.00    +0.134 C 
ATOM     30  C   UNL     1      35.043 -16.599 -20.566  0.00  0.00    -0.004 C 
ATOM     31  C   UNL     1      34.423 -15.336 -22.975  0.00  0.00    +0.029 C 
ATOM     32  C   UNL     1      34.490 -15.318 -20.560  0.00  0.00    -0.000 C 
ATOM     33  C   UNL     1      34.181 -14.686 -21.765  0.00  0.00    +0.002 C 
ENDBRANCH  26  28
ENDBRANCH  19  26
ENDBRANCH  18  20
ENDBRANCH   1  18
TORSDOF 5
ENDMDL
MODEL 2
REMARK VINA RESULT:     -12.1      3.614     10.097
REMARK  Name = 23729147
REMARK  5 active torsions:
REMARK  status: ('A' for Active; 'I' for Inactive)
REMARK    1  A    between atoms: O_1  and  C_6
REMARK    2  A    between atoms: O_1  and  C_18
REMARK    3  A    between atoms: C_18  and  C_20
REMARK    4  A    between atoms: N_19  and  C_26
REMARK    5  A    between atoms: C_26  and  C_28
REMARK                            x       y       z     vdW  Elec       q    Type
REMARK                         _______ _______ _______ _____ _____    ______ ____
ROOT
ATOM      1  O   UNL     1      35.207 -18.182 -22.163  0.00  0.00    -0.479 OA
ENDROOT
BRANCH   1   6
ATOM      2  N   UNL     1      33.594 -13.970 -23.937  0.00  0.00    -0.332 NA
ATOM      3  N   UNL     1      33.826 -15.834 -25.447  0.00  0.00    -0.317 NA
ATOM      4  N   UNL     1      34.592 -17.909 -24.707  0.00  0.00    -0.335 N 
ATOM      5  N   UNL     1      33.054 -13.757 -26.209  0.00  0.00    -0.283 N 
ATOM      6  C   UNL     1      34.843 -16.862 -22.036  0.00  0.00    +0.130 C 
ATOM      7  C   UNL     1      34.388 -16.077 -23.108  0.00  0.00    +0.177 C 
ATOM      8  C   UNL     1      34.947 -16.310 -20.763  0.00  0.00    +0.033 C 
ATOM      9  C   UNL     1      34.032 -14.731 -22.918  0.00  0.00    +0.137 C 
ATOM     10  C   UNL     1      34.260 -16.567 -24.405  0.00  0.00    +0.181 C 
ATOM     11  C   UNL     1      34.599 -14.980 -20.563  0.00  0.00    +0.005 C 
ATOM     12  C   UNL     1      34.145 -14.205 -21.634  0.00  0.00    +0.030 C 
ATOM     13  C   UNL     1      33.515 -14.563 -25.146  0.00  0.00    +0.197 C 
ATOM     14  H   UNL     1      34.497 -18.244 -25.627  0.00  0.00    +0.144 HD
ATOM     15  H   UNL     1      34.917 -18.508 -23.996  0.00  0.00    +0.144 HD
ATOM     16  H   UNL     1      32.812 -12.817 -26.046  0.00  0.00    +0.156 HD
ATOM     17  H   UNL     1      32.975 -14.136 -27.115  0.00  0.00    +0.156 HD
ENDBRANCH   1   6
BRANCH   1  18
ATOM     18  C   UNL     1      35.941 -18.751 -21.095  0.00  0.00    +0.205 C 
BRANCH  18  20
ATOM     19  N   UNL     1      34.207 -22.020 -18.868  0.00  0.00    +0.390 N 
ATOM     20  C   UNL     1      35.361 -20.128 -20.787  0.00  0.00    +0.040 C 
ATOM     21  C   UNL     1      33.915 -20.019 -20.292  0.00  0.00    -0.019 C 
ATOM     22  C   UNL     1      36.210 -20.863 -19.745  0.00  0.00    -0.019 C 
ATOM     23  C   UNL     1      33.360 -21.386 -19.887  0.00  0.00    -0.077 C 
ATOM     24  C   UNL     1      35.579 -22.203 -19.358  0.00  0.00    -0.077 C 
ATOM     25  H   UNL     1      34.242 -21.401 -18.058  0.00  0.00    -0.079 HD
BRANCH  19  26
ATOM     26  C   UNL     1      33.636 -23.302 -18.454  0.00  0.00    -0.048 C 
BRANCH  26  28
ATOM     27  F   UNL     1      35.442 -23.443 -16.273  0.00  0.00    -0.205 F 
ATOM     28  C   UNL     1      33.192 -23.279 -17.015  0.00  0.00    -0.016 C 
ATOM     29  C   UNL     1      34.136 -23.352 -15.990  0.00  0.00    +0.134 C 
ATOM     30  C   UNL     1      31.836 -23.186 -16.709  0.00  0.00    -0.004 C 
ATOM     31  C   UNL     1      33.721 -23.332 -14.657  0.00  0.00    +0.029 C 
ATOM     32  C   UNL     1      31.420 -23.165 -15.377  0.00  0.00    -0.000 C 
ATOM     33  C   UNL     1      32.363 -23.239 -14.352  0.00  0.00    +0.002 C 
ENDBRANCH  26  28
ENDBRANCH  19  26
ENDBRANCH  18  20
ENDBRANCH   1  18
TORSDOF 5
ENDMDL
MODEL 3
REMARK VINA RESULT:     -12.1      2.177      3.121
REMARK  Name = 23729147
REMARK  5 active torsions:
REMARK  status: ('A' for Active; 'I' for Inactive)
REMARK    1  A    between atoms: O_1  and  C_6
REMARK    2  A    between atoms: O_1  and  C_18
REMARK    3  A    between atoms: C_18  and  C_20
REMARK    4  A    between atoms: N_19  and  C_26
REMARK    5  A    between atoms: C_26  and  C_28
REMARK                            x       y       z     vdW  Elec       q    Type
REMARK                         _______ _______ _______ _____ _____    ______ ____
ROOT
ATOM      1  O   UNL     1      35.105 -22.553 -17.792  0.00  0.00    -0.479 OA
ENDROOT
BRANCH   1   6
ATOM      2  N   UNL     1      32.312 -24.117 -14.153  0.00  0.00    -0.332 NA
ATOM      3  N   UNL     1      31.246 -23.457 -16.211  0.00  0.00    -0.317 NA
ATOM      4  N   UNL     1      32.488 -22.688 -18.030  0.00  0.00    -0.335 N 
ATOM      5  N   UNL     1      29.982 -24.227 -14.395  0.00  0.00    -0.283 N 
ATOM      6  C   UNL     1      34.915 -23.035 -16.519  0.00  0.00    +0.130 C 
ATOM      7  C   UNL     1      33.650 -23.336 -15.985  0.00  0.00    +0.177 C 
ATOM      8  C   UNL     1      36.058 -23.220 -15.749  0.00  0.00    +0.033 C 
ATOM      9  C   UNL     1      33.517 -23.825 -14.675  0.00  0.00    +0.137 C 
ATOM     10  C   UNL     1      32.468 -23.175 -16.702  0.00  0.00    +0.181 C 
ATOM     11  C   UNL     1      35.939 -23.703 -14.451  0.00  0.00    +0.005 C 
ATOM     12  C   UNL     1      34.678 -24.001 -13.926  0.00  0.00    +0.030 C 
ATOM     13  C   UNL     1      31.243 -23.917 -14.950  0.00  0.00    +0.197 C 
ATOM     14  H   UNL     1      31.646 -22.578 -18.527  0.00  0.00    +0.144 HD
ATOM     15  H   UNL     1      33.345 -22.460 -18.458  0.00  0.00    +0.144 HD
ATOM     16  H   UNL     1      29.919 -24.568 -13.475  0.00  0.00    +0.156 HD
ATOM     17  H   UNL     1      29.165 -24.102 -14.931  0.00  0.00    +0.156 HD
ENDBRANCH   1   6
BRANCH   1  18
ATOM     18  C   UNL     1      36.373 -21.995 -18.084  0.00  0.00    +0.205 C 
BRANCH  18  20
ATOM     19  N   UNL     1      35.676 -18.956 -21.073  0.00  0.00    +0.390 N 
ATOM     20  C   UNL     1      36.300 -21.315 -19.448  0.00  0.00    +0.040 C 
ATOM     21  C   UNL     1      37.214 -20.086 -19.501  0.00  0.00    -0.019 C 
ATOM     22  C   UNL     1      34.863 -20.904 -19.783  0.00  0.00    -0.019 C 
ATOM     23  C   UNL     1      37.072 -19.342 -20.830  0.00  0.00    -0.077 C 
ATOM     24  C   UNL     1      34.797 -20.132 -21.103  0.00  0.00    -0.077 C 
ATOM     25  H   UNL     1      35.375 -18.359 -20.302  0.00  0.00    -0.079 HD
BRANCH  19  26
ATOM     26  C   UNL     1      35.564 -18.201 -22.321  0.00  0.00    -0.048 C 
BRANCH  26  28
ATOM     27  F   UNL     1      35.134 -16.337 -24.414  0.00  0.00    -0.205 F 
ATOM     28  C   UNL     1      35.097 -16.789 -22.083  0.00  0.00    -0.016 C 
ATOM     29  C   UNL     1      34.906 -15.923 -23.160  0.00  0.00    +0.134 C 
ATOM     30  C   UNL     1      34.857 -16.348 -20.782  0.00  0.00    -0.004 C 
ATOM     31  C   UNL     1      34.474 -14.615 -22.934  0.00  0.00    +0.029 C 
ATOM     32  C   UNL     1      34.426 -15.041 -20.557  0.00  0.00    -0.000 C 
ATOM     33  C   UNL     1      34.235 -14.174 -21.633  0.00  0.00    +0.002 C 
ENDBRANCH  26  28
ENDBRANCH  19  26
ENDBRANCH  18  20
ENDBRANCH   1  18
TORSDOF 5
ENDMDL
MODEL 4
REMARK VINA RESULT:     -11.5      1.343      1.738
REMARK  Name = 23729147
REMARK  5 active torsions:
REMARK  status: ('A' for Active; 'I' for Inactive)
REMARK    1  A    between atoms: O_1  and  C_6
REMARK    2  A    between atoms: O_1  and  C_18
REMARK    3  A    between atoms: C_18  and  C_20
REMARK    4  A    between atoms: N_19  and  C_26
REMARK    5  A    between atoms: C_26  and  C_28
REMARK                            x       y       z     vdW  Elec       q    Type
REMARK                         _______ _______ _______ _____ _____    ______ ____
ROOT
ATOM      1  O   UNL     1      33.867 -23.125 -16.959  0.00  0.00    -0.479 OA
ENDROOT
BRANCH   1   6
ATOM      2  N   UNL     1      33.782 -24.552 -12.328  0.00  0.00    -0.332 NA
ATOM      3  N   UNL     1      35.921 -24.155 -13.364  0.00  0.00    -0.317 NA
ATOM      4  N   UNL     1      36.086 -23.466 -15.586  0.00  0.00    -0.335 N 
ATOM      5  N   UNL     1      35.776 -24.848 -11.130  0.00  0.00    -0.283 N 
ATOM      6  C   UNL     1      33.215 -23.501 -15.809  0.00  0.00    +0.130 C 
ATOM      7  C   UNL     1      33.878 -23.844 -14.618  0.00  0.00    +0.177 C 
ATOM      8  C   UNL     1      31.825 -23.534 -15.866  0.00  0.00    +0.033 C 
ATOM      9  C   UNL     1      33.157 -24.223 -13.474  0.00  0.00    +0.137 C 
ATOM     10  C   UNL     1      35.265 -23.832 -14.494  0.00  0.00    +0.181 C 
ATOM     11  C   UNL     1      31.102 -23.908 -14.740  0.00  0.00    +0.005 C 
ATOM     12  C   UNL     1      31.768 -24.246 -13.559  0.00  0.00    +0.030 C 
ATOM     13  C   UNL     1      35.129 -24.501 -12.336  0.00  0.00    +0.197 C 
ATOM     14  H   UNL     1      37.065 -23.461 -15.486  0.00  0.00    +0.144 HD
ATOM     15  H   UNL     1      35.678 -23.216 -16.447  0.00  0.00    +0.144 HD
ATOM     16  H   UNL     1      35.246 -25.109 -10.344  0.00  0.00    +0.156 HD
ATOM     17  H   UNL     1      36.759 -24.827 -11.076  0.00  0.00    +0.156 HD
ENDBRANCH   1   6
BRANCH   1  18
ATOM     18  C   UNL     1      33.061 -22.770 -18.067  0.00  0.00    +0.205 C 
BRANCH  18  20
ATOM     19  N   UNL     1      35.599 -19.997 -20.194  0.00  0.00    +0.390 N 
ATOM     20  C   UNL     1      33.961 -22.196 -19.158  0.00  0.00    +0.040 C 
ATOM     21  C   UNL     1      35.357 -21.882 -18.611  0.00  0.00    -0.019 C 
ATOM     22  C   UNL     1      33.348 -20.932 -19.769  0.00  0.00    -0.019 C 
ATOM     23  C   UNL     1      36.234 -21.214 -19.672  0.00  0.00    -0.077 C 
ATOM     24  C   UNL     1      34.291 -20.295 -20.792  0.00  0.00    -0.077 C 
ATOM     25  H   UNL     1      35.448 -19.360 -19.411  0.00  0.00    -0.079 HD
BRANCH  19  26
ATOM     26  C   UNL     1      36.471 -19.343 -21.169  0.00  0.00    -0.048 C 
BRANCH  26  28
ATOM     27  F   UNL     1      35.319 -20.041 -23.663  0.00  0.00    -0.205 F 
ATOM     28  C   UNL     1      35.715 -18.364 -22.029  0.00  0.00    -0.016 C 
ATOM     29  C   UNL     1      35.174 -18.776 -23.247  0.00  0.00    +0.134 C 
ATOM     30  C   UNL     1      35.559 -17.045 -21.606  0.00  0.00    -0.004 C 
ATOM     31  C   UNL     1      34.475 -17.866 -24.042  0.00  0.00    +0.029 C 
ATOM     32  C   UNL     1      34.861 -16.136 -22.400  0.00  0.00    -0.000 C 
ATOM     33  C   UNL     1      34.319 -16.546 -23.619  0.00  0.00    +0.002 C 
ENDBRANCH  26  28
ENDBRANCH  19  26
ENDBRANCH  18  20
ENDBRANCH   1  18
TORSDOF 5
ENDMDL
MODEL 5
REMARK VINA RESULT:     -11.5      2.983      4.843
REMARK  Name = 23729147
REMARK  5 active torsions:
REMARK  status: ('A' for Active; 'I' for Inactive)
REMARK    1  A    between atoms: O_1  and  C_6
REMARK    2  A    between atoms: O_1  and  C_18
REMARK    3  A    between atoms: C_18  and  C_20
REMARK    4  A    between atoms: N_19  and  C_26
REMARK    5  A    between atoms: C_26  and  C_28
REMARK                            x       y       z     vdW  Elec       q    Type
REMARK                         _______ _______ _______ _____ _____    ______ ____
ROOT
ATOM      1  O   UNL     1      34.509 -25.226 -13.008  0.00  0.00    -0.479 OA
ENDROOT
BRANCH   1   6
ATOM      2  N   UNL     1      39.354 -25.246 -12.925  0.00  0.00    -0.332 NA
ATOM      3  N   UNL     1      38.229 -26.808 -14.374  0.00  0.00    -0.317 NA
ATOM      4  N   UNL     1      35.901 -26.890 -14.497  0.00  0.00    -0.335 N 
ATOM      5  N   UNL     1      40.568 -26.741 -14.263  0.00  0.00    -0.283 N 
ATOM      6  C   UNL     1      35.724 -24.764 -12.563  0.00  0.00    +0.130 C 
ATOM      7  C   UNL     1      36.957 -25.276 -13.003  0.00  0.00    +0.177 C 
ATOM      8  C   UNL     1      35.692 -23.735 -11.627  0.00  0.00    +0.033 C 
ATOM      9  C   UNL     1      38.169 -24.764 -12.510  0.00  0.00    +0.137 C 
ATOM     10  C   UNL     1      37.060 -26.303 -13.938  0.00  0.00    +0.181 C 
ATOM     11  C   UNL     1      36.884 -23.221 -11.132  0.00  0.00    +0.005 C 
ATOM     12  C   UNL     1      38.107 -23.735 -11.575  0.00  0.00    +0.030 C 
ATOM     13  C   UNL     1      39.320 -26.241 -13.834  0.00  0.00    +0.197 C 
ATOM     14  H   UNL     1      35.986 -27.616 -15.157  0.00  0.00    +0.144 HD
ATOM     15  H   UNL     1      35.009 -26.573 -14.227  0.00  0.00    +0.144 HD
ATOM     16  H   UNL     1      41.401 -26.363 -13.901  0.00  0.00    +0.156 HD
ATOM     17  H   UNL     1      40.605 -27.468 -14.927  0.00  0.00    +0.156 HD
ENDBRANCH   1   6
BRANCH   1  18
ATOM     18  C   UNL     1      33.514 -24.256 -13.281  0.00  0.00    +0.205 C 
BRANCH  18  20
ATOM     19  N   UNL     1      33.222 -22.771 -17.326  0.00  0.00    +0.390 N 
ATOM     20  C   UNL     1      33.259 -24.233 -14.785  0.00  0.00    +0.040 C 
ATOM     21  C   UNL     1      34.538 -23.890 -15.556  0.00  0.00    -0.019 C 
ATOM     22  C   UNL     1      32.157 -23.231 -15.141  0.00  0.00    -0.019 C 
ATOM     23  C   UNL     1      34.269 -23.767 -17.057  0.00  0.00    -0.077 C 
ATOM     24  C   UNL     1      31.965 -23.129 -16.656  0.00  0.00    -0.077 C 
ATOM     25  H   UNL     1      33.535 -21.876 -16.951  0.00  0.00    -0.079 HD
BRANCH  19  26
ATOM     26  C   UNL     1      33.012 -22.628 -18.767  0.00  0.00    -0.048 C 
BRANCH  26  28
ATOM     27  F   UNL     1      32.270 -20.496 -20.483  0.00  0.00    -0.205 F 
ATOM     28  C   UNL     1      34.010 -21.686 -19.388  0.00  0.00    -0.016 C 
ATOM     29  C   UNL     1      33.575 -20.657 -20.224  0.00  0.00    +0.134 C 
ATOM     30  C   UNL     1      35.369 -21.845 -19.126  0.00  0.00    -0.004 C 
ATOM     31  C   UNL     1      34.503 -19.788 -20.799  0.00  0.00    +0.029 C 
ATOM     32  C   UNL     1      36.297 -20.976 -19.700  0.00  0.00    -0.000 C 
ATOM     33  C   UNL     1      35.864 -19.947 -20.537  0.00  0.00    +0.002 C 
ENDBRANCH  26  28
ENDBRANCH  19  26
ENDBRANCH  18  20
ENDBRANCH   1  18
TORSDOF 5
ENDMDL
MODEL 6
REMARK VINA RESULT:     -11.4      3.629      5.954
REMARK  Name = 23729147
REMARK  5 active torsions:
REMARK  status: ('A' for Active; 'I' for Inactive)
REMARK    1  A    between atoms: O_1  and  C_6
REMARK    2  A    between atoms: O_1  and  C_18
REMARK    3  A    between atoms: C_18  and  C_20
REMARK    4  A    between atoms: N_19  and  C_26
REMARK    5  A    between atoms: C_26  and  C_28
REMARK                            x       y       z     vdW  Elec       q    Type
REMARK                         _______ _______ _______ _____ _____    ______ ____
ROOT
ATOM      1  O   UNL     1      34.427 -19.294 -21.634  0.00  0.00    -0.479 OA
ENDROOT
BRANCH   1   6
ATOM      2  N   UNL     1      34.859 -22.596 -18.114  0.00  0.00    -0.332 NA
ATOM      3  N   UNL     1      32.666 -22.163 -19.013  0.00  0.00    -0.317 NA
ATOM      4  N   UNL     1      32.336 -20.596 -20.709  0.00  0.00    -0.335 N 
ATOM      5  N   UNL     1      32.977 -23.741 -17.309  0.00  0.00    -0.283 N 
ATOM      6  C   UNL     1      35.158 -20.024 -20.728  0.00  0.00    +0.130 C 
ATOM      7  C   UNL     1      34.592 -20.971 -19.858  0.00  0.00    +0.177 C 
ATOM      8  C   UNL     1      36.528 -19.783 -20.699  0.00  0.00    +0.033 C 
ATOM      9  C   UNL     1      35.391 -21.687 -18.950  0.00  0.00    +0.137 C 
ATOM     10  C   UNL     1      33.230 -21.260 -19.837  0.00  0.00    +0.181 C 
ATOM     11  C   UNL     1      37.328 -20.484 -19.804  0.00  0.00    +0.005 C 
ATOM     12  C   UNL     1      36.758 -21.426 -18.943  0.00  0.00    +0.030 C 
ATOM     13  C   UNL     1      33.526 -22.785 -18.191  0.00  0.00    +0.197 C 
ATOM     14  H   UNL     1      31.376 -20.809 -20.685  0.00  0.00    +0.144 HD
ATOM     15  H   UNL     1      32.675 -19.922 -21.341  0.00  0.00    +0.144 HD
ATOM     16  H   UNL     1      33.561 -24.228 -16.684  0.00  0.00    +0.156 HD
ATOM     17  H   UNL     1      32.009 -23.922 -17.321  0.00  0.00    +0.156 HD
ENDBRANCH   1   6
BRANCH   1  18
ATOM     18  C   UNL     1      34.962 -19.168 -22.938  0.00  0.00    +0.205 C 
BRANCH  18  20
ATOM     19  N   UNL     1      33.767 -15.037 -23.345  0.00  0.00    +0.390 N 
ATOM     20  C   UNL     1      35.023 -17.686 -23.297  0.00  0.00    +0.040 C 
ATOM     21  C   UNL     1      34.901 -16.810 -22.046  0.00  0.00    -0.019 C 
ATOM     22  C   UNL     1      33.923 -17.316 -24.296  0.00  0.00    -0.019 C 
ATOM     23  C   UNL     1      34.861 -15.324 -22.407  0.00  0.00    -0.077 C 
ATOM     24  C   UNL     1      33.914 -15.812 -24.584  0.00  0.00    -0.077 C 
ATOM     25  H   UNL     1      32.892 -15.315 -22.902  0.00  0.00    -0.079 HD
BRANCH  19  26
ATOM     26  C   UNL     1      33.710 -13.606 -23.641  0.00  0.00    -0.048 C 
BRANCH  26  28
ATOM     27  F   UNL     1      32.956 -10.890 -23.944  0.00  0.00    -0.205 F 
ATOM     28  C   UNL     1      32.917 -12.851 -22.607  0.00  0.00    -0.016 C 
ATOM     29  C   UNL     1      32.580 -11.514 -22.820  0.00  0.00    +0.134 C 
ATOM     30  C   UNL     1      32.520 -13.492 -21.434  0.00  0.00    -0.004 C 
ATOM     31  C   UNL     1      31.845 -10.818 -21.859  0.00  0.00    +0.029 C 
ATOM     32  C   UNL     1      31.786 -12.796 -20.473  0.00  0.00    -0.000 C 
ATOM     33  C   UNL     1      31.449 -11.459 -20.685  0.00  0.00    +0.002 C 
ENDBRANCH  26  28
ENDBRANCH  19  26
ENDBRANCH  18  20
ENDBRANCH   1  18
TORSDOF 5
ENDMDL
MODEL 7
REMARK VINA RESULT:     -11.2      3.604      9.806
REMARK  Name = 23729147
REMARK  5 active torsions:
REMARK  status: ('A' for Active; 'I' for Inactive)
REMARK    1  A    between atoms: O_1  and  C_6
REMARK    2  A    between atoms: O_1  and  C_18
REMARK    3  A    between atoms: C_18  and  C_20
REMARK    4  A    between atoms: N_19  and  C_26
REMARK    5  A    between atoms: C_26  and  C_28
REMARK                            x       y       z     vdW  Elec       q    Type
REMARK                         _______ _______ _______ _____ _____    ______ ____
ROOT
ATOM      1  O   UNL     1      35.224 -18.008 -20.957  0.00  0.00    -0.479 OA
ENDROOT
BRANCH   1   6
ATOM      2  N   UNL     1      33.916 -14.407 -23.925  0.00  0.00    -0.332 NA
ATOM      3  N   UNL     1      34.142 -13.927 -21.575  0.00  0.00    -0.317 NA
ATOM      4  N   UNL     1      34.766 -15.580 -20.052  0.00  0.00    -0.335 N 
ATOM      5  N   UNL     1      33.514 -12.253 -23.089  0.00  0.00    -0.283 N 
ATOM      6  C   UNL     1      34.921 -17.496 -22.195  0.00  0.00    +0.130 C 
ATOM      7  C   UNL     1      34.562 -16.155 -22.414  0.00  0.00    +0.177 C 
ATOM      8  C   UNL     1      34.981 -18.384 -23.265  0.00  0.00    +0.033 C 
ATOM      9  C   UNL     1      34.260 -15.689 -23.704  0.00  0.00    +0.137 C 
ATOM     10  C   UNL     1      34.483 -15.216 -21.389  0.00  0.00    +0.181 C 
ATOM     11  C   UNL     1      34.684 -17.934 -24.546  0.00  0.00    +0.005 C 
ATOM     12  C   UNL     1      34.329 -16.599 -24.756  0.00  0.00    +0.030 C 
ATOM     13  C   UNL     1      33.876 -13.596 -22.849  0.00  0.00    +0.197 C 
ATOM     14  H   UNL     1      34.708 -14.907 -19.336  0.00  0.00    +0.144 HD
ATOM     15  H   UNL     1      35.024 -16.505 -19.837  0.00  0.00    +0.144 HD
ATOM     16  H   UNL     1      33.308 -11.955 -24.004  0.00  0.00    +0.156 HD
ATOM     17  H   UNL     1      33.469 -11.614 -22.341  0.00  0.00    +0.156 HD
ENDBRANCH   1   6
BRANCH   1  18
ATOM     18  C   UNL     1      36.214 -19.018 -20.905  0.00  0.00    +0.205 C 
BRANCH  18  20
ATOM     19  N   UNL     1      34.119 -22.108 -18.732  0.00  0.00    +0.390 N 
ATOM     20  C   UNL     1      35.532 -20.350 -20.605  0.00  0.00    +0.040 C 
ATOM     21  C   UNL     1      34.059 -20.144 -20.234  0.00  0.00    -0.019 C 
ATOM     22  C   UNL     1      36.250 -21.095 -19.475  0.00  0.00    -0.019 C 
ATOM     23  C   UNL     1      33.395 -21.463 -19.836  0.00  0.00    -0.077 C 
ATOM     24  C   UNL     1      35.514 -22.384 -19.101  0.00  0.00    -0.077 C 
ATOM     25  H   UNL     1      34.124 -21.465 -17.941  0.00  0.00    -0.079 HD
BRANCH  19  26
ATOM     26  C   UNL     1      33.443 -23.342 -18.329  0.00  0.00    -0.048 C 
BRANCH  26  28
ATOM     27  F   UNL     1      35.250 -23.570 -16.156  0.00  0.00    -0.205 F 
ATOM     28  C   UNL     1      33.007 -23.296 -16.888  0.00  0.00    -0.016 C 
ATOM     29  C   UNL     1      33.951 -23.416 -15.867  0.00  0.00    +0.134 C 
ATOM     30  C   UNL     1      31.658 -23.136 -16.576  0.00  0.00    -0.004 C 
ATOM     31  C   UNL     1      33.543 -23.375 -14.533  0.00  0.00    +0.029 C 
ATOM     32  C   UNL     1      31.251 -23.095 -15.243  0.00  0.00    -0.000 C 
ATOM     33  C   UNL     1      32.193 -23.215 -14.221  0.00  0.00    +0.002 C 
ENDBRANCH  26  28
ENDBRANCH  19  26
ENDBRANCH  18  20
ENDBRANCH   1  18
TORSDOF 5
ENDMDL
MODEL 8
REMARK VINA RESULT:     -11.2      2.453      3.572
REMARK  Name = 23729147
REMARK  5 active torsions:
REMARK  status: ('A' for Active; 'I' for Inactive)
REMARK    1  A    between atoms: O_1  and  C_6
REMARK    2  A    between atoms: O_1  and  C_18
REMARK    3  A    between atoms: C_18  and  C_20
REMARK    4  A    between atoms: N_19  and  C_26
REMARK    5  A    between atoms: C_26  and  C_28
REMARK                            x       y       z     vdW  Elec       q    Type
REMARK                         _______ _______ _______ _____ _____    ______ ____
ROOT
ATOM      1  O   UNL     1      32.696 -22.730 -17.618  0.00  0.00    -0.479 OA
ENDROOT
BRANCH   1   6
ATOM      2  N   UNL     1      32.350 -24.726 -13.215  0.00  0.00    -0.332 NA
ATOM      3  N   UNL     1      30.317 -24.161 -14.378  0.00  0.00    -0.317 NA
ATOM      4  N   UNL     1      30.359 -23.196 -16.501  0.00  0.00    -0.335 N 
ATOM      5  N   UNL     1      30.253 -25.130 -12.245  0.00  0.00    -0.283 N 
ATOM      6  C   UNL     1      33.238 -23.262 -16.472  0.00  0.00    +0.130 C 
ATOM      7  C   UNL     1      32.467 -23.736 -15.397  0.00  0.00    +0.177 C 
ATOM      8  C   UNL     1      34.627 -23.316 -16.410  0.00  0.00    +0.033 C 
ATOM      9  C   UNL     1      33.078 -24.269 -14.250  0.00  0.00    +0.137 C 
ATOM     10  C   UNL     1      31.075 -23.713 -15.396  0.00  0.00    +0.181 C 
ATOM     11  C   UNL     1      35.243 -23.840 -15.280  0.00  0.00    +0.005 C 
ATOM     12  C   UNL     1      34.469 -24.311 -14.215  0.00  0.00    +0.030 C 
ATOM     13  C   UNL     1      31.010 -24.648 -13.336  0.00  0.00    +0.197 C 
ATOM     14  H   UNL     1      29.375 -23.185 -16.488  0.00  0.00    +0.144 HD
ATOM     15  H   UNL     1      30.845 -22.850 -17.284  0.00  0.00    +0.144 HD
ATOM     16  H   UNL     1      30.708 -25.498 -11.454  0.00  0.00    +0.156 HD
ATOM     17  H   UNL     1      29.269 -25.099 -12.277  0.00  0.00    +0.156 HD
ENDBRANCH   1   6
BRANCH   1  18
ATOM     18  C   UNL     1      33.430 -22.903 -18.815  0.00  0.00    +0.205 C 
BRANCH  18  20
ATOM     19  N   UNL     1      35.478 -19.856 -21.093  0.00  0.00    +0.390 N 
ATOM     20  C   UNL     1      34.130 -21.588 -19.148  0.00  0.00    +0.040 C 
ATOM     21  C   UNL     1      33.368 -20.815 -20.230  0.00  0.00    -0.019 C 
ATOM     22  C   UNL     1      35.572 -21.832 -19.606  0.00  0.00    -0.019 C 
ATOM     23  C   UNL     1      34.115 -19.545 -20.640  0.00  0.00    -0.077 C 
ATOM     24  C   UNL     1      36.248 -20.528 -20.037  0.00  0.00    -0.077 C 
ATOM     25  H   UNL     1      35.408 -20.494 -21.885  0.00  0.00    -0.079 HD
BRANCH  19  26
ATOM     26  C   UNL     1      36.162 -18.639 -21.529  0.00  0.00    -0.048 C 
BRANCH  26  28
ATOM     27  F   UNL     1      34.995 -19.922 -23.771  0.00  0.00    -0.205 F 
ATOM     28  C   UNL     1      35.377 -17.902 -22.582  0.00  0.00    -0.016 C 
ATOM     29  C   UNL     1      34.829 -18.597 -23.661  0.00  0.00    +0.134 C 
ATOM     30  C   UNL     1      35.200 -16.524 -22.477  0.00  0.00    -0.004 C 
ATOM     31  C   UNL     1      34.104 -17.910 -24.636  0.00  0.00    +0.029 C 
ATOM     32  C   UNL     1      34.474 -15.838 -23.451  0.00  0.00    -0.000 C 
ATOM     33  C   UNL     1      33.926 -16.531 -24.531  0.00  0.00    +0.002 C 
ENDBRANCH  26  28
ENDBRANCH  19  26
ENDBRANCH  18  20
ENDBRANCH   1  18
TORSDOF 5
ENDMDL
MODEL 9
REMARK VINA RESULT:     -11.0      5.482     11.614
REMARK  Name = 23729147
REMARK  5 active torsions:
REMARK  status: ('A' for Active; 'I' for Inactive)
REMARK    1  A    between atoms: O_1  and  C_6
REMARK    2  A    between atoms: O_1  and  C_18
REMARK    3  A    between atoms: C_18  and  C_20
REMARK    4  A    between atoms: N_19  and  C_26
REMARK    5  A    between atoms: C_26  and  C_28
REMARK                            x       y       z     vdW  Elec       q    Type
REMARK                         _______ _______ _______ _____ _____    ______ ____
ROOT
ATOM      1  O   UNL     1      34.120 -13.111 -22.829  0.00  0.00    -0.479 OA
ENDROOT
BRANCH   1   6
ATOM      2  N   UNL     1      31.746  -8.934 -22.194  0.00  0.00    -0.332 NA
ATOM      3  N   UNL     1      33.751  -8.918 -23.531  0.00  0.00    -0.317 NA
ATOM      4  N   UNL     1      34.976 -10.867 -23.906  0.00  0.00    -0.335 N 
ATOM      5  N   UNL     1      32.533  -6.950 -23.165  0.00  0.00    -0.283 N 
ATOM      6  C   UNL     1      33.092 -12.356 -22.317  0.00  0.00    +0.130 C 
ATOM      7  C   UNL     1      32.958 -10.975 -22.539  0.00  0.00    +0.177 C 
ATOM      8  C   UNL     1      32.154 -13.032 -21.542  0.00  0.00    +0.033 C 
ATOM      9  C   UNL     1      31.885 -10.256 -21.987  0.00  0.00    +0.137 C 
ATOM     10  C   UNL     1      33.859 -10.241 -23.305  0.00  0.00    +0.181 C 
ATOM     11  C   UNL     1      31.089 -12.330 -20.990  0.00  0.00    +0.005 C 
ATOM     12  C   UNL     1      30.961 -10.956 -21.216  0.00  0.00    +0.030 C 
ATOM     13  C   UNL     1      32.686  -8.337 -22.954  0.00  0.00    +0.197 C 
ATOM     14  H   UNL     1      35.606 -10.337 -24.445  0.00  0.00    +0.144 HD
ATOM     15  H   UNL     1      35.122 -11.833 -23.786  0.00  0.00    +0.144 HD
ATOM     16  H   UNL     1      31.772  -6.472 -22.767  0.00  0.00    +0.156 HD
ATOM     17  H   UNL     1      33.189  -6.460 -23.714  0.00  0.00    +0.156 HD
ENDBRANCH   1   6
BRANCH   1  18
ATOM     18  C   UNL     1      33.767 -14.302 -23.508  0.00  0.00    +0.205 C 
BRANCH  18  20
ATOM     19  N   UNL     1      35.061 -18.090 -21.886  0.00  0.00    +0.390 N 
ATOM     20  C   UNL     1      34.694 -15.420 -23.039  0.00  0.00    +0.040 C 
ATOM     21  C   UNL     1      34.462 -16.702 -23.844  0.00  0.00    -0.019 C 
ATOM     22  C   UNL     1      34.501 -15.705 -21.546  0.00  0.00    -0.019 C 
ATOM     23  C   UNL     1      35.316 -17.856 -23.314  0.00  0.00    -0.077 C 
ATOM     24  C   UNL     1      35.354 -16.891 -21.091  0.00  0.00    -0.077 C 
ATOM     25  H   UNL     1      34.070 -18.307 -21.775  0.00  0.00    -0.079 HD
BRANCH  19  26
ATOM     26  C   UNL     1      35.846 -19.228 -21.407  0.00  0.00    -0.048 C 
BRANCH  26  28
ATOM     27  F   UNL     1      36.962 -21.264 -19.781  0.00  0.00    -0.205 F 
ATOM     28  C   UNL     1      35.011 -20.184 -20.597  0.00  0.00    -0.016 C 
ATOM     29  C   UNL     1      35.626 -21.164 -19.817  0.00  0.00    +0.134 C 
ATOM     30  C   UNL     1      33.621 -20.088 -20.628  0.00  0.00    -0.004 C 
ATOM     31  C   UNL     1      34.849 -22.049 -19.069  0.00  0.00    +0.029 C 
ATOM     32  C   UNL     1      32.843 -20.973 -19.880  0.00  0.00    -0.000 C 
ATOM     33  C   UNL     1      33.457 -21.953 -19.101  0.00  0.00    +0.002 C 
ENDBRANCH  26  28
ENDBRANCH  19  26
ENDBRANCH  18  20
ENDBRANCH   1  18
TORSDOF 5
ENDMDL
