MODEL 1
REMARK VINA RESULT:     -12.1      0.000      0.000
REMARK  Name = 446345
REMARK  6 active torsions:
REMARK  status: ('A' for Active; 'I' for Inactive)
REMARK    1  A    between atoms: N_2  and  C_20
REMARK    2  A    between atoms: N_3  and  S_8
REMARK    3  A    between atoms: S_8  and  C_11
REMARK    4  A    between atoms: C_12  and  C_14
REMARK    5  A    between atoms: C_20  and  C_22
REMARK    6  A    between atoms: N_21  and  C_28
REMARK                            x       y       z     vdW  Elec       q    Type
REMARK                         _______ _______ _______ _____ _____    ______ ____
ROOT
ATOM      1  O   UNL     1      32.261 -21.176 -19.519  0.00  0.00    -0.273 OA
ATOM      2  N   UNL     1      34.319 -22.128 -19.032  0.00  0.00    -0.277 N 
ATOM      3  N   UNL     1      35.583 -20.034 -20.393  0.00  0.00    -0.144 NA
ATOM      4  C   UNL     1      35.774 -22.025 -19.056  0.00  0.00    +0.113 C 
ATOM      5  C   UNL     1      36.287 -21.332 -20.301  0.00  0.00    +0.118 C 
ATOM      6  C   UNL     1      33.488 -21.197 -19.651  0.00  0.00    +0.244 C 
ATOM      7  C   UNL     1      34.133 -20.219 -20.602  0.00  0.00    +0.181 C 
ENDROOT
BRANCH   3   8
ATOM      8  S   UNL     1      36.327 -18.850 -21.380  0.00  0.00    +0.065 S 
ATOM      9  O   UNL     1      36.122 -19.237 -22.766  0.00  0.00    -0.153 OA
ATOM     10  O   UNL     1      37.674 -18.636 -20.881  0.00  0.00    -0.153 OA
BRANCH   8  11
ATOM     11  C   UNL     1      35.409 -17.412 -21.083  0.00  0.00    +0.141 C 
ATOM     12  C   UNL     1      35.163 -16.617 -22.132  0.00  0.00    +0.021 C 
BRANCH  12  14
ATOM     13 CL   UNL     1      32.053 -11.532 -21.890  0.00  0.00    -0.082 Cl
ATOM     14  C   UNL     1      34.394 -15.362 -22.072  0.00  0.00    +0.001 C 
ATOM     15  C   UNL     1      34.160 -14.653 -23.240  0.00  0.00    +0.001 C 
ATOM     16  C   UNL     1      33.921 -14.912 -20.850  0.00  0.00    +0.001 C 
ATOM     17  C   UNL     1      33.433 -13.464 -23.183  0.00  0.00    +0.011 C 
ATOM     18  C   UNL     1      33.194 -13.724 -20.793  0.00  0.00    +0.011 C 
ATOM     19  C   UNL     1      32.950 -12.999 -21.961  0.00  0.00    +0.058 C 
ENDBRANCH  12  14
ENDBRANCH   8  11
ENDBRANCH   3   8
BRANCH   2  20
ATOM     20  C   UNL     1      33.758 -23.123 -18.128  0.00  0.00    +0.094 C 
BRANCH  20  22
ATOM     21  N   UNL     1      35.354 -23.621 -14.158  0.00  0.00    -0.307 N 
ATOM     22  C   UNL     1      34.157 -22.853 -16.680  0.00  0.00    +0.023 C 
ATOM     23  C   UNL     1      35.677 -22.948 -16.506  0.00  0.00    +0.023 C 
ATOM     24  C   UNL     1      33.471 -23.839 -15.731  0.00  0.00    +0.023 C 
ATOM     25  C   UNL     1      36.089 -22.717 -15.053  0.00  0.00    +0.091 C 
ATOM     26  C   UNL     1      33.892 -23.610 -14.279  0.00  0.00    +0.091 C 
BRANCH  21  28
ATOM     27  N   UNL     1      37.123 -24.536 -10.437  0.00  0.00    -0.242 NA
ATOM     28  C   UNL     1      35.941 -23.925 -12.924  0.00  0.00    +0.051 C 
ATOM     29  C   UNL     1      37.329 -23.829 -12.740  0.00  0.00    +0.035 C 
ATOM     30  C   UNL     1      35.159 -24.335 -11.833  0.00  0.00    +0.035 C 
ATOM     31  C   UNL     1      37.861 -24.139 -11.499  0.00  0.00    +0.100 C 
ATOM     32  C   UNL     1      35.788 -24.624 -10.633  0.00  0.00    +0.100 C 
ENDBRANCH  21  28
ENDBRANCH  20  22
ENDBRANCH   2  20
TORSDOF 6
ENDMDL
MODEL 2
REMARK VINA RESULT:     -11.8      4.067     11.348
REMARK  Name = 446345
REMARK  6 active torsions:
REMARK  status: ('A' for Active; 'I' for Inactive)
REMARK    1  A    between atoms: N_2  and  C_20
REMARK    2  A    between atoms: N_3  and  S_8
REMARK    3  A    between atoms: S_8  and  C_11
REMARK    4  A    between atoms: C_12  and  C_14
REMARK    5  A    between atoms: C_20  and  C_22
REMARK    6  A    between atoms: N_21  and  C_28
REMARK                            x       y       z     vdW  Elec       q    Type
REMARK                         _______ _______ _______ _____ _____    ______ ____
ROOT
ATOM      1  O   UNL     1      37.624 -19.579 -19.993  0.00  0.00    -0.273 OA
ATOM      2  N   UNL     1      35.548 -19.117 -20.916  0.00  0.00    -0.277 N 
ATOM      3  N   UNL     1      34.449 -21.229 -19.445  0.00  0.00    -0.144 NA
ATOM      4  C   UNL     1      34.113 -19.378 -20.945  0.00  0.00    +0.113 C 
ATOM      5  C   UNL     1      33.784 -20.837 -20.707  0.00  0.00    +0.118 C 
ATOM      6  C   UNL     1      36.436 -19.871 -20.154  0.00  0.00    +0.244 C 
ATOM      7  C   UNL     1      35.919 -21.161 -19.566  0.00  0.00    +0.181 C 
ENDROOT
BRANCH   3   8
ATOM      8  S   UNL     1      33.834 -22.631 -18.682  0.00  0.00    +0.065 S 
ATOM      9  O   UNL     1      34.186 -23.775 -19.506  0.00  0.00    -0.153 OA
ATOM     10  O   UNL     1      32.443 -22.383 -18.347  0.00  0.00    -0.153 OA
BRANCH   8  11
ATOM     11  C   UNL     1      34.731 -22.739 -17.204  0.00  0.00    +0.141 C 
ATOM     12  C   UNL     1      34.177 -23.434 -16.203  0.00  0.00    +0.021 C 
BRANCH  12  14
ATOM     13 CL   UNL     1      36.677 -24.266 -10.851  0.00  0.00    -0.082 Cl
ATOM     14  C   UNL     1      34.795 -23.640 -14.882  0.00  0.00    +0.001 C 
ATOM     15  C   UNL     1      34.029 -24.153 -13.846  0.00  0.00    +0.001 C 
ATOM     16  C   UNL     1      36.130 -23.316 -14.697  0.00  0.00    +0.001 C 
ATOM     17  C   UNL     1      34.614 -24.348 -12.595  0.00  0.00    +0.011 C 
ATOM     18  C   UNL     1      36.714 -23.510 -13.446  0.00  0.00    +0.011 C 
ATOM     19  C   UNL     1      35.956 -24.027 -12.395  0.00  0.00    +0.058 C 
ENDBRANCH  12  14
ENDBRANCH   8  11
ENDBRANCH   3   8
BRANCH   2  20
ATOM     20  C   UNL     1      35.990 -17.878 -21.541  0.00  0.00    +0.094 C 
BRANCH  20  22
ATOM     21  N   UNL     1      33.739 -14.249 -22.111  0.00  0.00    -0.307 N 
ATOM     22  C   UNL     1      34.830 -16.905 -21.737  0.00  0.00    +0.023 C 
ATOM     23  C   UNL     1      34.961 -16.161 -23.071  0.00  0.00    +0.023 C 
ATOM     24  C   UNL     1      34.768 -15.890 -20.590  0.00  0.00    +0.023 C 
ATOM     25  C   UNL     1      33.827 -15.156 -23.264  0.00  0.00    +0.091 C 
ATOM     26  C   UNL     1      33.637 -14.881 -20.792  0.00  0.00    +0.091 C 
BRANCH  21  28
ATOM     27  N   UNL     1      31.977 -10.467 -22.746  0.00  0.00    -0.242 NA
ATOM     28  C   UNL     1      33.154 -12.994 -22.321  0.00  0.00    +0.051 C 
ATOM     29  C   UNL     1      32.026 -12.590 -21.592  0.00  0.00    +0.035 C 
ATOM     30  C   UNL     1      33.678 -12.102 -23.270  0.00  0.00    +0.035 C 
ATOM     31  C   UNL     1      31.485 -11.339 -21.837  0.00  0.00    +0.100 C 
ATOM     32  C   UNL     1      33.064 -10.873 -23.441  0.00  0.00    +0.100 C 
ENDBRANCH  21  28
ENDBRANCH  20  22
ENDBRANCH   2  20
TORSDOF 6
ENDMDL
MODEL 3
REMARK VINA RESULT:     -11.4      6.557     13.843
REMARK  Name = 446345
REMARK  6 active torsions:
REMARK  status: ('A' for Active; 'I' for Inactive)
REMARK    1  A    between atoms: N_2  and  C_20
REMARK    2  A    between atoms: N_3  and  S_8
REMARK    3  A    between atoms: S_8  and  C_11
REMARK    4  A    between atoms: C_12  and  C_14
REMARK    5  A    between atoms: C_20  and  C_22
REMARK    6  A    between atoms: N_21  and  C_28
REMARK                            x       y       z     vdW  Elec       q    Type
REMARK                         _______ _______ _______ _____ _____    ______ ____
ROOT
ATOM      1  O   UNL     1      32.272 -13.541 -19.892  0.00  0.00    -0.273 OA
ATOM      2  N   UNL     1      32.395 -12.351 -21.877  0.00  0.00    -0.277 N 
ATOM      3  N   UNL     1      33.586 -14.566 -23.105  0.00  0.00    -0.144 NA
ATOM      4  C   UNL     1      32.697 -12.340 -23.305  0.00  0.00    +0.113 C 
ATOM      5  C   UNL     1      33.874 -13.224 -23.656  0.00  0.00    +0.118 C 
ATOM      6  C   UNL     1      32.654 -13.449 -21.062  0.00  0.00    +0.244 C 
ATOM      7  C   UNL     1      33.524 -14.543 -21.631  0.00  0.00    +0.181 C 
ENDROOT
BRANCH   3   8
ATOM      8  S   UNL     1      34.474 -15.859 -23.788  0.00  0.00    +0.065 S 
ATOM      9  O   UNL     1      35.666 -15.302 -24.404  0.00  0.00    -0.153 OA
ATOM     10  O   UNL     1      33.558 -16.661 -24.580  0.00  0.00    -0.153 OA
BRANCH   8  11
ATOM     11  C   UNL     1      34.969 -16.803 -22.422  0.00  0.00    +0.141 C 
ATOM     12  C   UNL     1      34.989 -18.133 -22.574  0.00  0.00    +0.021 C 
BRANCH  12  14
ATOM     13 CL   UNL     1      36.609 -22.012 -18.340  0.00  0.00    -0.082 Cl
ATOM     14  C   UNL     1      35.389 -19.091 -21.529  0.00  0.00    +0.001 C 
ATOM     15  C   UNL     1      34.464 -20.011 -21.060  0.00  0.00    +0.001 C 
ATOM     16  C   UNL     1      36.683 -19.055 -21.033  0.00  0.00    +0.001 C 
ATOM     17  C   UNL     1      34.843 -20.917 -20.071  0.00  0.00    +0.011 C 
ATOM     18  C   UNL     1      37.062 -19.962 -20.044  0.00  0.00    +0.011 C 
ATOM     19  C   UNL     1      36.141 -20.893 -19.562  0.00  0.00    +0.058 C 
ENDBRANCH  12  14
ENDBRANCH   8  11
ENDBRANCH   3   8
BRANCH   2  20
ATOM     20  C   UNL     1      31.590 -11.243 -21.381  0.00  0.00    +0.094 C 
BRANCH  20  22
ATOM     21  N   UNL     1      31.767  -7.061 -22.396  0.00  0.00    -0.307 N 
ATOM     22  C   UNL     1      32.042  -9.912 -21.975  0.00  0.00    +0.023 C 
ATOM     23  C   UNL     1      32.358  -8.900 -20.868  0.00  0.00    +0.023 C 
ATOM     24  C   UNL     1      30.969  -9.335 -22.903  0.00  0.00    +0.023 C 
ATOM     25  C   UNL     1      32.776  -7.550 -21.448  0.00  0.00    +0.091 C 
ATOM     26  C   UNL     1      31.387  -7.980 -23.475  0.00  0.00    +0.091 C 
BRANCH  21  28
ATOM     27  N   UNL     1      31.574  -2.896 -23.055  0.00  0.00    -0.242 NA
ATOM     28  C   UNL     1      31.703  -5.679 -22.614  0.00  0.00    +0.051 C 
ATOM     29  C   UNL     1      31.786  -4.773 -21.546  0.00  0.00    +0.035 C 
ATOM     30  C   UNL     1      31.552  -5.157 -23.909  0.00  0.00    +0.035 C 
ATOM     31  C   UNL     1      31.718  -3.416 -21.814  0.00  0.00    +0.100 C 
ATOM     32  C   UNL     1      31.494  -3.783 -24.072  0.00  0.00    +0.100 C 
ENDBRANCH  21  28
ENDBRANCH  20  22
ENDBRANCH   2  20
TORSDOF 6
ENDMDL
MODEL 4
REMARK VINA RESULT:     -11.3      6.653     14.219
REMARK  Name = 446345
REMARK  6 active torsions:
REMARK  status: ('A' for Active; 'I' for Inactive)
REMARK    1  A    between atoms: N_2  and  C_20
REMARK    2  A    between atoms: N_3  and  S_8
REMARK    3  A    between atoms: S_8  and  C_11
REMARK    4  A    between atoms: C_12  and  C_14
REMARK    5  A    between atoms: C_20  and  C_22
REMARK    6  A    between atoms: N_21  and  C_28
REMARK                            x       y       z     vdW  Elec       q    Type
REMARK                         _______ _______ _______ _____ _____    ______ ____
ROOT
ATOM      1  O   UNL     1      32.506 -13.253 -20.531  0.00  0.00    -0.273 OA
ATOM      2  N   UNL     1      32.761 -12.199 -22.580  0.00  0.00    -0.277 N 
ATOM      3  N   UNL     1      33.587 -14.626 -23.701  0.00  0.00    -0.144 NA
ATOM      4  C   UNL     1      33.031 -12.307 -24.010  0.00  0.00    +0.113 C 
ATOM      5  C   UNL     1      34.058 -13.372 -24.328  0.00  0.00    +0.118 C 
ATOM      6  C   UNL     1      32.873 -13.279 -21.709  0.00  0.00    +0.244 C 
ATOM      7  C   UNL     1      33.560 -14.518 -22.229  0.00  0.00    +0.181 C 
ENDROOT
BRANCH   3   8
ATOM      8  S   UNL     1      34.260 -16.071 -24.323  0.00  0.00    +0.065 S 
ATOM      9  O   UNL     1      35.397 -15.709 -25.152  0.00  0.00    -0.153 OA
ATOM     10  O   UNL     1      33.179 -16.862 -24.885  0.00  0.00    -0.153 OA
BRANCH   8  11
ATOM     11  C   UNL     1      34.859 -16.899 -22.924  0.00  0.00    +0.141 C 
ATOM     12  C   UNL     1      34.762 -18.234 -22.917  0.00  0.00    +0.021 C 
BRANCH  12  14
ATOM     13 CL   UNL     1      36.634 -21.751 -18.477  0.00  0.00    -0.082 Cl
ATOM     14  C   UNL     1      35.224 -19.103 -21.821  0.00  0.00    +0.001 C 
ATOM     15  C   UNL     1      34.343 -20.011 -21.256  0.00  0.00    +0.001 C 
ATOM     16  C   UNL     1      36.532 -18.995 -21.374  0.00  0.00    +0.001 C 
ATOM     17  C   UNL     1      34.780 -20.834 -20.218  0.00  0.00    +0.011 C 
ATOM     18  C   UNL     1      36.969 -19.818 -20.336  0.00  0.00    +0.011 C 
ATOM     19  C   UNL     1      36.093 -20.737 -19.758  0.00  0.00    +0.058 C 
ENDBRANCH  12  14
ENDBRANCH   8  11
ENDBRANCH   3   8
BRANCH   2  20
ATOM     20  C   UNL     1      32.139 -10.960 -22.133  0.00  0.00    +0.094 C 
BRANCH  20  22
ATOM     21  N   UNL     1      32.433  -7.065 -23.950  0.00  0.00    -0.307 N 
ATOM     22  C   UNL     1      32.295  -9.850 -23.169  0.00  0.00    +0.023 C 
ATOM     23  C   UNL     1      33.525  -8.987 -22.863  0.00  0.00    +0.023 C 
ATOM     24  C   UNL     1      31.047  -8.963 -23.212  0.00  0.00    +0.023 C 
ATOM     25  C   UNL     1      33.673  -7.848 -23.870  0.00  0.00    +0.091 C 
ATOM     26  C   UNL     1      31.203  -7.819 -24.215  0.00  0.00    +0.091 C 
BRANCH  21  28
ATOM     27  N   UNL     1      32.740  -3.066 -25.262  0.00  0.00    -0.242 NA
ATOM     28  C   UNL     1      32.535  -5.738 -24.386  0.00  0.00    +0.051 C 
ATOM     29  C   UNL     1      33.624  -5.313 -25.161  0.00  0.00    +0.035 C 
ATOM     30  C   UNL     1      31.551  -4.792 -24.059  0.00  0.00    +0.035 C 
ATOM     31  C   UNL     1      33.678  -3.990 -25.568  0.00  0.00    +0.100 C 
ATOM     32  C   UNL     1      31.698  -3.492 -24.513  0.00  0.00    +0.100 C 
ENDBRANCH  21  28
ENDBRANCH  20  22
ENDBRANCH   2  20
TORSDOF 6
ENDMDL
MODEL 5
REMARK VINA RESULT:     -11.2      2.516      4.118
REMARK  Name = 446345
REMARK  6 active torsions:
REMARK  status: ('A' for Active; 'I' for Inactive)
REMARK    1  A    between atoms: N_2  and  C_20
REMARK    2  A    between atoms: N_3  and  S_8
REMARK    3  A    between atoms: S_8  and  C_11
REMARK    4  A    between atoms: C_12  and  C_14
REMARK    5  A    between atoms: C_20  and  C_22
REMARK    6  A    between atoms: N_21  and  C_28
REMARK                            x       y       z     vdW  Elec       q    Type
REMARK                         _______ _______ _______ _____ _____    ______ ____
ROOT
ATOM      1  O   UNL     1      36.492 -18.382 -20.376  0.00  0.00    -0.273 OA
ATOM      2  N   UNL     1      35.464 -19.843 -21.854  0.00  0.00    -0.277 N 
ATOM      3  N   UNL     1      34.870 -17.687 -23.537  0.00  0.00    -0.144 NA
ATOM      4  C   UNL     1      34.833 -20.061 -23.151  0.00  0.00    +0.113 C 
ATOM      5  C   UNL     1      33.997 -18.880 -23.596  0.00  0.00    +0.118 C 
ATOM      6  C   UNL     1      35.824 -18.579 -21.395  0.00  0.00    +0.244 C 
ATOM      7  C   UNL     1      35.286 -17.390 -22.152  0.00  0.00    +0.181 C 
ENDROOT
BRANCH   3   8
ATOM      8  S   UNL     1      34.358 -16.341 -24.461  0.00  0.00    +0.065 S 
ATOM      9  O   UNL     1      33.136 -16.717 -25.151  0.00  0.00    -0.153 OA
ATOM     10  O   UNL     1      35.499 -15.861 -25.221  0.00  0.00    -0.153 OA
BRANCH   8  11
ATOM     11  C   UNL     1      33.959 -15.141 -23.278  0.00  0.00    +0.141 C 
ATOM     12  C   UNL     1      33.193 -14.118 -23.680  0.00  0.00    +0.021 C 
BRANCH  12  14
ATOM     13 CL   UNL     1      31.388  -9.642 -20.175  0.00  0.00    -0.082 Cl
ATOM     14  C   UNL     1      32.747 -13.013 -22.815  0.00  0.00    +0.001 C 
ATOM     15  C   UNL     1      32.800 -11.713 -23.291  0.00  0.00    +0.001 C 
ATOM     16  C   UNL     1      32.283 -13.294 -21.539  0.00  0.00    +0.001 C 
ATOM     17  C   UNL     1      32.378 -10.666 -22.472  0.00  0.00    +0.011 C 
ATOM     18  C   UNL     1      31.861 -12.247 -20.720  0.00  0.00    +0.011 C 
ATOM     19  C   UNL     1      31.908 -10.933 -21.187  0.00  0.00    +0.058 C 
ENDBRANCH  12  14
ENDBRANCH   8  11
ENDBRANCH   3   8
BRANCH   2  20
ATOM     20  C   UNL     1      35.921 -21.034 -21.151  0.00  0.00    +0.094 C 
BRANCH  20  22
ATOM     21  N   UNL     1      34.227 -22.668 -17.543  0.00  0.00    -0.307 N 
ATOM     22  C   UNL     1      35.285 -21.148 -19.769  0.00  0.00    +0.023 C 
ATOM     23  C   UNL     1      36.202 -21.911 -18.807  0.00  0.00    +0.023 C 
ATOM     24  C   UNL     1      33.927 -21.852 -19.847  0.00  0.00    +0.023 C 
ATOM     25  C   UNL     1      35.562 -22.065 -17.428  0.00  0.00    +0.091 C 
ATOM     26  C   UNL     1      33.294 -22.012 -18.464  0.00  0.00    +0.091 C 
BRANCH  21  28
ATOM     27  N   UNL     1      32.726 -24.716 -14.172  0.00  0.00    -0.242 NA
ATOM     28  C   UNL     1      33.729 -23.348 -16.425  0.00  0.00    +0.051 C 
ATOM     29  C   UNL     1      32.348 -23.465 -16.205  0.00  0.00    +0.035 C 
ATOM     30  C   UNL     1      34.596 -23.932 -15.488  0.00  0.00    +0.035 C 
ATOM     31  C   UNL     1      31.905 -24.147 -15.084  0.00  0.00    +0.100 C 
ATOM     32  C   UNL     1      34.054 -24.593 -14.398  0.00  0.00    +0.100 C 
ENDBRANCH  21  28
ENDBRANCH  20  22
ENDBRANCH   2  20
TORSDOF 6
ENDMDL
MODEL 6
REMARK VINA RESULT:     -10.9      6.344     13.514
REMARK  Name = 446345
REMARK  6 active torsions:
REMARK  status: ('A' for Active; 'I' for Inactive)
REMARK    1  A    between atoms: N_2  and  C_20
REMARK    2  A    between atoms: N_3  and  S_8
REMARK    3  A    between atoms: S_8  and  C_11
REMARK    4  A    between atoms: C_12  and  C_14
REMARK    5  A    between atoms: C_20  and  C_22
REMARK    6  A    between atoms: N_21  and  C_28
REMARK                            x       y       z     vdW  Elec       q    Type
REMARK                         _______ _______ _______ _____ _____    ______ ____
ROOT
ATOM      1  O   UNL     1      33.060 -13.714 -20.436  0.00  0.00    -0.273 OA
ATOM      2  N   UNL     1      32.415 -12.953 -22.529  0.00  0.00    -0.277 N 
ATOM      3  N   UNL     1      33.550 -15.235 -23.684  0.00  0.00    -0.144 NA
ATOM      4  C   UNL     1      32.290 -13.205 -23.961  0.00  0.00    +0.113 C 
ATOM      5  C   UNL     1      33.446 -14.013 -24.510  0.00  0.00    +0.118 C 
ATOM      6  C   UNL     1      33.071 -13.826 -21.665  0.00  0.00    +0.244 C 
ATOM      7  C   UNL     1      33.909 -14.915 -22.288  0.00  0.00    +0.181 C 
ENDROOT
BRANCH   3   8
ATOM      8  S   UNL     1      34.405 -16.541 -24.386  0.00  0.00    +0.065 S 
ATOM      9  O   UNL     1      35.467 -15.985 -25.207  0.00  0.00    -0.153 OA
ATOM     10  O   UNL     1      33.433 -17.445 -24.976  0.00  0.00    -0.153 OA
BRANCH   8  11
ATOM     11  C   UNL     1      35.135 -17.346 -23.037  0.00  0.00    +0.141 C 
ATOM     12  C   UNL     1      34.634 -18.538 -22.692  0.00  0.00    +0.021 C 
BRANCH  12  14
ATOM     13 CL   UNL     1      36.651 -21.905 -18.200  0.00  0.00    -0.082 Cl
ATOM     14  C   UNL     1      35.132 -19.369 -21.582  0.00  0.00    +0.001 C 
ATOM     15  C   UNL     1      36.447 -19.231 -21.168  0.00  0.00    +0.001 C 
ATOM     16  C   UNL     1      34.276 -20.274 -20.974  0.00  0.00    +0.001 C 
ATOM     17  C   UNL     1      36.919 -20.018 -20.117  0.00  0.00    +0.011 C 
ATOM     18  C   UNL     1      34.748 -21.061 -19.924  0.00  0.00    +0.011 C 
ATOM     19  C   UNL     1      36.070 -20.933 -19.496  0.00  0.00    +0.058 C 
ENDBRANCH  12  14
ENDBRANCH   8  11
ENDBRANCH   3   8
BRANCH   2  20
ATOM     20  C   UNL     1      31.616 -11.858 -21.996  0.00  0.00    +0.094 C 
BRANCH  20  22
ATOM     21  N   UNL     1      33.192  -8.201 -23.639  0.00  0.00    -0.307 N 
ATOM     22  C   UNL     1      32.339 -10.520 -22.131  0.00  0.00    +0.023 C 
ATOM     23  C   UNL     1      31.359  -9.408 -22.520  0.00  0.00    +0.023 C 
ATOM     24  C   UNL     1      33.457 -10.605 -23.174  0.00  0.00    +0.023 C 
ATOM     25  C   UNL     1      32.074  -8.069 -22.695  0.00  0.00    +0.091 C 
ATOM     26  C   UNL     1      34.164  -9.261 -23.352  0.00  0.00    +0.091 C 
BRANCH  21  28
ATOM     27  N   UNL     1      34.457  -4.714 -25.653  0.00  0.00    -0.242 NA
ATOM     28  C   UNL     1      33.611  -7.044 -24.307  0.00  0.00    +0.051 C 
ATOM     29  C   UNL     1      32.699  -6.035 -24.649  0.00  0.00    +0.035 C 
ATOM     30  C   UNL     1      34.958  -6.859 -24.657  0.00  0.00    +0.035 C 
ATOM     31  C   UNL     1      33.163  -4.909 -25.310  0.00  0.00    +0.100 C 
ATOM     32  C   UNL     1      35.323  -5.697 -25.317  0.00  0.00    +0.100 C 
ENDBRANCH  21  28
ENDBRANCH  20  22
ENDBRANCH   2  20
TORSDOF 6
ENDMDL
MODEL 7
REMARK VINA RESULT:     -10.3      4.750      7.749
REMARK  Name = 446345
REMARK  6 active torsions:
REMARK  status: ('A' for Active; 'I' for Inactive)
REMARK    1  A    between atoms: N_2  and  C_20
REMARK    2  A    between atoms: N_3  and  S_8
REMARK    3  A    between atoms: S_8  and  C_11
REMARK    4  A    between atoms: C_12  and  C_14
REMARK    5  A    between atoms: C_20  and  C_22
REMARK    6  A    between atoms: N_21  and  C_28
REMARK                            x       y       z     vdW  Elec       q    Type
REMARK                         _______ _______ _______ _____ _____    ______ ____
ROOT
ATOM      1  O   UNL     1      34.567 -24.666 -11.614  0.00  0.00    -0.273 OA
ATOM      2  N   UNL     1      33.588 -24.830 -13.709  0.00  0.00    -0.277 N 
ATOM      3  N   UNL     1      35.843 -23.614 -14.834  0.00  0.00    -0.144 NA
ATOM      4  C   UNL     1      33.709 -24.677 -15.155  0.00  0.00    +0.113 C 
ATOM      5  C   UNL     1      34.552 -23.480 -15.543  0.00  0.00    +0.118 C 
ATOM      6  C   UNL     1      34.576 -24.412 -12.822  0.00  0.00    +0.244 C 
ATOM      7  C   UNL     1      35.668 -23.528 -13.371  0.00  0.00    +0.181 C 
ENDROOT
BRANCH   3   8
ATOM      8  S   UNL     1      37.145 -22.708 -15.477  0.00  0.00    +0.065 S 
ATOM      9  O   UNL     1      38.032 -23.633 -16.162  0.00  0.00    -0.153 OA
ATOM     10  O   UNL     1      37.663 -21.858 -14.420  0.00  0.00    -0.153 OA
BRANCH   8  11
ATOM     11  C   UNL     1      36.408 -21.691 -16.670  0.00  0.00    +0.141 C 
ATOM     12  C   UNL     1      36.669 -21.967 -17.954  0.00  0.00    +0.021 C 
BRANCH  12  14
ATOM     13 CL   UNL     1      34.468 -18.936 -22.596  0.00  0.00    -0.082 Cl
ATOM     14  C   UNL     1      36.126 -21.219 -19.100  0.00  0.00    +0.001 C 
ATOM     15  C   UNL     1      36.948 -20.342 -19.791  0.00  0.00    +0.001 C 
ATOM     16  C   UNL     1      34.802 -21.405 -19.467  0.00  0.00    +0.001 C 
ATOM     17  C   UNL     1      36.433 -19.634 -20.876  0.00  0.00    +0.011 C 
ATOM     18  C   UNL     1      34.288 -20.696 -20.553  0.00  0.00    +0.011 C 
ATOM     19  C   UNL     1      35.104 -19.810 -21.257  0.00  0.00    +0.058 C 
ENDBRANCH  12  14
ENDBRANCH   8  11
ENDBRANCH   3   8
BRANCH   2  20
ATOM     20  C   UNL     1      32.485 -25.658 -13.240  0.00  0.00    +0.094 C 
BRANCH  20  22
ATOM     21  N   UNL     1      29.070 -23.755 -15.049  0.00  0.00    -0.307 N 
ATOM     22  C   UNL     1      31.141 -24.958 -13.423  0.00  0.00    +0.023 C 
ATOM     23  C   UNL     1      30.195 -25.806 -14.279  0.00  0.00    +0.023 C 
ATOM     24  C   UNL     1      31.324 -23.583 -14.072  0.00  0.00    +0.023 C 
ATOM     25  C   UNL     1      28.858 -25.102 -14.502  0.00  0.00    +0.091 C 
ATOM     26  C   UNL     1      29.984 -22.884 -14.301  0.00  0.00    +0.091 C 
BRANCH  21  28
ATOM     27  N   UNL     1      25.913 -22.039 -17.263  0.00  0.00    -0.242 NA
ATOM     28  C   UNL     1      28.022 -23.185 -15.783  0.00  0.00    +0.051 C 
ATOM     29  C   UNL     1      27.010 -22.449 -15.148  0.00  0.00    +0.035 C 
ATOM     30  C   UNL     1      27.952 -23.334 -17.177  0.00  0.00    +0.035 C 
ATOM     31  C   UNL     1      25.996 -21.905 -15.919  0.00  0.00    +0.100 C 
ATOM     32  C   UNL     1      26.895 -22.753 -17.858  0.00  0.00    +0.100 C 
ENDBRANCH  21  28
ENDBRANCH  20  22
ENDBRANCH   2  20
TORSDOF 6
ENDMDL
MODEL 8
REMARK VINA RESULT:     -10.2      4.962      8.326
REMARK  Name = 446345
REMARK  6 active torsions:
REMARK  status: ('A' for Active; 'I' for Inactive)
REMARK    1  A    between atoms: N_2  and  C_20
REMARK    2  A    between atoms: N_3  and  S_8
REMARK    3  A    between atoms: S_8  and  C_11
REMARK    4  A    between atoms: C_12  and  C_14
REMARK    5  A    between atoms: C_20  and  C_22
REMARK    6  A    between atoms: N_21  and  C_28
REMARK                            x       y       z     vdW  Elec       q    Type
REMARK                         _______ _______ _______ _____ _____    ______ ____
ROOT
ATOM      1  O   UNL     1      32.712 -14.818 -25.588  0.00  0.00    -0.273 OA
ATOM      2  N   UNL     1      34.204 -15.212 -23.858  0.00  0.00    -0.277 N 
ATOM      3  N   UNL     1      32.779 -13.418 -22.250  0.00  0.00    -0.144 NA
ATOM      4  C   UNL     1      34.569 -15.011 -22.459  0.00  0.00    +0.113 C 
ATOM      5  C   UNL     1      34.214 -13.627 -21.959  0.00  0.00    +0.118 C 
ATOM      6  C   UNL     1      33.133 -14.555 -24.458  0.00  0.00    +0.244 C 
ATOM      7  C   UNL     1      32.518 -13.402 -23.703  0.00  0.00    +0.181 C 
ENDROOT
BRANCH   3   8
ATOM      8  S   UNL     1      32.005 -12.188 -21.347  0.00  0.00    +0.065 S 
ATOM      9  O   UNL     1      32.439 -12.313 -19.966  0.00  0.00    -0.153 OA
ATOM     10  O   UNL     1      30.588 -12.224 -21.665  0.00  0.00    -0.153 OA
BRANCH   8  11
ATOM     11  C   UNL     1      32.661 -10.717 -21.983  0.00  0.00    +0.141 C 
ATOM     12  C   UNL     1      31.790  -9.800 -22.422  0.00  0.00    +0.021 C 
BRANCH  12  14
ATOM     13 CL   UNL     1      33.296  -4.496 -24.701  0.00  0.00    -0.082 Cl
ATOM     14  C   UNL     1      32.162  -8.491 -22.986  0.00  0.00    +0.001 C 
ATOM     15  C   UNL     1      33.229  -7.795 -22.440  0.00  0.00    +0.001 C 
ATOM     16  C   UNL     1      31.438  -7.978 -24.050  0.00  0.00    +0.001 C 
ATOM     17  C   UNL     1      33.582  -6.555 -22.972  0.00  0.00    +0.011 C 
ATOM     18  C   UNL     1      31.790  -6.738 -24.583  0.00  0.00    +0.011 C 
ATOM     19  C   UNL     1      32.863  -6.026 -24.043  0.00  0.00    +0.058 C 
ENDBRANCH  12  14
ENDBRANCH   8  11
ENDBRANCH   3   8
BRANCH   2  20
ATOM     20  C   UNL     1      34.867 -16.311 -24.545  0.00  0.00    +0.094 C 
BRANCH  20  22
ATOM     21  N   UNL     1      34.664 -19.367 -21.515  0.00  0.00    -0.307 N 
ATOM     22  C   UNL     1      35.261 -17.422 -23.575  0.00  0.00    +0.023 C 
ATOM     23  C   UNL     1      34.496 -18.713 -23.885  0.00  0.00    +0.023 C 
ATOM     24  C   UNL     1      34.993 -17.004 -22.126  0.00  0.00    +0.023 C 
ATOM     25  C   UNL     1      34.852 -19.824 -22.899  0.00  0.00    +0.091 C 
ATOM     26  C   UNL     1      35.343 -18.122 -21.143  0.00  0.00    +0.091 C 
BRANCH  21  28
ATOM     27  N   UNL     1      33.966 -22.311 -18.573  0.00  0.00    -0.242 NA
ATOM     28  C   UNL     1      34.432 -20.344 -20.539  0.00  0.00    +0.051 C 
ATOM     29  C   UNL     1      33.130 -20.643 -20.109  0.00  0.00    +0.035 C 
ATOM     30  C   UNL     1      35.495 -21.053 -19.960  0.00  0.00    +0.035 C 
ATOM     31  C   UNL     1      32.954 -21.618 -19.141  0.00  0.00    +0.100 C 
ATOM     32  C   UNL     1      35.214 -22.010 -18.998  0.00  0.00    +0.100 C 
ENDBRANCH  21  28
ENDBRANCH  20  22
ENDBRANCH   2  20
TORSDOF 6
ENDMDL
MODEL 9
REMARK VINA RESULT:     -10.2      4.148     11.335
REMARK  Name = 446345
REMARK  6 active torsions:
REMARK  status: ('A' for Active; 'I' for Inactive)
REMARK    1  A    between atoms: N_2  and  C_20
REMARK    2  A    between atoms: N_3  and  S_8
REMARK    3  A    between atoms: S_8  and  C_11
REMARK    4  A    between atoms: C_12  and  C_14
REMARK    5  A    between atoms: C_20  and  C_22
REMARK    6  A    between atoms: N_21  and  C_28
REMARK                            x       y       z     vdW  Elec       q    Type
REMARK                         _______ _______ _______ _____ _____    ______ ____
ROOT
ATOM      1  O   UNL     1      37.304 -21.418 -19.313  0.00  0.00    -0.273 OA
ATOM      2  N   UNL     1      35.353 -20.596 -20.258  0.00  0.00    -0.277 N 
ATOM      3  N   UNL     1      33.860 -22.129 -18.454  0.00  0.00    -0.144 NA
ATOM      4  C   UNL     1      33.897 -20.494 -20.218  0.00  0.00    +0.113 C 
ATOM      5  C   UNL     1      33.239 -21.774 -19.748  0.00  0.00    +0.118 C 
ATOM      6  C   UNL     1      36.072 -21.427 -19.403  0.00  0.00    +0.244 C 
ATOM      7  C   UNL     1      35.293 -22.446 -18.611  0.00  0.00    +0.181 C 
ENDROOT
BRANCH   3   8
ATOM      8  S   UNL     1      32.967 -23.206 -17.468  0.00  0.00    +0.065 S 
ATOM      9  O   UNL     1      33.115 -24.541 -18.024  0.00  0.00    -0.153 OA
ATOM     10  O   UNL     1      31.642 -22.644 -17.279  0.00  0.00    -0.153 OA
BRANCH   8  11
ATOM     11  C   UNL     1      33.788 -23.167 -15.943  0.00  0.00    +0.141 C 
ATOM     12  C   UNL     1      34.829 -23.996 -15.788  0.00  0.00    +0.021 C 
BRANCH  12  14
ATOM     13 CL   UNL     1      38.151 -24.398 -10.850  0.00  0.00    -0.082 Cl
ATOM     14  C   UNL     1      35.649 -24.094 -14.569  0.00  0.00    +0.001 C 
ATOM     15  C   UNL     1      36.994 -24.408 -14.679  0.00  0.00    +0.001 C 
ATOM     16  C   UNL     1      35.060 -23.873 -13.334  0.00  0.00    +0.001 C 
ATOM     17  C   UNL     1      37.771 -24.502 -13.525  0.00  0.00    +0.011 C 
ATOM     18  C   UNL     1      35.837 -23.966 -12.180  0.00  0.00    +0.011 C 
ATOM     19  C   UNL     1      37.193 -24.281 -12.275  0.00  0.00    +0.058 C 
ENDBRANCH  12  14
ENDBRANCH   8  11
ENDBRANCH   3   8
BRANCH   2  20
ATOM     20  C   UNL     1      36.045 -19.612 -21.077  0.00  0.00    +0.094 C 
BRANCH  20  22
ATOM     21  N   UNL     1      34.494 -16.109 -23.047  0.00  0.00    -0.307 N 
ATOM     22  C   UNL     1      35.084 -18.555 -21.615  0.00  0.00    +0.023 C 
ATOM     23  C   UNL     1      35.156 -18.480 -23.144  0.00  0.00    +0.023 C 
ATOM     24  C   UNL     1      35.397 -17.178 -21.021  0.00  0.00    +0.023 C 
ATOM     25  C   UNL     1      34.226 -17.400 -23.695  0.00  0.00    +0.091 C 
ATOM     26  C   UNL     1      34.470 -16.099 -21.581  0.00  0.00    +0.091 C 
BRANCH  21  28
ATOM     27  N   UNL     1      33.437 -12.614 -25.165  0.00  0.00    -0.242 NA
ATOM     28  C   UNL     1      34.143 -14.949 -23.750  0.00  0.00    +0.051 C 
ATOM     29  C   UNL     1      33.661 -15.019 -25.066  0.00  0.00    +0.035 C 
ATOM     30  C   UNL     1      34.264 -13.682 -23.160  0.00  0.00    +0.035 C 
ATOM     31  C   UNL     1      33.327 -13.843 -25.718  0.00  0.00    +0.100 C 
ATOM     32  C   UNL     1      33.904 -12.565 -23.897  0.00  0.00    +0.100 C 
ENDBRANCH  21  28
ENDBRANCH  20  22
ENDBRANCH   2  20
TORSDOF 6
ENDMDL
