MODEL 1
REMARK VINA RESULT:     -11.2      0.000      0.000
REMARK  Name = 445459
REMARK  7 active torsions:
REMARK  status: ('A' for Active; 'I' for Inactive)
REMARK    1  A    between atoms: C_1  and  C_7
REMARK    2  A    between atoms: C_1  and  N_13
REMARK    3  A    between atoms: C_1  and  C_27
REMARK    4  A    between atoms: C_4  and  C_9
REMARK    5  A    between atoms: C_9  and  O_10
REMARK    6  A    between atoms: C_14  and  C_18
REMARK    7  A    between atoms: C_27  and  C_28
REMARK                            x       y       z     vdW  Elec       q    Type
REMARK                         _______ _______ _______ _____ _____    ______ ____
ROOT
ATOM      1  C   UNL     1      32.940 -24.135 -14.380  0.00  0.00    +0.153 C 
ENDROOT
BRANCH   1   7
ATOM      2  O   UNL     1      31.584 -23.167 -12.667  0.00  0.00    -0.273 OA
ATOM      3  N   UNL     1      30.676 -23.389 -14.764  0.00  0.00    -0.277 N 
ATOM      4  C   UNL     1      29.270 -22.892 -16.166  0.00  0.00    +0.138 C 
ATOM      5  C   UNL     1      29.318 -22.898 -14.633  0.00  0.00    +0.106 C 
ATOM      6  C   UNL     1      30.559 -23.723 -16.170  0.00  0.00    +0.106 C 
ATOM      7  C   UNL     1      31.676 -23.518 -13.842  0.00  0.00    +0.244 C 
BRANCH   4   9
ATOM      8  O   UNL     1      27.822 -24.770 -16.933  0.00  0.00    -0.250 OA
ATOM      9  C   UNL     1      28.018 -23.562 -16.816  0.00  0.00    +0.317 C 
BRANCH   9  10
ATOM     10  O   UNL     1      27.117 -22.643 -17.257  0.00  0.00    -0.480 OA
ATOM     11  H   UNL     1      27.129 -22.366 -18.153  0.00  0.00    +0.295 HD
ENDBRANCH   9  10
ENDBRANCH   4   9
ENDBRANCH   1   7
BRANCH   1  13
ATOM     12  O   UNL     1      33.794 -25.053 -16.906  0.00  0.00    -0.269 OA
ATOM     13  N   UNL     1      33.282 -23.301 -15.512  0.00  0.00    -0.294 N 
ATOM     14  C   UNL     1      33.705 -23.810 -16.758  0.00  0.00    +0.260 C 
ATOM     15  H   UNL     1      33.217 -22.325 -15.406  0.00  0.00    +0.150 HD
BRANCH  14  18
ATOM     16 CL   UNL     1      36.228 -18.888 -22.067  0.00  0.00    -0.082 Cl
ATOM     17  N   UNL     1      33.009 -22.248 -18.536  0.00  0.00    -0.309 N 
ATOM     18  C   UNL     1      33.980 -22.863 -17.791  0.00  0.00    +0.102 C 
ATOM     19  C   UNL     1      35.202 -22.402 -18.225  0.00  0.00    +0.020 C 
ATOM     20  C   UNL     1      34.965 -21.471 -19.275  0.00  0.00    +0.016 C 
ATOM     21  C   UNL     1      33.582 -21.393 -19.450  0.00  0.00    +0.048 C 
ATOM     22  C   UNL     1      35.798 -20.685 -20.096  0.00  0.00    +0.013 C 
ATOM     23  C   UNL     1      32.987 -20.565 -20.409  0.00  0.00    +0.015 C 
ATOM     24  C   UNL     1      35.217 -19.852 -21.059  0.00  0.00    +0.058 C 
ATOM     25  C   UNL     1      33.833 -19.795 -21.212  0.00  0.00    +0.013 C 
ATOM     26  H   UNL     1      32.041 -22.397 -18.433  0.00  0.00    +0.152 HD
ENDBRANCH  14  18
ENDBRANCH   1  13
BRANCH   1  27
ATOM     27  C   UNL     1      34.029 -24.156 -13.310  0.00  0.00    +0.055 C 
BRANCH  27  28
ATOM     28  C   UNL     1      35.389 -24.494 -13.871  0.00  0.00    -0.020 C 
ATOM     29  C   UNL     1      36.313 -23.481 -14.069  0.00  0.00    -0.004 C 
ATOM     30  C   UNL     1      35.688 -25.812 -14.179  0.00  0.00    -0.004 C 
ATOM     31  C   UNL     1      37.570 -23.793 -14.587  0.00  0.00    -0.000 C 
ATOM     32  C   UNL     1      36.946 -26.124 -14.697  0.00  0.00    -0.000 C 
ATOM     33  C   UNL     1      37.886 -25.114 -14.901  0.00  0.00    -0.000 C 
ENDBRANCH  27  28
ENDBRANCH   1  27
TORSDOF 7
ENDMDL
MODEL 2
REMARK VINA RESULT:     -11.0      2.682      5.713
REMARK  Name = 445459
REMARK  7 active torsions:
REMARK  status: ('A' for Active; 'I' for Inactive)
REMARK    1  A    between atoms: C_1  and  C_7
REMARK    2  A    between atoms: C_1  and  N_13
REMARK    3  A    between atoms: C_1  and  C_27
REMARK    4  A    between atoms: C_4  and  C_9
REMARK    5  A    between atoms: C_9  and  O_10
REMARK    6  A    between atoms: C_14  and  C_18
REMARK    7  A    between atoms: C_27  and  C_28
REMARK                            x       y       z     vdW  Elec       q    Type
REMARK                         _______ _______ _______ _____ _____    ______ ____
ROOT
ATOM      1  C   UNL     1      34.655 -22.977 -15.567  0.00  0.00    +0.153 C 
ENDROOT
BRANCH   1   7
ATOM      2  O   UNL     1      36.932 -23.562 -15.996  0.00  0.00    -0.273 OA
ATOM      3  N   UNL     1      36.164 -23.728 -13.839  0.00  0.00    -0.277 N 
ATOM      4  C   UNL     1      36.504 -23.859 -11.825  0.00  0.00    +0.138 C 
ATOM      5  C   UNL     1      37.290 -24.243 -13.084  0.00  0.00    +0.106 C 
ATOM      6  C   UNL     1      35.262 -23.671 -12.705  0.00  0.00    +0.106 C 
ATOM      7  C   UNL     1      36.028 -23.450 -15.170  0.00  0.00    +0.244 C 
BRANCH   4   9
ATOM      8  O   UNL     1      36.386 -26.171 -10.901  0.00  0.00    -0.250 OA
ATOM      9  C   UNL     1      36.401 -24.956 -10.717  0.00  0.00    +0.317 C 
BRANCH   9  10
ATOM     10  O   UNL     1      36.335 -24.418  -9.469  0.00  0.00    -0.480 OA
ATOM     11  H   UNL     1      35.527 -24.437  -8.993  0.00  0.00    +0.295 HD
ENDBRANCH   9  10
ENDBRANCH   4   9
ENDBRANCH   1   7
BRANCH   1  13
ATOM     12  O   UNL     1      34.183 -23.704 -18.250  0.00  0.00    -0.269 OA
ATOM     13  N   UNL     1      34.893 -22.142 -16.724  0.00  0.00    -0.294 N 
ATOM     14  C   UNL     1      34.640 -22.553 -18.050  0.00  0.00    +0.260 C 
ATOM     15  H   UNL     1      35.252 -21.237 -16.577  0.00  0.00    +0.150 HD
BRANCH  14  18
ATOM     16 CL   UNL     1      34.985 -17.613 -23.903  0.00  0.00    -0.082 Cl
ATOM     17  N   UNL     1      36.111 -20.998 -19.278  0.00  0.00    -0.309 N 
ATOM     18  C   UNL     1      34.899 -21.605 -19.088  0.00  0.00    +0.102 C 
ATOM     19  C   UNL     1      34.034 -21.136 -20.050  0.00  0.00    +0.020 C 
ATOM     20  C   UNL     1      34.749 -20.206 -20.857  0.00  0.00    +0.016 C 
ATOM     21  C   UNL     1      36.048 -20.139 -20.351  0.00  0.00    +0.048 C 
ATOM     22  C   UNL     1      34.413 -19.414 -21.972  0.00  0.00    +0.013 C 
ATOM     23  C   UNL     1      37.033 -19.315 -20.907  0.00  0.00    +0.015 C 
ATOM     24  C   UNL     1      35.387 -18.585 -22.539  0.00  0.00    +0.058 C 
ATOM     25  C   UNL     1      36.677 -18.537 -22.013  0.00  0.00    +0.013 C 
ATOM     26  H   UNL     1      36.912 -21.154 -18.726  0.00  0.00    +0.152 HD
ENDBRANCH  14  18
ENDBRANCH   1  13
BRANCH   1  27
ATOM     27  C   UNL     1      33.743 -24.163 -15.871  0.00  0.00    +0.055 C 
BRANCH  27  28
ATOM     28  C   UNL     1      32.318 -23.927 -15.430  0.00  0.00    -0.020 C 
ATOM     29  C   UNL     1      31.925 -24.320 -14.161  0.00  0.00    -0.004 C 
ATOM     30  C   UNL     1      31.429 -23.321 -16.304  0.00  0.00    -0.004 C 
ATOM     31  C   UNL     1      30.609 -24.101 -13.754  0.00  0.00    -0.000 C 
ATOM     32  C   UNL     1      30.112 -23.103 -15.897  0.00  0.00    -0.000 C 
ATOM     33  C   UNL     1      29.703 -23.493 -14.622  0.00  0.00    -0.000 C 
ENDBRANCH  27  28
ENDBRANCH   1  27
TORSDOF 7
ENDMDL
MODEL 3
REMARK VINA RESULT:     -10.0     12.334     16.354
REMARK  Name = 445459
REMARK  7 active torsions:
REMARK  status: ('A' for Active; 'I' for Inactive)
REMARK    1  A    between atoms: C_1  and  C_7
REMARK    2  A    between atoms: C_1  and  N_13
REMARK    3  A    between atoms: C_1  and  C_27
REMARK    4  A    between atoms: C_4  and  C_9
REMARK    5  A    between atoms: C_9  and  O_10
REMARK    6  A    between atoms: C_14  and  C_18
REMARK    7  A    between atoms: C_27  and  C_28
REMARK                            x       y       z     vdW  Elec       q    Type
REMARK                         _______ _______ _______ _____ _____    ______ ____
ROOT
ATOM      1  C   UNL     1      33.339  -9.245 -23.169  0.00  0.00    +0.153 C 
ENDROOT
BRANCH   1   7
ATOM      2  O   UNL     1      35.678  -8.826 -23.424  0.00  0.00    -0.273 OA
ATOM      3  N   UNL     1      34.215  -7.546 -24.645  0.00  0.00    -0.277 N 
ATOM      4  C   UNL     1      33.814  -6.291 -26.211  0.00  0.00    +0.138 C 
ATOM      5  C   UNL     1      35.056  -6.615 -25.372  0.00  0.00    +0.106 C 
ATOM      6  C   UNL     1      32.966  -7.031 -25.170  0.00  0.00    +0.106 C 
ATOM      7  C   UNL     1      34.530  -8.528 -23.748  0.00  0.00    +0.244 C 
BRANCH   4   9
ATOM      8  O   UNL     1      33.539  -3.907 -25.539  0.00  0.00    -0.250 OA
ATOM      9  C   UNL     1      33.494  -4.775 -26.408  0.00  0.00    +0.317 C 
BRANCH   9  10
ATOM     10  O   UNL     1      33.151  -4.487 -27.694  0.00  0.00    -0.480 OA
ATOM     11  H   UNL     1      33.106  -5.172 -28.332  0.00  0.00    +0.295 HD
ENDBRANCH   9  10
ENDBRANCH   4   9
ENDBRANCH   1   7
BRANCH   1  13
ATOM     12  O   UNL     1      31.684 -11.417 -22.466  0.00  0.00    -0.269 OA
ATOM     13  N   UNL     1      33.705 -10.642 -23.234  0.00  0.00    -0.294 N 
ATOM     14  C   UNL     1      32.839 -11.694 -22.870  0.00  0.00    +0.260 C 
ATOM     15  H   UNL     1      34.609 -10.871 -23.549  0.00  0.00    +0.150 HD
BRANCH  14  18
ATOM     16 CL   UNL     1      35.870 -18.734 -22.641  0.00  0.00    -0.082 Cl
ATOM     17  N   UNL     1      33.163 -13.781 -24.147  0.00  0.00    -0.309 N 
ATOM     18  C   UNL     1      33.333 -13.028 -23.016  0.00  0.00    +0.102 C 
ATOM     19  C   UNL     1      34.038 -13.782 -22.106  0.00  0.00    +0.020 C 
ATOM     20  C   UNL     1      34.306 -15.044 -22.706  0.00  0.00    +0.016 C 
ATOM     21  C   UNL     1      33.747 -15.017 -23.985  0.00  0.00    +0.048 C 
ATOM     22  C   UNL     1      34.974 -16.210 -22.282  0.00  0.00    +0.013 C 
ATOM     23  C   UNL     1      33.821 -16.103 -24.865  0.00  0.00    +0.015 C 
ATOM     24  C   UNL     1      35.056 -17.304 -23.151  0.00  0.00    +0.058 C 
ATOM     25  C   UNL     1      34.487 -17.249 -24.422  0.00  0.00    +0.013 C 
ATOM     26  H   UNL     1      32.690 -13.482 -24.957  0.00  0.00    +0.152 HD
ENDBRANCH  14  18
ENDBRANCH   1  13
BRANCH   1  27
ATOM     27  C   UNL     1      33.064  -8.769 -21.745  0.00  0.00    +0.055 C 
BRANCH  27  28
ATOM     28  C   UNL     1      32.404  -7.412 -21.703  0.00  0.00    -0.020 C 
ATOM     29  C   UNL     1      33.135  -6.313 -21.284  0.00  0.00    -0.004 C 
ATOM     30  C   UNL     1      31.076  -7.291 -22.085  0.00  0.00    -0.004 C 
ATOM     31  C   UNL     1      32.526  -5.059 -21.245  0.00  0.00    -0.000 C 
ATOM     32  C   UNL     1      30.466  -6.036 -22.046  0.00  0.00    -0.000 C 
ATOM     33  C   UNL     1      31.192  -4.921 -21.627  0.00  0.00    -0.000 C 
ENDBRANCH  27  28
ENDBRANCH   1  27
TORSDOF 7
ENDMDL
MODEL 4
REMARK VINA RESULT:      -9.9      1.717      1.863
REMARK  Name = 445459
REMARK  7 active torsions:
REMARK  status: ('A' for Active; 'I' for Inactive)
REMARK    1  A    between atoms: C_1  and  C_7
REMARK    2  A    between atoms: C_1  and  N_13
REMARK    3  A    between atoms: C_1  and  C_27
REMARK    4  A    between atoms: C_4  and  C_9
REMARK    5  A    between atoms: C_9  and  O_10
REMARK    6  A    between atoms: C_14  and  C_18
REMARK    7  A    between atoms: C_27  and  C_28
REMARK                            x       y       z     vdW  Elec       q    Type
REMARK                         _______ _______ _______ _____ _____    ______ ____
ROOT
ATOM      1  C   UNL     1      33.905 -24.677 -13.927  0.00  0.00    +0.153 C 
ENDROOT
BRANCH   1   7
ATOM      2  O   UNL     1      32.280 -26.263 -13.179  0.00  0.00    -0.273 OA
ATOM      3  N   UNL     1      31.527 -24.333 -14.168  0.00  0.00    -0.277 N 
ATOM      4  C   UNL     1      30.040 -22.977 -14.540  0.00  0.00    +0.138 C 
ATOM      5  C   UNL     1      30.084 -24.471 -14.195  0.00  0.00    +0.106 C 
ATOM      6  C   UNL     1      31.547 -23.038 -14.818  0.00  0.00    +0.106 C 
ATOM      7  C   UNL     1      32.501 -25.180 -13.717  0.00  0.00    +0.244 C 
BRANCH   4   9
ATOM      8  O   UNL     1      29.425 -22.682 -16.937  0.00  0.00    -0.250 OA
ATOM      9  C   UNL     1      29.134 -22.577 -15.747  0.00  0.00    +0.317 C 
BRANCH   9  10
ATOM     10  O   UNL     1      27.930 -22.085 -15.343  0.00  0.00    -0.480 OA
ATOM     11  H   UNL     1      27.382 -21.630 -15.952  0.00  0.00    +0.295 HD
ENDBRANCH   9  10
ENDBRANCH   4   9
ENDBRANCH   1   7
BRANCH   1  13
ATOM     12  O   UNL     1      36.032 -24.120 -15.691  0.00  0.00    -0.269 OA
ATOM     13  N   UNL     1      33.817 -23.885 -15.133  0.00  0.00    -0.294 N 
ATOM     14  C   UNL     1      34.913 -23.635 -15.985  0.00  0.00    +0.260 C 
ATOM     15  H   UNL     1      32.943 -23.499 -15.373  0.00  0.00    +0.150 HD
BRANCH  14  18
ATOM     16 CL   UNL     1      34.661 -19.373 -22.354  0.00  0.00    -0.082 Cl
ATOM     17  N   UNL     1      33.411 -22.592 -17.642  0.00  0.00    -0.309 N 
ATOM     18  C   UNL     1      34.665 -22.857 -17.159  0.00  0.00    +0.102 C 
ATOM     19  C   UNL     1      35.578 -22.255 -17.993  0.00  0.00    +0.020 C 
ATOM     20  C   UNL     1      34.852 -21.596 -19.025  0.00  0.00    +0.016 C 
ATOM     21  C   UNL     1      33.496 -21.824 -18.782  0.00  0.00    +0.048 C 
ATOM     22  C   UNL     1      35.220 -20.827 -20.146  0.00  0.00    +0.013 C 
ATOM     23  C   UNL     1      32.485 -21.319 -19.607  0.00  0.00    +0.015 C 
ATOM     24  C   UNL     1      34.220 -20.315 -20.981  0.00  0.00    +0.058 C 
ATOM     25  C   UNL     1      32.874 -20.558 -20.714  0.00  0.00    +0.013 C 
ATOM     26  H   UNL     1      32.572 -22.906 -17.235  0.00  0.00    +0.152 HD
ENDBRANCH  14  18
ENDBRANCH   1  13
BRANCH   1  27
ATOM     27  C   UNL     1      34.374 -23.868 -12.720  0.00  0.00    +0.055 C 
BRANCH  27  28
ATOM     28  C   UNL     1      35.781 -24.216 -12.299  0.00  0.00    -0.020 C 
ATOM     29  C   UNL     1      36.596 -23.229 -11.769  0.00  0.00    -0.004 C 
ATOM     30  C   UNL     1      36.233 -25.518 -12.451  0.00  0.00    -0.004 C 
ATOM     31  C   UNL     1      37.897 -23.550 -11.380  0.00  0.00    -0.000 C 
ATOM     32  C   UNL     1      37.534 -25.839 -12.062  0.00  0.00    -0.000 C 
ATOM     33  C   UNL     1      38.365 -24.855 -11.527  0.00  0.00    -0.000 C 
ENDBRANCH  27  28
ENDBRANCH   1  27
TORSDOF 7
ENDMDL
MODEL 5
REMARK VINA RESULT:      -9.6      2.203      5.806
REMARK  Name = 445459
REMARK  7 active torsions:
REMARK  status: ('A' for Active; 'I' for Inactive)
REMARK    1  A    between atoms: C_1  and  C_7
REMARK    2  A    between atoms: C_1  and  N_13
REMARK    3  A    between atoms: C_1  and  C_27
REMARK    4  A    between atoms: C_4  and  C_9
REMARK    5  A    between atoms: C_9  and  O_10
REMARK    6  A    between atoms: C_14  and  C_18
REMARK    7  A    between atoms: C_27  and  C_28
REMARK                            x       y       z     vdW  Elec       q    Type
REMARK                         _______ _______ _______ _____ _____    ______ ____
ROOT
ATOM      1  C   UNL     1      33.582 -24.372 -14.636  0.00  0.00    +0.153 C 
ENDROOT
BRANCH   1   7
ATOM      2  O   UNL     1      34.898 -26.305 -15.130  0.00  0.00    -0.273 OA
ATOM      3  N   UNL     1      35.818 -24.690 -13.783  0.00  0.00    -0.277 N 
ATOM      4  C   UNL     1      37.443 -23.800 -12.913  0.00  0.00    +0.138 C 
ATOM      5  C   UNL     1      37.121 -25.211 -13.419  0.00  0.00    +0.106 C 
ATOM      6  C   UNL     1      35.950 -23.464 -13.022  0.00  0.00    +0.106 C 
ATOM      7  C   UNL     1      34.820 -25.225 -14.548  0.00  0.00    +0.244 C 
BRANCH   4   9
ATOM      8  O   UNL     1      39.053 -23.045 -11.166  0.00  0.00    -0.250 OA
ATOM      9  C   UNL     1      38.066 -23.706 -11.485  0.00  0.00    +0.317 C 
BRANCH   9  10
ATOM     10  O   UNL     1      37.382 -24.456 -10.577  0.00  0.00    -0.480 OA
ATOM     11  H   UNL     1      36.980 -25.260 -10.842  0.00  0.00    +0.295 HD
ENDBRANCH   9  10
ENDBRANCH   4   9
ENDBRANCH   1   7
BRANCH   1  13
ATOM     12  O   UNL     1      33.414 -25.018 -17.376  0.00  0.00    -0.269 OA
ATOM     13  N   UNL     1      33.854 -23.472 -15.735  0.00  0.00    -0.294 N 
ATOM     14  C   UNL     1      33.755 -23.845 -17.093  0.00  0.00    +0.260 C 
ATOM     15  H   UNL     1      34.123 -22.549 -15.524  0.00  0.00    +0.150 HD
BRANCH  14  18
ATOM     16 CL   UNL     1      36.262 -18.605 -22.098  0.00  0.00    -0.082 Cl
ATOM     17  N   UNL     1      33.054 -22.182 -18.775  0.00  0.00    -0.309 N 
ATOM     18  C   UNL     1      34.027 -22.836 -18.068  0.00  0.00    +0.102 C 
ATOM     19  C   UNL     1      35.247 -22.346 -18.473  0.00  0.00    +0.020 C 
ATOM     20  C   UNL     1      35.008 -21.355 -19.466  0.00  0.00    +0.016 C 
ATOM     21  C   UNL     1      33.625 -21.272 -19.636  0.00  0.00    +0.048 C 
ATOM     22  C   UNL     1      35.838 -20.519 -20.237  0.00  0.00    +0.013 C 
ATOM     23  C   UNL     1      33.027 -20.391 -20.545  0.00  0.00    +0.015 C 
ATOM     24  C   UNL     1      35.255 -19.632 -21.150  0.00  0.00    +0.058 C 
ATOM     25  C   UNL     1      33.870 -19.571 -21.300  0.00  0.00    +0.013 C 
ATOM     26  H   UNL     1      32.086 -22.340 -18.682  0.00  0.00    +0.152 HD
ENDBRANCH  14  18
ENDBRANCH   1  13
BRANCH   1  27
ATOM     27  C   UNL     1      32.347 -25.238 -14.871  0.00  0.00    +0.055 C 
BRANCH  27  28
ATOM     28  C   UNL     1      31.078 -24.425 -14.971  0.00  0.00    -0.020 C 
ATOM     29  C   UNL     1      31.071 -23.117 -14.514  0.00  0.00    -0.004 C 
ATOM     30  C   UNL     1      29.943 -25.003 -15.518  0.00  0.00    -0.004 C 
ATOM     31  C   UNL     1      29.900 -22.366 -14.606  0.00  0.00    -0.000 C 
ATOM     32  C   UNL     1      28.771 -24.251 -15.610  0.00  0.00    -0.000 C 
ATOM     33  C   UNL     1      28.750 -22.933 -15.154  0.00  0.00    -0.000 C 
ENDBRANCH  27  28
ENDBRANCH   1  27
TORSDOF 7
ENDMDL
MODEL 6
REMARK VINA RESULT:      -9.5      1.956      2.864
REMARK  Name = 445459
REMARK  7 active torsions:
REMARK  status: ('A' for Active; 'I' for Inactive)
REMARK    1  A    between atoms: C_1  and  C_7
REMARK    2  A    between atoms: C_1  and  N_13
REMARK    3  A    between atoms: C_1  and  C_27
REMARK    4  A    between atoms: C_4  and  C_9
REMARK    5  A    between atoms: C_9  and  O_10
REMARK    6  A    between atoms: C_14  and  C_18
REMARK    7  A    between atoms: C_27  and  C_28
REMARK                            x       y       z     vdW  Elec       q    Type
REMARK                         _______ _______ _______ _____ _____    ______ ____
ROOT
ATOM      1  C   UNL     1      33.311 -23.408 -16.571  0.00  0.00    +0.153 C 
ENDROOT
BRANCH   1   7
ATOM      2  O   UNL     1      31.294 -22.332 -17.269  0.00  0.00    -0.273 OA
ATOM      3  N   UNL     1      31.126 -24.095 -15.808  0.00  0.00    -0.277 N 
ATOM      4  C   UNL     1      30.032 -25.570 -14.904  0.00  0.00    +0.138 C 
ATOM      5  C   UNL     1      29.707 -24.205 -15.524  0.00  0.00    +0.106 C 
ATOM      6  C   UNL     1      31.518 -25.190 -14.944  0.00  0.00    +0.106 C 
ATOM      7  C   UNL     1      31.817 -23.214 -16.591  0.00  0.00    +0.244 C 
BRANCH   4   9
ATOM      8  O   UNL     1      29.947 -25.549 -12.413  0.00  0.00    -0.250 OA
ATOM      9  C   UNL     1      29.430 -25.842 -13.489  0.00  0.00    +0.317 C 
BRANCH   9  10
ATOM     10  O   UNL     1      28.217 -26.458 -13.559  0.00  0.00    -0.480 OA
ATOM     11  H   UNL     1      27.589 -26.334 -12.874  0.00  0.00    +0.295 HD
ENDBRANCH   9  10
ENDBRANCH   4   9
ENDBRANCH   1   7
BRANCH   1  13
ATOM     12  O   UNL     1      34.038 -23.851 -19.259  0.00  0.00    -0.269 OA
ATOM     13  N   UNL     1      33.806 -22.406 -17.489  0.00  0.00    -0.294 N 
ATOM     14  C   UNL     1      34.157 -22.679 -18.828  0.00  0.00    +0.260 C 
ATOM     15  H   UNL     1      33.904 -21.483 -17.161  0.00  0.00    +0.150 HD
BRANCH  14  18
ATOM     16 CL   UNL     1      35.508 -16.637 -23.353  0.00  0.00    -0.082 Cl
ATOM     17  N   UNL     1      35.915 -21.195 -19.721  0.00  0.00    -0.309 N 
ATOM     18  C   UNL     1      34.604 -21.578 -19.623  0.00  0.00    +0.102 C 
ATOM     19  C   UNL     1      33.855 -20.729 -20.404  0.00  0.00    +0.020 C 
ATOM     20  C   UNL     1      34.745 -19.792 -21.001  0.00  0.00    +0.016 C 
ATOM     21  C   UNL     1      36.030 -20.107 -20.556  0.00  0.00    +0.048 C 
ATOM     22  C   UNL     1      34.578 -18.703 -21.879  0.00  0.00    +0.013 C 
ATOM     23  C   UNL     1      37.163 -19.384 -20.947  0.00  0.00    +0.015 C 
ATOM     24  C   UNL     1      35.702 -17.971 -22.279  0.00  0.00    +0.058 C 
ATOM     25  C   UNL     1      36.974 -18.308 -21.819  0.00  0.00    +0.013 C 
ATOM     26  H   UNL     1      36.667 -21.635 -19.261  0.00  0.00    +0.152 HD
ENDBRANCH  14  18
ENDBRANCH   1  13
BRANCH   1  27
ATOM     27  C   UNL     1      33.857 -23.237 -15.156  0.00  0.00    +0.055 C 
BRANCH  27  28
ATOM     28  C   UNL     1      35.200 -23.902 -14.968  0.00  0.00    -0.020 C 
ATOM     29  C   UNL     1      36.357 -23.158 -15.136  0.00  0.00    -0.004 C 
ATOM     30  C   UNL     1      35.251 -25.246 -14.631  0.00  0.00    -0.004 C 
ATOM     31  C   UNL     1      37.597 -23.772 -14.962  0.00  0.00    -0.000 C 
ATOM     32  C   UNL     1      36.492 -25.860 -14.457  0.00  0.00    -0.000 C 
ATOM     33  C   UNL     1      37.664 -25.123 -14.623  0.00  0.00    -0.000 C 
ENDBRANCH  27  28
ENDBRANCH   1  27
TORSDOF 7
ENDMDL
MODEL 7
REMARK VINA RESULT:      -9.3      2.866      6.292
REMARK  Name = 445459
REMARK  7 active torsions:
REMARK  status: ('A' for Active; 'I' for Inactive)
REMARK    1  A    between atoms: C_1  and  C_7
REMARK    2  A    between atoms: C_1  and  N_13
REMARK    3  A    between atoms: C_1  and  C_27
REMARK    4  A    between atoms: C_4  and  C_9
REMARK    5  A    between atoms: C_9  and  O_10
REMARK    6  A    between atoms: C_14  and  C_18
REMARK    7  A    between atoms: C_27  and  C_28
REMARK                            x       y       z     vdW  Elec       q    Type
REMARK                         _______ _______ _______ _____ _____    ______ ____
ROOT
ATOM      1  C   UNL     1      35.301 -24.357 -14.355  0.00  0.00    +0.153 C 
ENDROOT
BRANCH   1   7
ATOM      2  O   UNL     1      35.309 -26.576 -15.244  0.00  0.00    -0.273 OA
ATOM      3  N   UNL     1      37.325 -25.633 -14.679  0.00  0.00    -0.277 N 
ATOM      4  C   UNL     1      39.367 -25.571 -14.804  0.00  0.00    +0.138 C 
ATOM      5  C   UNL     1      38.305 -26.667 -14.951  0.00  0.00    +0.106 C 
ATOM      6  C   UNL     1      38.289 -24.663 -14.200  0.00  0.00    +0.106 C 
ATOM      7  C   UNL     1      35.964 -25.633 -14.804  0.00  0.00    +0.244 C 
BRANCH   4   9
ATOM      8  O   UNL     1      41.109 -27.010 -13.752  0.00  0.00    -0.250 OA
ATOM      9  C   UNL     1      40.579 -25.908 -13.879  0.00  0.00    +0.317 C 
BRANCH   9  10
ATOM     10  O   UNL     1      41.022 -24.816 -13.198  0.00  0.00    -0.480 OA
ATOM     11  H   UNL     1      40.527 -24.480 -12.476  0.00  0.00    +0.295 HD
ENDBRANCH   9  10
ENDBRANCH   4   9
ENDBRANCH   1   7
BRANCH   1  13
ATOM     12  O   UNL     1      37.102 -22.635 -15.676  0.00  0.00    -0.269 OA
ATOM     13  N   UNL     1      35.041 -23.646 -15.587  0.00  0.00    -0.294 N 
ATOM     14  C   UNL     1      35.977 -22.794 -16.210  0.00  0.00    +0.260 C 
ATOM     15  H   UNL     1      34.162 -23.762 -16.014  0.00  0.00    +0.150 HD
BRANCH  14  18
ATOM     16 CL   UNL     1      34.940 -19.334 -22.974  0.00  0.00    -0.082 Cl
ATOM     17  N   UNL     1      34.287 -22.088 -17.864  0.00  0.00    -0.309 N 
ATOM     18  C   UNL     1      35.586 -22.182 -17.442  0.00  0.00    +0.102 C 
ATOM     19  C   UNL     1      36.386 -21.599 -18.398  0.00  0.00    +0.020 C 
ATOM     20  C   UNL     1      35.540 -21.133 -19.443  0.00  0.00    +0.016 C 
ATOM     21  C   UNL     1      34.230 -21.452 -19.083  0.00  0.00    +0.048 C 
ATOM     22  C   UNL     1      35.766 -20.467 -20.664  0.00  0.00    +0.013 C 
ATOM     23  C   UNL     1      33.128 -21.138 -19.887  0.00  0.00    +0.015 C 
ATOM     24  C   UNL     1      34.673 -20.147 -21.479  0.00  0.00    +0.058 C 
ATOM     25  C   UNL     1      33.376 -20.478 -21.094  0.00  0.00    +0.013 C 
ATOM     26  H   UNL     1      33.507 -22.427 -17.367  0.00  0.00    +0.152 HD
ENDBRANCH  14  18
ENDBRANCH   1  13
BRANCH   1  27
ATOM     27  C   UNL     1      34.030 -24.658 -13.565  0.00  0.00    +0.055 C 
BRANCH  27  28
ATOM     28  C   UNL     1      32.795 -24.077 -14.209  0.00  0.00    -0.020 C 
ATOM     29  C   UNL     1      31.855 -23.433 -13.420  0.00  0.00    -0.004 C 
ATOM     30  C   UNL     1      32.623 -24.197 -15.580  0.00  0.00    -0.004 C 
ATOM     31  C   UNL     1      30.714 -22.895 -14.015  0.00  0.00    -0.000 C 
ATOM     32  C   UNL     1      31.481 -23.659 -16.175  0.00  0.00    -0.000 C 
ATOM     33  C   UNL     1      30.528 -23.008 -15.393  0.00  0.00    -0.000 C 
ENDBRANCH  27  28
ENDBRANCH   1  27
TORSDOF 7
ENDMDL
MODEL 8
REMARK VINA RESULT:      -9.0      3.578      7.774
REMARK  Name = 445459
REMARK  7 active torsions:
REMARK  status: ('A' for Active; 'I' for Inactive)
REMARK    1  A    between atoms: C_1  and  C_7
REMARK    2  A    between atoms: C_1  and  N_13
REMARK    3  A    between atoms: C_1  and  C_27
REMARK    4  A    between atoms: C_4  and  C_9
REMARK    5  A    between atoms: C_9  and  O_10
REMARK    6  A    between atoms: C_14  and  C_18
REMARK    7  A    between atoms: C_27  and  C_28
REMARK                            x       y       z     vdW  Elec       q    Type
REMARK                         _______ _______ _______ _____ _____    ______ ____
ROOT
ATOM      1  C   UNL     1      36.390 -23.210 -15.877  0.00  0.00    +0.153 C 
ENDROOT
BRANCH   1   7
ATOM      2  O   UNL     1      36.239 -22.793 -13.528  0.00  0.00    -0.273 OA
ATOM      3  N   UNL     1      37.792 -24.320 -14.255  0.00  0.00    -0.277 N 
ATOM      4  C   UNL     1      39.062 -25.886 -13.901  0.00  0.00    +0.138 C 
ATOM      5  C   UNL     1      38.479 -24.750 -13.052  0.00  0.00    +0.106 C 
ATOM      6  C   UNL     1      38.572 -25.148 -15.153  0.00  0.00    +0.106 C 
ATOM      7  C   UNL     1      36.790 -23.410 -14.439  0.00  0.00    +0.244 C 
BRANCH   4   9
ATOM      8  O   UNL     1      41.166 -27.134 -13.420  0.00  0.00    -0.250 OA
ATOM      9  C   UNL     1      40.604 -26.104 -13.790  0.00  0.00    +0.317 C 
BRANCH   9  10
ATOM     10  O   UNL     1      41.306 -25.000 -14.167  0.00  0.00    -0.480 OA
ATOM     11  H   UNL     1      42.205 -24.908 -13.917  0.00  0.00    +0.295 HD
ENDBRANCH   9  10
ENDBRANCH   4   9
ENDBRANCH   1   7
BRANCH   1  13
ATOM     12  O   UNL     1      34.724 -25.424 -15.357  0.00  0.00    -0.269 OA
ATOM     13  N   UNL     1      34.945 -23.190 -15.839  0.00  0.00    -0.294 N 
ATOM     14  C   UNL     1      34.154 -24.328 -15.574  0.00  0.00    +0.260 C 
ATOM     15  H   UNL     1      34.488 -22.334 -16.008  0.00  0.00    +0.150 HD
BRANCH  14  18
ATOM     16 CL   UNL     1      26.731 -22.451 -15.983  0.00  0.00    -0.082 Cl
ATOM     17  N   UNL     1      31.875 -25.006 -14.915  0.00  0.00    -0.309 N 
ATOM     18  C   UNL     1      32.737 -24.145 -15.541  0.00  0.00    +0.102 C 
ATOM     19  C   UNL     1      31.993 -23.130 -16.098  0.00  0.00    +0.020 C 
ATOM     20  C   UNL     1      30.625 -23.383 -15.800  0.00  0.00    +0.016 C 
ATOM     21  C   UNL     1      30.579 -24.565 -15.058  0.00  0.00    +0.048 C 
ATOM     22  C   UNL     1      29.418 -22.718 -16.091  0.00  0.00    +0.013 C 
ATOM     23  C   UNL     1      29.381 -25.117 -14.591  0.00  0.00    +0.015 C 
ATOM     24  C   UNL     1      28.212 -23.258 -15.631  0.00  0.00    +0.058 C 
ATOM     25  C   UNL     1      28.196 -24.440 -14.892  0.00  0.00    +0.013 C 
ATOM     26  H   UNL     1      32.144 -25.822 -14.434  0.00  0.00    +0.152 HD
ENDBRANCH  14  18
ENDBRANCH   1  13
BRANCH   1  27
ATOM     27  C   UNL     1      36.987 -21.917 -16.428  0.00  0.00    +0.055 C 
BRANCH  27  28
ATOM     28  C   UNL     1      36.453 -21.569 -17.796  0.00  0.00    -0.020 C 
ATOM     29  C   UNL     1      35.284 -22.163 -18.242  0.00  0.00    -0.004 C 
ATOM     30  C   UNL     1      37.144 -20.660 -18.583  0.00  0.00    -0.004 C 
ATOM     31  C   UNL     1      34.790 -21.841 -19.506  0.00  0.00    -0.000 C 
ATOM     32  C   UNL     1      36.650 -20.337 -19.848  0.00  0.00    -0.000 C 
ATOM     33  C   UNL     1      35.473 -20.928 -20.308  0.00  0.00    -0.000 C 
ENDBRANCH  27  28
ENDBRANCH   1  27
TORSDOF 7
ENDMDL
MODEL 9
REMARK VINA RESULT:      -9.0      3.162      5.882
REMARK  Name = 445459
REMARK  7 active torsions:
REMARK  status: ('A' for Active; 'I' for Inactive)
REMARK    1  A    between atoms: C_1  and  C_7
REMARK    2  A    between atoms: C_1  and  N_13
REMARK    3  A    between atoms: C_1  and  C_27
REMARK    4  A    between atoms: C_4  and  C_9
REMARK    5  A    between atoms: C_9  and  O_10
REMARK    6  A    between atoms: C_14  and  C_18
REMARK    7  A    between atoms: C_27  and  C_28
REMARK                            x       y       z     vdW  Elec       q    Type
REMARK                         _______ _______ _______ _____ _____    ______ ____
ROOT
ATOM      1  C   UNL     1      35.541 -23.865 -14.572  0.00  0.00    +0.153 C 
ENDROOT
BRANCH   1   7
ATOM      2  O   UNL     1      37.366 -22.524 -15.339  0.00  0.00    -0.273 OA
ATOM      3  N   UNL     1      35.534 -22.737 -16.707  0.00  0.00    -0.277 N 
ATOM      4  C   UNL     1      34.653 -22.600 -18.549  0.00  0.00    +0.138 C 
ATOM      5  C   UNL     1      35.837 -21.910 -17.860  0.00  0.00    +0.106 C 
ATOM      6  C   UNL     1      34.229 -23.151 -17.182  0.00  0.00    +0.106 C 
ATOM      7  C   UNL     1      36.245 -22.977 -15.564  0.00  0.00    +0.244 C 
BRANCH   4   9
ATOM      8  O   UNL     1      32.433 -21.556 -18.990  0.00  0.00    -0.250 OA
ATOM      9  C   UNL     1      33.628 -21.659 -19.259  0.00  0.00    +0.317 C 
BRANCH   9  10
ATOM     10  O   UNL     1      34.208 -20.923 -20.246  0.00  0.00    -0.480 OA
ATOM     11  H   UNL     1      34.907 -20.334 -20.042  0.00  0.00    +0.295 HD
ENDBRANCH   9  10
ENDBRANCH   4   9
ENDBRANCH   1   7
BRANCH   1  13
ATOM     12  O   UNL     1      33.374 -24.338 -12.832  0.00  0.00    -0.269 OA
ATOM     13  N   UNL     1      34.142 -23.724 -14.907  0.00  0.00    -0.294 N 
ATOM     14  C   UNL     1      33.092 -23.974 -13.999  0.00  0.00    +0.260 C 
ATOM     15  H   UNL     1      33.909 -23.440 -15.821  0.00  0.00    +0.150 HD
BRANCH  14  18
ATOM     16 CL   UNL     1      25.921 -21.984 -15.847  0.00  0.00    -0.082 Cl
ATOM     17  N   UNL     1      31.144 -24.562 -15.395  0.00  0.00    -0.309 N 
ATOM     18  C   UNL     1      31.758 -23.763 -14.467  0.00  0.00    +0.102 C 
ATOM     19  C   UNL     1      30.872 -22.775 -14.106  0.00  0.00    +0.020 C 
ATOM     20  C   UNL     1      29.672 -22.979 -14.842  0.00  0.00    +0.016 C 
ATOM     21  C   UNL     1      29.869 -24.106 -15.643  0.00  0.00    +0.048 C 
ATOM     22  C   UNL     1      28.433 -22.312 -14.905  0.00  0.00    +0.013 C 
ATOM     23  C   UNL     1      28.886 -24.601 -16.507  0.00  0.00    +0.015 C 
ATOM     24  C   UNL     1      27.440 -22.794 -15.765  0.00  0.00    +0.058 C 
ATOM     25  C   UNL     1      27.665 -23.922 -16.553  0.00  0.00    +0.013 C 
ATOM     26  H   UNL     1      31.556 -25.347 -15.823  0.00  0.00    +0.152 HD
ENDBRANCH  14  18
ENDBRANCH   1  13
BRANCH   1  27
ATOM     27  C   UNL     1      36.038 -25.304 -14.690  0.00  0.00    +0.055 C 
BRANCH  27  28
ATOM     28  C   UNL     1      37.459 -25.469 -14.210  0.00  0.00    -0.020 C 
ATOM     29  C   UNL     1      37.787 -25.098 -12.915  0.00  0.00    -0.004 C 
ATOM     30  C   UNL     1      38.412 -25.989 -15.072  0.00  0.00    -0.004 C 
ATOM     31  C   UNL     1      39.100 -25.251 -12.471  0.00  0.00    -0.000 C 
ATOM     32  C   UNL     1      39.726 -26.142 -14.628  0.00  0.00    -0.000 C 
ATOM     33  C   UNL     1      40.069 -25.773 -13.327  0.00  0.00    -0.000 C 
ENDBRANCH  27  28
ENDBRANCH   1  27
TORSDOF 7
ENDMDL
