MODEL 1
REMARK VINA RESULT:     -11.6      0.000      0.000
REMARK  Name = 11626560
REMARK  5 active torsions:
REMARK  status: ('A' for Active; 'I' for Inactive)
REMARK    1  A    between atoms: C_2  and  C_10
REMARK    2  A    between atoms: C_5  and  O_23
REMARK    3  A    between atoms: N_7  and  C_13
REMARK    4  A    between atoms: O_23  and  C_24
REMARK    5  A    between atoms: C_24  and  C_29
REMARK                            x       y       z     vdW  Elec       q    Type
REMARK                         _______ _______ _______ _____ _____    ______ ____
ROOT
ATOM      1  N   UNL     1      32.809 -22.128 -19.188  0.00  0.00    -0.226 NA
ATOM      2  C   UNL     1      34.778 -20.866 -19.809  0.00  0.00    +0.025 C 
ATOM      3  C   UNL     1      35.526 -21.561 -18.861  0.00  0.00    +0.041 C 
ATOM      4  C   UNL     1      33.435 -21.187 -19.930  0.00  0.00    +0.101 C 
ATOM      5  C   UNL     1      34.918 -22.535 -18.079  0.00  0.00    +0.170 C 
ATOM      6  C   UNL     1      33.569 -22.780 -18.279  0.00  0.00    +0.160 C 
ATOM      7  N   UNL     1      32.948 -23.775 -17.485  0.00  0.00    -0.340 N 
ATOM      8  H   UNL     1      31.991 -23.973 -17.601  0.00  0.00    +0.144 HD
ATOM      9  H   UNL     1      33.474 -24.269 -16.814  0.00  0.00    +0.144 HD
ENDROOT
BRANCH   2  13
ATOM     10  N   UNL     1      35.600 -18.150 -21.966  0.00  0.00    -0.212 N 
ATOM     11  N   UNL     1      36.866 -18.534 -21.743  0.00  0.00    -0.176 NA
ATOM     12  C   UNL     1      34.669 -18.906 -21.322  0.00  0.00    +0.086 C 
ATOM     13  C   UNL     1      35.376 -19.858 -20.628  0.00  0.00    +0.039 C 
ATOM     14  C   UNL     1      36.724 -19.580 -20.925  0.00  0.00    +0.119 C 
BRANCH  10  16
ATOM     15  N   UNL     1      33.589 -15.042 -24.124  0.00  0.00    +0.384 N 
ATOM     16  C   UNL     1      35.334 -17.002 -22.838  0.00  0.00    +0.092 C 
ATOM     17  C   UNL     1      34.750 -15.801 -22.076  0.00  0.00    -0.002 C 
ATOM     18  C   UNL     1      34.443 -17.362 -24.038  0.00  0.00    -0.002 C 
ATOM     19  C   UNL     1      34.467 -14.638 -23.026  0.00  0.00    -0.080 C 
ATOM     20  C   UNL     1      34.173 -16.133 -24.906  0.00  0.00    -0.080 C 
ATOM     21  H   UNL     1      33.434 -14.242 -24.738  0.00  0.00    -0.085 HD
ATOM     22  H   UNL     1      32.709 -15.370 -23.727  0.00  0.00    -0.085 HD
ENDBRANCH  10  16
ENDBRANCH   2  13
BRANCH   5  23
ATOM     23  O   UNL     1      35.647 -23.214 -17.155  0.00  0.00    -0.472 OA
BRANCH  23  24
ATOM     24  C   UNL     1      35.928 -22.544 -15.925  0.00  0.00    +0.190 C 
ATOM     25  C   UNL     1      37.208 -21.731 -16.072  0.00  0.00    +0.052 C 
BRANCH  24  29
ATOM     26 CL   UNL     1      38.648 -23.852 -15.509  0.00  0.00    -0.080 Cl
ATOM     27 CL   UNL     1      33.384 -23.085 -14.328  0.00  0.00    -0.082 Cl
ATOM     28  F   UNL     1      38.487 -25.765 -13.289  0.00  0.00    -0.203 F 
ATOM     29  C   UNL     1      36.027 -23.564 -14.815  0.00  0.00    +0.041 C 
ATOM     30  C   UNL     1      37.239 -24.198 -14.572  0.00  0.00    +0.085 C 
ATOM     31  C   UNL     1      34.904 -23.855 -14.050  0.00  0.00    +0.058 C 
ATOM     32  C   UNL     1      37.330 -25.138 -13.546  0.00  0.00    +0.150 C 
ATOM     33  C   UNL     1      34.996 -24.796 -13.025  0.00  0.00    +0.014 C 
ATOM     34  C   UNL     1      36.208 -25.438 -12.773  0.00  0.00    +0.031 C 
ENDBRANCH  24  29
ENDBRANCH  23  24
ENDBRANCH   5  23
TORSDOF 5
ENDMDL
MODEL 2
REMARK VINA RESULT:     -11.0      1.182      2.059
REMARK  Name = 11626560
REMARK  5 active torsions:
REMARK  status: ('A' for Active; 'I' for Inactive)
REMARK    1  A    between atoms: C_2  and  C_10
REMARK    2  A    between atoms: C_5  and  O_23
REMARK    3  A    between atoms: N_7  and  C_13
REMARK    4  A    between atoms: O_23  and  C_24
REMARK    5  A    between atoms: C_24  and  C_29
REMARK                            x       y       z     vdW  Elec       q    Type
REMARK                         _______ _______ _______ _____ _____    ______ ____
ROOT
ATOM      1  N   UNL     1      32.612 -22.474 -18.361  0.00  0.00    -0.226 NA
ATOM      2  C   UNL     1      34.644 -21.430 -19.161  0.00  0.00    +0.025 C 
ATOM      3  C   UNL     1      35.381 -22.122 -18.204  0.00  0.00    +0.041 C 
ATOM      4  C   UNL     1      33.274 -21.641 -19.196  0.00  0.00    +0.101 C 
ATOM      5  C   UNL     1      34.737 -22.988 -17.328  0.00  0.00    +0.170 C 
ATOM      6  C   UNL     1      33.363 -23.128 -17.446  0.00  0.00    +0.160 C 
ATOM      7  N   UNL     1      32.705 -24.012 -16.555  0.00  0.00    -0.340 N 
ATOM      8  H   UNL     1      31.730 -24.134 -16.612  0.00  0.00    +0.144 HD
ATOM      9  H   UNL     1      33.224 -24.504 -15.878  0.00  0.00    +0.144 HD
ENDROOT
BRANCH   2  13
ATOM     10  N   UNL     1      35.577 -19.122 -21.712  0.00  0.00    -0.212 N 
ATOM     11  N   UNL     1      36.807 -19.256 -21.195  0.00  0.00    -0.176 NA
ATOM     12  C   UNL     1      34.624 -19.862 -21.081  0.00  0.00    +0.086 C 
ATOM     13  C   UNL     1      35.278 -20.532 -20.076  0.00  0.00    +0.039 C 
ATOM     14  C   UNL     1      36.620 -20.121 -20.194  0.00  0.00    +0.119 C 
BRANCH  10  16
ATOM     15  N   UNL     1      33.795 -16.363 -24.465  0.00  0.00    +0.384 N 
ATOM     16  C   UNL     1      35.365 -18.231 -22.857  0.00  0.00    +0.092 C 
ATOM     17  C   UNL     1      35.156 -16.767 -22.440  0.00  0.00    -0.002 C 
ATOM     18  C   UNL     1      34.220 -18.699 -23.770  0.00  0.00    -0.002 C 
ATOM     19  C   UNL     1      34.918 -15.880 -23.661  0.00  0.00    -0.080 C 
ATOM     20  C   UNL     1      34.020 -17.730 -24.936  0.00  0.00    -0.080 C 
ATOM     21  H   UNL     1      33.676 -15.750 -25.272  0.00  0.00    -0.085 HD
ATOM     22  H   UNL     1      32.958 -16.360 -23.881  0.00  0.00    -0.085 HD
ENDBRANCH  10  16
ENDBRANCH   2  13
BRANCH   5  23
ATOM     23  O   UNL     1      35.456 -23.665 -16.394  0.00  0.00    -0.472 OA
BRANCH  23  24
ATOM     24  C   UNL     1      35.903 -22.928 -15.255  0.00  0.00    +0.190 C 
ATOM     25  C   UNL     1      37.006 -21.964 -15.677  0.00  0.00    +0.052 C 
BRANCH  24  29
ATOM     26 CL   UNL     1      33.895 -23.630 -13.074  0.00  0.00    -0.080 Cl
ATOM     27 CL   UNL     1      38.759 -23.976 -15.507  0.00  0.00    -0.082 Cl
ATOM     28  F   UNL     1      35.118 -25.513 -11.183  0.00  0.00    -0.203 F 
ATOM     29  C   UNL     1      36.369 -23.893 -14.190  0.00  0.00    +0.041 C 
ATOM     30  C   UNL     1      35.503 -24.255 -13.166  0.00  0.00    +0.085 C 
ATOM     31  C   UNL     1      37.658 -24.407 -14.248  0.00  0.00    +0.058 C 
ATOM     32  C   UNL     1      35.933 -25.146 -12.183  0.00  0.00    +0.150 C 
ATOM     33  C   UNL     1      38.088 -25.298 -13.264  0.00  0.00    +0.014 C 
ATOM     34  C   UNL     1      37.226 -25.667 -12.232  0.00  0.00    +0.031 C 
ENDBRANCH  24  29
ENDBRANCH  23  24
ENDBRANCH   5  23
TORSDOF 5
ENDMDL
MODEL 3
REMARK VINA RESULT:     -11.0      8.882     13.772
REMARK  Name = 11626560
REMARK  5 active torsions:
REMARK  status: ('A' for Active; 'I' for Inactive)
REMARK    1  A    between atoms: C_2  and  C_10
REMARK    2  A    between atoms: C_5  and  O_23
REMARK    3  A    between atoms: N_7  and  C_13
REMARK    4  A    between atoms: O_23  and  C_24
REMARK    5  A    between atoms: C_24  and  C_29
REMARK                            x       y       z     vdW  Elec       q    Type
REMARK                         _______ _______ _______ _____ _____    ______ ____
ROOT
ATOM      1  N   UNL     1      31.767 -12.040 -19.759  0.00  0.00    -0.226 NA
ATOM      2  C   UNL     1      32.646 -12.615 -21.939  0.00  0.00    +0.025 C 
ATOM      3  C   UNL     1      32.529 -11.287 -22.340  0.00  0.00    +0.041 C 
ATOM      4  C   UNL     1      32.254 -12.935 -20.648  0.00  0.00    +0.101 C 
ATOM      5  C   UNL     1      32.033 -10.337 -21.455  0.00  0.00    +0.170 C 
ATOM      6  C   UNL     1      31.669 -10.761 -20.186  0.00  0.00    +0.160 C 
ATOM      7  N   UNL     1      31.166  -9.794 -19.281  0.00  0.00    -0.340 N 
ATOM      8  H   UNL     1      30.898 -10.062 -18.372  0.00  0.00    +0.144 HD
ATOM      9  H   UNL     1      31.082  -8.854 -19.561  0.00  0.00    +0.144 HD
ENDROOT
BRANCH   2  13
ATOM     10  N   UNL     1      34.074 -15.449 -23.562  0.00  0.00    -0.212 N 
ATOM     11  N   UNL     1      33.755 -14.795 -24.688  0.00  0.00    -0.176 NA
ATOM     12  C   UNL     1      33.735 -14.789 -22.420  0.00  0.00    +0.086 C 
ATOM     13  C   UNL     1      33.152 -13.614 -22.828  0.00  0.00    +0.039 C 
ATOM     14  C   UNL     1      33.192 -13.672 -24.235  0.00  0.00    +0.119 C 
BRANCH  10  16
ATOM     15  N   UNL     1      34.982 -19.601 -23.011  0.00  0.00    +0.384 N 
ATOM     16  C   UNL     1      34.727 -16.760 -23.644  0.00  0.00    +0.092 C 
ATOM     17  C   UNL     1      33.835 -17.827 -24.297  0.00  0.00    -0.002 C 
ATOM     18  C   UNL     1      35.246 -17.252 -22.283  0.00  0.00    -0.002 C 
ATOM     19  C   UNL     1      34.546 -19.179 -24.342  0.00  0.00    -0.080 C 
ATOM     20  C   UNL     1      35.897 -18.629 -22.413  0.00  0.00    -0.080 C 
ATOM     21  H   UNL     1      35.459 -20.500 -23.087  0.00  0.00    -0.085 HD
ATOM     22  H   UNL     1      34.160 -19.676 -22.413  0.00  0.00    -0.085 HD
ENDBRANCH  10  16
ENDBRANCH   2  13
BRANCH   5  23
ATOM     23  O   UNL     1      31.919  -9.041 -21.845  0.00  0.00    -0.472 OA
BRANCH  23  24
ATOM     24  C   UNL     1      33.116  -8.264 -21.884  0.00  0.00    +0.190 C 
ATOM     25  C   UNL     1      33.178  -7.367 -20.653  0.00  0.00    +0.052 C 
BRANCH  24  29
ATOM     26 CL   UNL     1      35.403  -8.871 -23.803  0.00  0.00    -0.080 Cl
ATOM     27 CL   UNL     1      30.893  -6.213 -22.291  0.00  0.00    -0.082 Cl
ATOM     28  F   UNL     1      35.171  -7.160 -26.177  0.00  0.00    -0.203 F 
ATOM     29  C   UNL     1      33.153  -7.469 -23.168  0.00  0.00    +0.041 C 
ATOM     30  C   UNL     1      34.169  -7.696 -24.087  0.00  0.00    +0.085 C 
ATOM     31  C   UNL     1      32.168  -6.519 -23.414  0.00  0.00    +0.058 C 
ATOM     32  C   UNL     1      34.202  -6.962 -25.272  0.00  0.00    +0.150 C 
ATOM     33  C   UNL     1      32.202  -5.785 -24.599  0.00  0.00    +0.014 C 
ATOM     34  C   UNL     1      33.219  -6.006 -25.528  0.00  0.00    +0.031 C 
ENDBRANCH  24  29
ENDBRANCH  23  24
ENDBRANCH   5  23
TORSDOF 5
ENDMDL
MODEL 4
REMARK VINA RESULT:     -10.8      9.134     14.025
REMARK  Name = 11626560
REMARK  5 active torsions:
REMARK  status: ('A' for Active; 'I' for Inactive)
REMARK    1  A    between atoms: C_2  and  C_10
REMARK    2  A    between atoms: C_5  and  O_23
REMARK    3  A    between atoms: N_7  and  C_13
REMARK    4  A    between atoms: O_23  and  C_24
REMARK    5  A    between atoms: C_24  and  C_29
REMARK                            x       y       z     vdW  Elec       q    Type
REMARK                         _______ _______ _______ _____ _____    ______ ____
ROOT
ATOM      1  N   UNL     1      31.739 -12.035 -19.723  0.00  0.00    -0.226 NA
ATOM      2  C   UNL     1      32.618 -12.578 -21.912  0.00  0.00    +0.025 C 
ATOM      3  C   UNL     1      32.498 -11.244 -22.294  0.00  0.00    +0.041 C 
ATOM      4  C   UNL     1      32.227 -12.917 -20.626  0.00  0.00    +0.101 C 
ATOM      5  C   UNL     1      32.001 -10.308 -21.395  0.00  0.00    +0.170 C 
ATOM      6  C   UNL     1      31.638 -10.751 -20.133  0.00  0.00    +0.160 C 
ATOM      7  N   UNL     1      31.133  -9.798 -19.214  0.00  0.00    -0.340 N 
ATOM      8  H   UNL     1      30.866 -10.079 -18.309  0.00  0.00    +0.144 HD
ATOM      9  H   UNL     1      31.048  -8.854 -19.481  0.00  0.00    +0.144 HD
ENDROOT
BRANCH   2  13
ATOM     10  N   UNL     1      34.045 -15.389 -23.575  0.00  0.00    -0.212 N 
ATOM     11  N   UNL     1      33.736 -14.714 -24.692  0.00  0.00    -0.176 NA
ATOM     12  C   UNL     1      33.701 -14.748 -22.424  0.00  0.00    +0.086 C 
ATOM     13  C   UNL     1      33.126 -13.563 -22.815  0.00  0.00    +0.039 C 
ATOM     14  C   UNL     1      33.175 -13.596 -24.223  0.00  0.00    +0.119 C 
BRANCH  10  16
ATOM     15  N   UNL     1      34.950 -19.547 -23.068  0.00  0.00    +0.384 N 
ATOM     16  C   UNL     1      34.694 -16.700 -23.676  0.00  0.00    +0.092 C 
ATOM     17  C   UNL     1      33.789 -17.760 -24.325  0.00  0.00    -0.002 C 
ATOM     18  C   UNL     1      35.230 -17.204 -22.327  0.00  0.00    -0.002 C 
ATOM     19  C   UNL     1      34.496 -19.114 -24.390  0.00  0.00    -0.080 C 
ATOM     20  C   UNL     1      35.876 -18.581 -22.476  0.00  0.00    -0.080 C 
ATOM     21  H   UNL     1      35.423 -20.447 -23.157  0.00  0.00    -0.085 HD
ATOM     22  H   UNL     1      34.136 -19.624 -22.458  0.00  0.00    -0.085 HD
ENDBRANCH  10  16
ENDBRANCH   2  13
BRANCH   5  23
ATOM     23  O   UNL     1      31.884  -9.007 -21.767  0.00  0.00    -0.472 OA
BRANCH  23  24
ATOM     24  C   UNL     1      33.082  -8.231 -21.810  0.00  0.00    +0.190 C 
ATOM     25  C   UNL     1      33.211  -7.426 -20.521  0.00  0.00    +0.052 C 
BRANCH  24  29
ATOM     26 CL   UNL     1      30.788  -6.236 -22.006  0.00  0.00    -0.080 Cl
ATOM     27 CL   UNL     1      35.335  -8.620 -23.832  0.00  0.00    -0.082 Cl
ATOM     28  F   UNL     1      31.046  -4.686 -24.486  0.00  0.00    -0.203 F 
ATOM     29  C   UNL     1      33.058  -7.344 -23.033  0.00  0.00    +0.041 C 
ATOM     30  C   UNL     1      32.039  -6.413 -23.184  0.00  0.00    +0.085 C 
ATOM     31  C   UNL     1      34.056  -7.472 -23.991  0.00  0.00    +0.058 C 
ATOM     32  C   UNL     1      32.017  -5.594 -24.314  0.00  0.00    +0.150 C 
ATOM     33  C   UNL     1      34.033  -6.653 -25.120  0.00  0.00    +0.014 C 
ATOM     34  C   UNL     1      33.014  -5.715 -25.282  0.00  0.00    +0.031 C 
ENDBRANCH  24  29
ENDBRANCH  23  24
ENDBRANCH   5  23
TORSDOF 5
ENDMDL
MODEL 5
REMARK VINA RESULT:     -10.7      7.995     12.294
REMARK  Name = 11626560
REMARK  5 active torsions:
REMARK  status: ('A' for Active; 'I' for Inactive)
REMARK    1  A    between atoms: C_2  and  C_10
REMARK    2  A    between atoms: C_5  and  O_23
REMARK    3  A    between atoms: N_7  and  C_13
REMARK    4  A    between atoms: O_23  and  C_24
REMARK    5  A    between atoms: C_24  and  C_29
REMARK                            x       y       z     vdW  Elec       q    Type
REMARK                         _______ _______ _______ _____ _____    ______ ____
ROOT
ATOM      1  N   UNL     1      31.510 -11.164 -19.949  0.00  0.00    -0.226 NA
ATOM      2  C   UNL     1      31.675  -9.864 -21.984  0.00  0.00    +0.025 C 
ATOM      3  C   UNL     1      32.051 -11.006 -22.686  0.00  0.00    +0.041 C 
ATOM      4  C   UNL     1      31.418  -9.998 -20.628  0.00  0.00    +0.101 C 
ATOM      5  C   UNL     1      32.156 -12.223 -22.024  0.00  0.00    +0.170 C 
ATOM      6  C   UNL     1      31.878 -12.249 -20.666  0.00  0.00    +0.160 C 
ATOM      7  N   UNL     1      31.982 -13.489 -19.989  0.00  0.00    -0.340 N 
ATOM      8  H   UNL     1      31.791 -13.542 -19.025  0.00  0.00    +0.144 HD
ATOM      9  H   UNL     1      32.247 -14.299 -20.483  0.00  0.00    +0.144 HD
ENDROOT
BRANCH   2  13
ATOM     10  N   UNL     1      31.302  -6.457 -22.961  0.00  0.00    -0.212 N 
ATOM     11  N   UNL     1      31.461  -6.937 -24.203  0.00  0.00    -0.176 NA
ATOM     12  C   UNL     1      31.353  -7.407 -21.987  0.00  0.00    +0.086 C 
ATOM     13  C   UNL     1      31.558  -8.598 -22.638  0.00  0.00    +0.039 C 
ATOM     14  C   UNL     1      31.617  -8.248 -24.002  0.00  0.00    +0.119 C 
BRANCH  10  16
ATOM     15  N   UNL     1      31.978  -2.232 -22.722  0.00  0.00    +0.384 N 
ATOM     16  C   UNL     1      31.100  -5.019 -22.760  0.00  0.00    +0.092 C 
ATOM     17  C   UNL     1      31.298  -4.206 -24.049  0.00  0.00    -0.002 C 
ATOM     18  C   UNL     1      31.967  -4.449 -21.626  0.00  0.00    -0.002 C 
ATOM     19  C   UNL     1      31.100  -2.713 -23.789  0.00  0.00    -0.080 C 
ATOM     20  C   UNL     1      31.740  -2.946 -21.468  0.00  0.00    -0.080 C 
ATOM     21  H   UNL     1      31.807  -1.237 -22.575  0.00  0.00    -0.085 HD
ATOM     22  H   UNL     1      32.945  -2.396 -23.005  0.00  0.00    -0.085 HD
ENDBRANCH  10  16
ENDBRANCH   2  13
BRANCH   5  23
ATOM     23  O   UNL     1      32.522 -13.338 -22.709  0.00  0.00    -0.472 OA
BRANCH  23  24
ATOM     24  C   UNL     1      33.907 -13.483 -23.027  0.00  0.00    +0.190 C 
ATOM     25  C   UNL     1      34.216 -12.709 -24.304  0.00  0.00    +0.052 C 
BRANCH  24  29
ATOM     26 CL   UNL     1      34.895 -14.894 -20.514  0.00  0.00    -0.080 Cl
ATOM     27 CL   UNL     1      33.515 -14.734 -25.784  0.00  0.00    -0.082 Cl
ATOM     28  F   UNL     1      35.437 -17.714 -21.122  0.00  0.00    -0.203 F 
ATOM     29  C   UNL     1      34.236 -14.952 -23.160  0.00  0.00    +0.041 C 
ATOM     30  C   UNL     1      34.692 -15.655 -22.052  0.00  0.00    +0.085 C 
ATOM     31  C   UNL     1      34.079 -15.581 -24.389  0.00  0.00    +0.058 C 
ATOM     32  C   UNL     1      34.996 -17.011 -22.175  0.00  0.00    +0.150 C 
ATOM     33  C   UNL     1      34.383 -16.936 -24.511  0.00  0.00    +0.014 C 
ATOM     34  C   UNL     1      34.842 -17.651 -23.405  0.00  0.00    +0.031 C 
ENDBRANCH  24  29
ENDBRANCH  23  24
ENDBRANCH   5  23
TORSDOF 5
ENDMDL
MODEL 6
REMARK VINA RESULT:     -10.6      1.315      1.879
REMARK  Name = 11626560
REMARK  5 active torsions:
REMARK  status: ('A' for Active; 'I' for Inactive)
REMARK    1  A    between atoms: C_2  and  C_10
REMARK    2  A    between atoms: C_5  and  O_23
REMARK    3  A    between atoms: N_7  and  C_13
REMARK    4  A    between atoms: O_23  and  C_24
REMARK    5  A    between atoms: C_24  and  C_29
REMARK                            x       y       z     vdW  Elec       q    Type
REMARK                         _______ _______ _______ _____ _____    ______ ____
ROOT
ATOM      1  N   UNL     1      32.306 -22.925 -17.546  0.00  0.00    -0.226 NA
ATOM      2  C   UNL     1      34.219 -21.915 -18.631  0.00  0.00    +0.025 C 
ATOM      3  C   UNL     1      35.072 -22.576 -17.751  0.00  0.00    +0.041 C 
ATOM      4  C   UNL     1      32.856 -22.123 -18.485  0.00  0.00    +0.101 C 
ATOM      5  C   UNL     1      34.545 -23.409 -16.771  0.00  0.00    +0.170 C 
ATOM      6  C   UNL     1      33.167 -23.549 -16.711  0.00  0.00    +0.160 C 
ATOM      7  N   UNL     1      32.628 -24.401 -15.715  0.00  0.00    -0.340 N 
ATOM      8  H   UNL     1      31.654 -24.522 -15.644  0.00  0.00    +0.144 HD
ATOM      9  H   UNL     1      33.229 -24.871 -15.091  0.00  0.00    +0.144 HD
ENDROOT
BRANCH   2  13
ATOM     10  N   UNL     1      34.825 -19.553 -21.230  0.00  0.00    -0.212 N 
ATOM     11  N   UNL     1      36.101 -19.948 -21.106  0.00  0.00    -0.176 NA
ATOM     12  C   UNL     1      33.964 -20.179 -20.382  0.00  0.00    +0.086 C 
ATOM     13  C   UNL     1      34.732 -21.050 -19.648  0.00  0.00    +0.039 C 
ATOM     14  C   UNL     1      36.039 -20.865 -20.138  0.00  0.00    +0.119 C 
BRANCH  10  16
ATOM     15  N   UNL     1      35.024 -16.828 -24.532  0.00  0.00    +0.384 N 
ATOM     16  C   UNL     1      34.476 -18.527 -22.218  0.00  0.00    +0.092 C 
ATOM     17  C   UNL     1      34.455 -19.070 -23.656  0.00  0.00    -0.002 C 
ATOM     18  C   UNL     1      35.375 -17.283 -22.126  0.00  0.00    -0.002 C 
ATOM     19  C   UNL     1      34.110 -17.964 -24.652  0.00  0.00    -0.080 C 
ATOM     20  C   UNL     1      34.990 -16.252 -23.188  0.00  0.00    -0.080 C 
ATOM     21  H   UNL     1      34.753 -16.111 -25.206  0.00  0.00    -0.085 HD
ATOM     22  H   UNL     1      35.971 -17.158 -24.715  0.00  0.00    -0.085 HD
ENDBRANCH  10  16
ENDBRANCH   2  13
BRANCH   5  23
ATOM     23  O   UNL     1      35.377 -24.056 -15.913  0.00  0.00    -0.472 OA
BRANCH  23  24
ATOM     24  C   UNL     1      35.965 -23.282 -14.867  0.00  0.00    +0.190 C 
ATOM     25  C   UNL     1      36.997 -22.330 -15.461  0.00  0.00    +0.052 C 
BRANCH  24  29
ATOM     26 CL   UNL     1      38.854 -24.130 -15.335  0.00  0.00    -0.080 Cl
ATOM     27 CL   UNL     1      34.175 -24.119 -12.540  0.00  0.00    -0.082 Cl
ATOM     28  F   UNL     1      39.713 -25.919 -13.172  0.00  0.00    -0.203 F 
ATOM     29  C   UNL     1      36.573 -24.211 -13.842  0.00  0.00    +0.041 C 
ATOM     30  C   UNL     1      37.886 -24.636 -13.996  0.00  0.00    +0.085 C 
ATOM     31  C   UNL     1      35.811 -24.628 -12.758  0.00  0.00    +0.058 C 
ATOM     32  C   UNL     1      38.447 -25.493 -13.049  0.00  0.00    +0.150 C 
ATOM     33  C   UNL     1      36.372 -25.486 -11.813  0.00  0.00    +0.014 C 
ATOM     34  C   UNL     1      37.689 -25.918 -11.958  0.00  0.00    +0.031 C 
ENDBRANCH  24  29
ENDBRANCH  23  24
ENDBRANCH   5  23
TORSDOF 5
ENDMDL
MODEL 7
REMARK VINA RESULT:     -10.5      3.633      5.527
REMARK  Name = 11626560
REMARK  5 active torsions:
REMARK  status: ('A' for Active; 'I' for Inactive)
REMARK    1  A    between atoms: C_2  and  C_10
REMARK    2  A    between atoms: C_5  and  O_23
REMARK    3  A    between atoms: N_7  and  C_13
REMARK    4  A    between atoms: O_23  and  C_24
REMARK    5  A    between atoms: C_24  and  C_29
REMARK                            x       y       z     vdW  Elec       q    Type
REMARK                         _______ _______ _______ _____ _____    ______ ____
ROOT
ATOM      1  N   UNL     1      37.131 -24.475 -14.403  0.00  0.00    -0.226 NA
ATOM      2  C   UNL     1      36.295 -22.936 -16.074  0.00  0.00    +0.025 C 
ATOM      3  C   UNL     1      34.988 -23.294 -15.754  0.00  0.00    +0.041 C 
ATOM      4  C   UNL     1      37.321 -23.552 -15.373  0.00  0.00    +0.101 C 
ATOM      5  C   UNL     1      34.751 -24.239 -14.763  0.00  0.00    +0.170 C 
ATOM      6  C   UNL     1      35.847 -24.795 -14.122  0.00  0.00    +0.160 C 
ATOM      7  N   UNL     1      35.609 -25.756 -13.110  0.00  0.00    -0.340 N 
ATOM      8  H   UNL     1      36.365 -26.171 -12.635  0.00  0.00    +0.144 HD
ATOM      9  H   UNL     1      34.685 -26.011 -12.880  0.00  0.00    +0.144 HD
ENDROOT
BRANCH   2  13
ATOM     10  N   UNL     1      36.497 -20.879 -18.978  0.00  0.00    -0.212 N 
ATOM     11  N   UNL     1      37.410 -20.200 -18.267  0.00  0.00    -0.176 NA
ATOM     12  C   UNL     1      35.961 -21.944 -18.321  0.00  0.00    +0.086 C 
ATOM     13  C   UNL     1      36.569 -21.967 -17.089  0.00  0.00    +0.039 C 
ATOM     14  C   UNL     1      37.452 -20.870 -17.113  0.00  0.00    +0.119 C 
BRANCH  10  16
ATOM     15  N   UNL     1      35.045 -18.566 -22.281  0.00  0.00    +0.384 N 
ATOM     16  C   UNL     1      36.162 -20.440 -20.336  0.00  0.00    +0.092 C 
ATOM     17  C   UNL     1      36.889 -19.146 -20.737  0.00  0.00    -0.002 C 
ATOM     18  C   UNL     1      34.648 -20.298 -20.558  0.00  0.00    -0.002 C 
ATOM     19  C   UNL     1      36.494 -18.715 -22.149  0.00  0.00    -0.080 C 
ATOM     20  C   UNL     1      34.348 -19.817 -21.978  0.00  0.00    -0.080 C 
ATOM     21  H   UNL     1      34.824 -18.288 -23.237  0.00  0.00    -0.085 HD
ATOM     22  H   UNL     1      34.733 -17.858 -21.616  0.00  0.00    -0.085 HD
ENDBRANCH  10  16
ENDBRANCH   2  13
BRANCH   5  23
ATOM     23  O   UNL     1      33.476 -24.588 -14.450  0.00  0.00    -0.472 OA
BRANCH  23  24
ATOM     24  C   UNL     1      32.527 -23.530 -14.306  0.00  0.00    +0.190 C 
ATOM     25  C   UNL     1      32.450 -23.113 -12.842  0.00  0.00    +0.052 C 
BRANCH  24  29
ATOM     26 CL   UNL     1      30.900 -25.373 -12.506  0.00  0.00    -0.080 Cl
ATOM     27 CL   UNL     1      31.727 -22.516 -17.072  0.00  0.00    -0.082 Cl
ATOM     28  F   UNL     1      28.375 -26.063 -13.833  0.00  0.00    -0.203 F 
ATOM     29  C   UNL     1      31.188 -23.988 -14.837  0.00  0.00    +0.041 C 
ATOM     30  C   UNL     1      30.397 -24.830 -14.066  0.00  0.00    +0.085 C 
ATOM     31  C   UNL     1      30.765 -23.561 -16.089  0.00  0.00    +0.058 C 
ATOM     32  C   UNL     1      29.160 -25.251 -14.556  0.00  0.00    +0.150 C 
ATOM     33  C   UNL     1      29.530 -23.983 -16.579  0.00  0.00    +0.014 C 
ATOM     34  C   UNL     1      28.728 -24.829 -15.813  0.00  0.00    +0.031 C 
ENDBRANCH  24  29
ENDBRANCH  23  24
ENDBRANCH   5  23
TORSDOF 5
ENDMDL
MODEL 8
REMARK VINA RESULT:     -10.4      8.219     12.287
REMARK  Name = 11626560
REMARK  5 active torsions:
REMARK  status: ('A' for Active; 'I' for Inactive)
REMARK    1  A    between atoms: C_2  and  C_10
REMARK    2  A    between atoms: C_5  and  O_23
REMARK    3  A    between atoms: N_7  and  C_13
REMARK    4  A    between atoms: O_23  and  C_24
REMARK    5  A    between atoms: C_24  and  C_29
REMARK                            x       y       z     vdW  Elec       q    Type
REMARK                         _______ _______ _______ _____ _____    ______ ____
ROOT
ATOM      1  N   UNL     1      31.568 -11.405 -19.584  0.00  0.00    -0.226 NA
ATOM      2  C   UNL     1      31.752  -9.685 -21.277  0.00  0.00    +0.025 C 
ATOM      3  C   UNL     1      32.088 -10.649 -22.224  0.00  0.00    +0.041 C 
ATOM      4  C   UNL     1      31.504 -10.114 -19.982  0.00  0.00    +0.101 C 
ATOM      5  C   UNL     1      32.165 -11.986 -21.854  0.00  0.00    +0.170 C 
ATOM      6  C   UNL     1      31.898 -12.310 -20.533  0.00  0.00    +0.160 C 
ATOM      7  N   UNL     1      31.973 -13.673 -20.154  0.00  0.00    -0.340 N 
ATOM      8  H   UNL     1      31.790 -13.937 -19.223  0.00  0.00    +0.144 HD
ATOM      9  H   UNL     1      32.210 -14.358 -20.821  0.00  0.00    +0.144 HD
ENDROOT
BRANCH   2  13
ATOM     10  N   UNL     1      31.579  -6.475 -22.815  0.00  0.00    -0.212 N 
ATOM     11  N   UNL     1      31.497  -6.025 -21.554  0.00  0.00    -0.176 NA
ATOM     12  C   UNL     1      31.680  -7.829 -22.918  0.00  0.00    +0.086 C 
ATOM     13  C   UNL     1      31.666  -8.302 -21.628  0.00  0.00    +0.039 C 
ATOM     14  C   UNL     1      31.551  -7.146 -20.831  0.00  0.00    +0.119 C 
BRANCH  10  16
ATOM     15  N   UNL     1      32.617  -3.297 -25.497  0.00  0.00    +0.384 N 
ATOM     16  C   UNL     1      31.551  -5.521 -23.929  0.00  0.00    +0.092 C 
ATOM     17  C   UNL     1      32.743  -5.690 -24.885  0.00  0.00    -0.002 C 
ATOM     18  C   UNL     1      31.442  -4.062 -23.458  0.00  0.00    -0.002 C 
ATOM     19  C   UNL     1      32.686  -4.663 -26.015  0.00  0.00    -0.080 C 
ATOM     20  C   UNL     1      31.440  -3.103 -24.649  0.00  0.00    -0.080 C 
ATOM     21  H   UNL     1      32.570  -2.646 -26.281  0.00  0.00    -0.085 HD
ATOM     22  H   UNL     1      33.449  -3.126 -24.932  0.00  0.00    -0.085 HD
ENDBRANCH  10  16
ENDBRANCH   2  13
BRANCH   5  23
ATOM     23  O   UNL     1      32.492 -12.928 -22.778  0.00  0.00    -0.472 OA
BRANCH  23  24
ATOM     24  C   UNL     1      33.880 -13.110 -23.060  0.00  0.00    +0.190 C 
ATOM     25  C   UNL     1      34.261 -12.287 -24.285  0.00  0.00    +0.052 C 
BRANCH  24  29
ATOM     26 CL   UNL     1      34.937 -14.634 -20.642  0.00  0.00    -0.080 Cl
ATOM     27 CL   UNL     1      33.328 -14.254 -25.835  0.00  0.00    -0.082 Cl
ATOM     28  F   UNL     1      35.366 -17.446 -21.368  0.00  0.00    -0.203 F 
ATOM     29  C   UNL     1      34.159 -14.582 -23.256  0.00  0.00    +0.041 C 
ATOM     30  C   UNL     1      34.643 -15.335 -22.194  0.00  0.00    +0.085 C 
ATOM     31  C   UNL     1      33.928 -15.164 -24.496  0.00  0.00    +0.058 C 
ATOM     32  C   UNL     1      34.900 -16.694 -22.375  0.00  0.00    +0.150 C 
ATOM     33  C   UNL     1      34.186 -16.522 -24.677  0.00  0.00    +0.014 C 
ATOM     34  C   UNL     1      34.672 -17.287 -23.617  0.00  0.00    +0.031 C 
ENDBRANCH  24  29
ENDBRANCH  23  24
ENDBRANCH   5  23
TORSDOF 5
ENDMDL
MODEL 9
REMARK VINA RESULT:     -10.4      3.649      4.870
REMARK  Name = 11626560
REMARK  5 active torsions:
REMARK  status: ('A' for Active; 'I' for Inactive)
REMARK    1  A    between atoms: C_2  and  C_10
REMARK    2  A    between atoms: C_5  and  O_23
REMARK    3  A    between atoms: N_7  and  C_13
REMARK    4  A    between atoms: O_23  and  C_24
REMARK    5  A    between atoms: C_24  and  C_29
REMARK                            x       y       z     vdW  Elec       q    Type
REMARK                         _______ _______ _______ _____ _____    ______ ____
ROOT
ATOM      1  N   UNL     1      36.597 -22.998 -16.460  0.00  0.00    -0.226 NA
ATOM      2  C   UNL     1      34.807 -22.249 -17.906  0.00  0.00    +0.025 C 
ATOM      3  C   UNL     1      33.880 -22.912 -17.107  0.00  0.00    +0.041 C 
ATOM      4  C   UNL     1      36.143 -22.325 -17.541  0.00  0.00    +0.101 C 
ATOM      5  C   UNL     1      34.308 -23.616 -15.988  0.00  0.00    +0.170 C 
ATOM      6  C   UNL     1      35.665 -23.628 -15.710  0.00  0.00    +0.160 C 
ATOM      7  N   UNL     1      36.104 -24.343 -14.567  0.00  0.00    -0.340 N 
ATOM      8  H   UNL     1      37.061 -24.372 -14.342  0.00  0.00    +0.144 HD
ATOM      9  H   UNL     1      35.450 -24.812 -13.999  0.00  0.00    +0.144 HD
ENDROOT
BRANCH   2  13
ATOM     10  N   UNL     1      34.471 -20.274 -20.854  0.00  0.00    -0.212 N 
ATOM     11  N   UNL     1      33.167 -20.565 -20.737  0.00  0.00    -0.176 NA
ATOM     12  C   UNL     1      35.252 -20.819 -19.882  0.00  0.00    +0.086 C 
ATOM     13  C   UNL     1      34.397 -21.518 -19.065  0.00  0.00    +0.039 C 
ATOM     14  C   UNL     1      33.126 -21.325 -19.640  0.00  0.00    +0.119 C 
BRANCH  10  16
ATOM     15  N   UNL     1      34.658 -17.240 -23.875  0.00  0.00    +0.384 N 
ATOM     16  C   UNL     1      34.930 -19.436 -21.967  0.00  0.00    +0.092 C 
ATOM     17  C   UNL     1      35.134 -17.969 -21.560  0.00  0.00    -0.002 C 
ATOM     18  C   UNL     1      34.015 -19.531 -23.198  0.00  0.00    -0.002 C 
ATOM     19  C   UNL     1      35.590 -17.130 -22.753  0.00  0.00    -0.080 C 
ATOM     20  C   UNL     1      34.518 -18.626 -24.323  0.00  0.00    -0.080 C 
ATOM     21  H   UNL     1      35.003 -16.675 -24.651  0.00  0.00    -0.085 HD
ATOM     22  H   UNL     1      33.743 -16.911 -23.565  0.00  0.00    -0.085 HD
ENDBRANCH  10  16
ENDBRANCH   2  13
BRANCH   5  23
ATOM     23  O   UNL     1      33.403 -24.262 -15.207  0.00  0.00    -0.472 OA
BRANCH  23  24
ATOM     24  C   UNL     1      32.385 -23.469 -14.595  0.00  0.00    +0.190 C 
ATOM     25  C   UNL     1      32.708 -23.281 -13.117  0.00  0.00    +0.052 C 
BRANCH  24  29
ATOM     26 CL   UNL     1      30.654 -22.379 -16.853  0.00  0.00    -0.080 Cl
ATOM     27 CL   UNL     1      31.685 -25.766 -12.711  0.00  0.00    -0.082 Cl
ATOM     28  F   UNL     1      28.139 -23.887 -16.976  0.00  0.00    -0.203 F 
ATOM     29  C   UNL     1      31.044 -24.134 -14.803  0.00  0.00    +0.041 C 
ATOM     30  C   UNL     1      30.206 -23.685 -15.815  0.00  0.00    +0.085 C 
ATOM     31  C   UNL     1      30.666 -25.186 -13.978  0.00  0.00    +0.058 C 
ATOM     32  C   UNL     1      28.968 -24.299 -16.007  0.00  0.00    +0.150 C 
ATOM     33  C   UNL     1      29.429 -25.799 -14.170  0.00  0.00    +0.014 C 
ATOM     34  C   UNL     1      28.579 -25.356 -15.183  0.00  0.00    +0.031 C 
ENDBRANCH  24  29
ENDBRANCH  23  24
ENDBRANCH   5  23
TORSDOF 5
ENDMDL
