MODEL 1
REMARK VINA RESULT:     -12.7      0.000      0.000
REMARK  Name = 448408
REMARK  8 active torsions:
REMARK  status: ('A' for Active; 'I' for Inactive)
REMARK    1  A    between atoms: N_2  and  C_25
REMARK    2  A    between atoms: C_3  and  C_6
REMARK    3  A    between atoms: C_5  and  N_12
REMARK    4  A    between atoms: C_25  and  C_26
REMARK    5  A    between atoms: C_27  and  S_32
REMARK    6  A    between atoms: S_32  and  C_33
REMARK    7  A    between atoms: C_34  and  C_39
REMARK    8  A    between atoms: C_39  and  O_40
REMARK                            x       y       z     vdW  Elec       q    Type
REMARK                         _______ _______ _______ _____ _____    ______ ____
ROOT
ATOM      1  O   UNL     1      37.586 -19.540 -19.381  0.00  0.00    -0.270 OA
ATOM      2  N   UNL     1      35.925 -21.157 -19.359  0.00  0.00    -0.297 N 
ATOM      3  C   UNL     1      36.542 -20.009 -19.868  0.00  0.00    +0.246 C 
ATOM      4  H   UNL     1      35.100 -21.473 -19.793  0.00  0.00    +0.150 HD
ENDROOT
BRANCH   3   6
ATOM      5  C   UNL     1      35.073 -17.327 -22.060  0.00  0.00    +0.090 C 
ATOM      6  C   UNL     1      35.894 -19.354 -20.993  0.00  0.00    +0.055 C 
ATOM      7  C   UNL     1      35.698 -17.973 -20.979  0.00  0.00    +0.023 C 
ATOM      8  C   UNL     1      34.648 -18.101 -23.152  0.00  0.00    +0.018 C 
ATOM      9  C   UNL     1      35.466 -20.109 -22.087  0.00  0.00    +0.005 C 
ATOM     10  C   UNL     1      34.844 -19.482 -23.165  0.00  0.00    +0.002 C 
BRANCH   5  12
ATOM     11  O   UNL     1      32.283 -13.537 -19.859  0.00  0.00    -0.207 OA
ATOM     12  N   UNL     1      34.878 -15.950 -22.046  0.00  0.00    -0.137 N 
ATOM     13  N   UNL     1      34.943 -15.147 -23.141  0.00  0.00    -0.215 N 
ATOM     14  N   UNL     1      34.048 -15.408 -21.068  0.00  0.00    -0.143 NA
ATOM     15  N   UNL     1      33.831 -12.994 -23.551  0.00  0.00    -0.309 NA
ATOM     16  N   UNL     1      32.430 -12.205 -21.751  0.00  0.00    -0.251 NA
ATOM     17  N   UNL     1      32.651 -10.958 -23.686  0.00  0.00    -0.283 N 
ATOM     18  C   UNL     1      34.164 -14.059 -22.923  0.00  0.00    +0.243 C 
ATOM     19  C   UNL     1      33.622 -14.293 -21.575  0.00  0.00    +0.241 C 
ATOM     20  C   UNL     1      32.714 -13.307 -20.979  0.00  0.00    +0.239 C 
ATOM     21  C   UNL     1      32.962 -12.078 -22.950  0.00  0.00    +0.208 C 
ATOM     22  H   UNL     1      35.467 -15.326 -23.956  0.00  0.00    +0.175 HD
ATOM     23  H   UNL     1      33.034 -10.836 -24.585  0.00  0.00    +0.156 HD
ATOM     24  H   UNL     1      32.044 -10.278 -23.314  0.00  0.00    +0.156 HD
ENDBRANCH   5  12
ENDBRANCH   3   6
BRANCH   2  25
ATOM     25  C   UNL     1      36.433 -21.904 -18.230  0.00  0.00    +0.117 C 
BRANCH  25  26
ATOM     26  C   UNL     1      35.329 -22.521 -17.422  0.00  0.00    +0.003 C 
ATOM     27  C   UNL     1      35.533 -22.962 -16.118  0.00  0.00    +0.027 C 
ATOM     28  C   UNL     1      34.077 -22.641 -18.019  0.00  0.00    -0.002 C 
ATOM     29  C   UNL     1      34.477 -23.530 -15.405  0.00  0.00    +0.006 C 
ATOM     30  C   UNL     1      33.021 -23.209 -17.306  0.00  0.00    -0.000 C 
ATOM     31  C   UNL     1      33.221 -23.652 -16.000  0.00  0.00    +0.000 C 
BRANCH  27  32
ATOM     32  S   UNL     1      37.123 -22.827 -15.313  0.00  0.00    -0.087 S 
BRANCH  32  33
ATOM     33  C   UNL     1      37.146 -24.329 -14.345  0.00  0.00    +0.028 C 
ATOM     34  C   UNL     1      37.207 -24.303 -12.950  0.00  0.00    +0.013 C 
ATOM     35  C   UNL     1      37.103 -25.552 -15.016  0.00  0.00    +0.006 C 
ATOM     36  C   UNL     1      37.223 -25.497 -12.230  0.00  0.00    -0.001 C 
ATOM     37  C   UNL     1      37.119 -26.746 -14.295  0.00  0.00    +0.000 C 
ATOM     38  C   UNL     1      37.179 -26.718 -12.902  0.00  0.00    -0.000 C 
BRANCH  34  39
ATOM     39  C   UNL     1      37.255 -23.020 -12.184  0.00  0.00    +0.164 C 
BRANCH  39  40
ATOM     40  O   UNL     1      38.324 -23.074 -11.248  0.00  0.00    -0.377 OA
ATOM     41  H   UNL     1      38.151 -22.452 -10.524  0.00  0.00    +0.211 HD
ENDBRANCH  39  40
ENDBRANCH  34  39
ENDBRANCH  32  33
ENDBRANCH  27  32
ENDBRANCH  25  26
ENDBRANCH   2  25
TORSDOF 8
ENDMDL
MODEL 2
REMARK VINA RESULT:     -12.4      2.132      3.103
REMARK  Name = 448408
REMARK  8 active torsions:
REMARK  status: ('A' for Active; 'I' for Inactive)
REMARK    1  A    between atoms: N_2  and  C_25
REMARK    2  A    between atoms: C_3  and  C_6
REMARK    3  A    between atoms: C_5  and  N_12
REMARK    4  A    between atoms: C_25  and  C_26
REMARK    5  A    between atoms: C_27  and  S_32
REMARK    6  A    between atoms: S_32  and  C_33
REMARK    7  A    between atoms: C_34  and  C_39
REMARK    8  A    between atoms: C_39  and  O_40
REMARK                            x       y       z     vdW  Elec       q    Type
REMARK                         _______ _______ _______ _____ _____    ______ ____
ROOT
ATOM      1  O   UNL     1      32.715 -21.540 -19.886  0.00  0.00    -0.270 OA
ATOM      2  N   UNL     1      34.070 -22.742 -18.438  0.00  0.00    -0.297 N 
ATOM      3  C   UNL     1      33.835 -21.733 -19.380  0.00  0.00    +0.246 C 
ATOM      4  H   UNL     1      34.981 -22.840 -18.078  0.00  0.00    +0.150 HD
ENDROOT
BRANCH   3   6
ATOM      5  C   UNL     1      35.882 -19.029 -21.009  0.00  0.00    +0.090 C 
ATOM      6  C   UNL     1      34.974 -20.918 -19.772  0.00  0.00    +0.055 C 
ATOM      7  C   UNL     1      34.791 -19.826 -20.620  0.00  0.00    +0.023 C 
ATOM      8  C   UNL     1      37.160 -19.357 -20.526  0.00  0.00    +0.018 C 
ATOM      9  C   UNL     1      36.250 -21.230 -19.301  0.00  0.00    +0.005 C 
ATOM     10  C   UNL     1      37.342 -20.450 -19.677  0.00  0.00    +0.002 C 
BRANCH   5  12
ATOM     11  O   UNL     1      34.140 -14.138 -21.177  0.00  0.00    -0.207 OA
ATOM     12  N   UNL     1      35.700 -17.940 -21.853  0.00  0.00    -0.137 N 
ATOM     13  N   UNL     1      35.330 -18.024 -23.159  0.00  0.00    -0.215 N 
ATOM     14  N   UNL     1      35.310 -16.726 -21.293  0.00  0.00    -0.143 NA
ATOM     15  N   UNL     1      34.133 -16.379 -24.539  0.00  0.00    -0.309 NA
ATOM     16  N   UNL     1      33.535 -14.333 -23.407  0.00  0.00    -0.251 NA
ATOM     17  N   UNL     1      32.981 -14.638 -25.632  0.00  0.00    -0.283 N 
ATOM     18  C   UNL     1      34.690 -16.878 -23.499  0.00  0.00    +0.243 C 
ATOM     19  C   UNL     1      34.714 -16.093 -22.255  0.00  0.00    +0.241 C 
ATOM     20  C   UNL     1      34.102 -14.759 -22.229  0.00  0.00    +0.239 C 
ATOM     21  C   UNL     1      33.560 -15.106 -24.475  0.00  0.00    +0.208 C 
ATOM     22  H   UNL     1      35.499 -18.788 -23.757  0.00  0.00    +0.175 HD
ATOM     23  H   UNL     1      32.986 -15.193 -26.445  0.00  0.00    +0.156 HD
ATOM     24  H   UNL     1      32.562 -13.747 -25.647  0.00  0.00    +0.156 HD
ENDBRANCH   5  12
ENDBRANCH   3   6
BRANCH   2  25
ATOM     25  C   UNL     1      33.047 -23.648 -17.966  0.00  0.00    +0.117 C 
BRANCH  25  26
ATOM     26  C   UNL     1      32.745 -23.443 -16.510  0.00  0.00    +0.003 C 
ATOM     27  C   UNL     1      33.747 -23.456 -15.544  0.00  0.00    +0.027 C 
ATOM     28  C   UNL     1      31.418 -23.238 -16.145  0.00  0.00    -0.002 C 
ATOM     29  C   UNL     1      33.419 -23.262 -14.202  0.00  0.00    +0.006 C 
ATOM     30  C   UNL     1      31.089 -23.044 -14.804  0.00  0.00    -0.000 C 
ATOM     31  C   UNL     1      32.089 -23.055 -13.833  0.00  0.00    +0.000 C 
BRANCH  27  32
ATOM     32  S   UNL     1      35.465 -23.716 -15.967  0.00  0.00    -0.087 S 
BRANCH  32  33
ATOM     33  C   UNL     1      36.143 -24.178 -14.380  0.00  0.00    +0.028 C 
ATOM     34  C   UNL     1      36.343 -25.514 -14.028  0.00  0.00    +0.013 C 
ATOM     35  C   UNL     1      36.475 -23.164 -13.480  0.00  0.00    +0.006 C 
ATOM     36  C   UNL     1      36.875 -25.834 -12.779  0.00  0.00    -0.001 C 
ATOM     37  C   UNL     1      37.006 -23.485 -12.231  0.00  0.00    +0.000 C 
ATOM     38  C   UNL     1      37.207 -24.820 -11.881  0.00  0.00    -0.000 C 
BRANCH  34  39
ATOM     39  C   UNL     1      36.004 -26.636 -14.955  0.00  0.00    +0.164 C 
BRANCH  39  40
ATOM     40  O   UNL     1      37.174 -27.030 -15.660  0.00  0.00    -0.377 OA
ATOM     41  H   UNL     1      37.578 -26.253 -16.076  0.00  0.00    +0.211 HD
ENDBRANCH  39  40
ENDBRANCH  34  39
ENDBRANCH  32  33
ENDBRANCH  27  32
ENDBRANCH  25  26
ENDBRANCH   2  25
TORSDOF 8
ENDMDL
MODEL 3
REMARK VINA RESULT:     -12.0      3.609     11.455
REMARK  Name = 448408
REMARK  8 active torsions:
REMARK  status: ('A' for Active; 'I' for Inactive)
REMARK    1  A    between atoms: N_2  and  C_25
REMARK    2  A    between atoms: C_3  and  C_6
REMARK    3  A    between atoms: C_5  and  N_12
REMARK    4  A    between atoms: C_25  and  C_26
REMARK    5  A    between atoms: C_27  and  S_32
REMARK    6  A    between atoms: S_32  and  C_33
REMARK    7  A    between atoms: C_34  and  C_39
REMARK    8  A    between atoms: C_39  and  O_40
REMARK                            x       y       z     vdW  Elec       q    Type
REMARK                         _______ _______ _______ _____ _____    ______ ____
ROOT
ATOM      1  O   UNL     1      37.009 -20.699 -20.132  0.00  0.00    -0.270 OA
ATOM      2  N   UNL     1      35.112 -19.448 -20.595  0.00  0.00    -0.297 N 
ATOM      3  C   UNL     1      35.791 -20.502 -19.971  0.00  0.00    +0.246 C 
ATOM      4  H   UNL     1      34.147 -19.351 -20.424  0.00  0.00    +0.150 HD
ENDROOT
BRANCH   3   6
ATOM      5  C   UNL     1      34.839 -22.865 -17.203  0.00  0.00    +0.090 C 
ATOM      6  C   UNL     1      35.003 -21.390 -19.132  0.00  0.00    +0.055 C 
ATOM      7  C   UNL     1      35.588 -22.004 -18.024  0.00  0.00    +0.023 C 
ATOM      8  C   UNL     1      33.491 -23.096 -17.523  0.00  0.00    +0.018 C 
ATOM      9  C   UNL     1      33.662 -21.629 -19.435  0.00  0.00    +0.005 C 
ATOM     10  C   UNL     1      32.907 -22.481 -18.631  0.00  0.00    +0.002 C 
BRANCH   5  12
ATOM     11  O   UNL     1      33.877 -24.521 -12.373  0.00  0.00    -0.207 OA
ATOM     12  N   UNL     1      35.421 -23.476 -16.098  0.00  0.00    -0.137 N 
ATOM     13  N   UNL     1      36.697 -23.266 -15.678  0.00  0.00    -0.215 N 
ATOM     14  N   UNL     1      34.597 -23.860 -15.043  0.00  0.00    -0.143 NA
ATOM     15  N   UNL     1      37.638 -23.477 -13.418  0.00  0.00    -0.309 NA
ATOM     16  N   UNL     1      36.069 -24.151 -11.712  0.00  0.00    -0.251 NA
ATOM     17  N   UNL     1      38.281 -23.754 -11.167  0.00  0.00    -0.283 N 
ATOM     18  C   UNL     1      36.755 -23.503 -14.344  0.00  0.00    +0.243 C 
ATOM     19  C   UNL     1      35.373 -23.879 -14.005  0.00  0.00    +0.241 C 
ATOM     20  C   UNL     1      35.035 -24.215 -12.617  0.00  0.00    +0.239 C 
ATOM     21  C   UNL     1      37.278 -23.804 -12.107  0.00  0.00    +0.208 C 
ATOM     22  H   UNL     1      37.452 -22.989 -16.247  0.00  0.00    +0.175 HD
ATOM     23  H   UNL     1      39.194 -23.498 -11.433  0.00  0.00    +0.156 HD
ATOM     24  H   UNL     1      38.086 -23.974 -10.227  0.00  0.00    +0.156 HD
ENDBRANCH   5  12
ENDBRANCH   3   6
BRANCH   2  25
ATOM     25  C   UNL     1      35.750 -18.497 -21.476  0.00  0.00    +0.117 C 
BRANCH  25  26
ATOM     26  C   UNL     1      34.940 -18.250 -22.716  0.00  0.00    +0.003 C 
ATOM     27  C   UNL     1      34.786 -16.973 -23.249  0.00  0.00    +0.027 C 
ATOM     28  C   UNL     1      34.337 -19.345 -23.326  0.00  0.00    -0.002 C 
ATOM     29  C   UNL     1      34.022 -16.791 -24.401  0.00  0.00    +0.006 C 
ATOM     30  C   UNL     1      33.573 -19.163 -24.479  0.00  0.00    -0.000 C 
ATOM     31  C   UNL     1      33.416 -17.887 -25.017  0.00  0.00    +0.000 C 
BRANCH  27  32
ATOM     32  S   UNL     1      35.542 -15.538 -22.497  0.00  0.00    -0.087 S 
BRANCH  32  33
ATOM     33  C   UNL     1      34.120 -14.747 -21.760  0.00  0.00    +0.028 C 
ATOM     34  C   UNL     1      33.423 -13.729 -22.416  0.00  0.00    +0.013 C 
ATOM     35  C   UNL     1      33.707 -15.168 -20.495  0.00  0.00    +0.006 C 
ATOM     36  C   UNL     1      32.317 -13.137 -21.808  0.00  0.00    -0.001 C 
ATOM     37  C   UNL     1      32.601 -14.575 -19.887  0.00  0.00    +0.000 C 
ATOM     38  C   UNL     1      31.906 -13.559 -20.543  0.00  0.00    -0.000 C 
BRANCH  34  39
ATOM     39  C   UNL     1      33.824 -13.242 -23.771  0.00  0.00    +0.164 C 
BRANCH  39  40
ATOM     40  O   UNL     1      34.454 -11.974 -23.645  0.00  0.00    -0.377 OA
ATOM     41  H   UNL     1      35.289 -12.075 -23.161  0.00  0.00    +0.211 HD
ENDBRANCH  39  40
ENDBRANCH  34  39
ENDBRANCH  32  33
ENDBRANCH  27  32
ENDBRANCH  25  26
ENDBRANCH   2  25
TORSDOF 8
ENDMDL
MODEL 4
REMARK VINA RESULT:     -11.9      4.201     11.626
REMARK  Name = 448408
REMARK  8 active torsions:
REMARK  status: ('A' for Active; 'I' for Inactive)
REMARK    1  A    between atoms: N_2  and  C_25
REMARK    2  A    between atoms: C_3  and  C_6
REMARK    3  A    between atoms: C_5  and  N_12
REMARK    4  A    between atoms: C_25  and  C_26
REMARK    5  A    between atoms: C_27  and  S_32
REMARK    6  A    between atoms: S_32  and  C_33
REMARK    7  A    between atoms: C_34  and  C_39
REMARK    8  A    between atoms: C_39  and  O_40
REMARK                            x       y       z     vdW  Elec       q    Type
REMARK                         _______ _______ _______ _____ _____    ______ ____
ROOT
ATOM      1  O   UNL     1      33.809 -23.411 -19.721  0.00  0.00    -0.270 OA
ATOM      2  N   UNL     1      33.403 -21.199 -19.157  0.00  0.00    -0.297 N 
ATOM      3  C   UNL     1      33.487 -22.566 -18.867  0.00  0.00    +0.246 C 
ATOM      4  H   UNL     1      33.142 -20.585 -18.432  0.00  0.00    +0.150 HD
ENDROOT
BRANCH   3   6
ATOM      5  C   UNL     1      33.831 -23.928 -15.377  0.00  0.00    +0.090 C 
ATOM      6  C   UNL     1      33.155 -22.975 -17.512  0.00  0.00    +0.055 C 
ATOM      7  C   UNL     1      34.137 -23.527 -16.689  0.00  0.00    +0.023 C 
ATOM      8  C   UNL     1      32.516 -23.762 -14.912  0.00  0.00    +0.018 C 
ATOM      9  C   UNL     1      31.853 -22.817 -17.035  0.00  0.00    +0.005 C 
ATOM     10  C   UNL     1      31.534 -23.209 -15.736  0.00  0.00    +0.002 C 
BRANCH   5  12
ATOM     11  O   UNL     1      37.569 -22.724 -11.975  0.00  0.00    -0.207 OA
ATOM     12  N   UNL     1      34.810 -24.477 -14.556  0.00  0.00    -0.137 N 
ATOM     13  N   UNL     1      35.567 -25.562 -14.871  0.00  0.00    -0.215 N 
ATOM     14  N   UNL     1      35.472 -23.639 -13.663  0.00  0.00    -0.143 NA
ATOM     15  N   UNL     1      37.819 -26.159 -14.088  0.00  0.00    -0.309 NA
ATOM     16  N   UNL     1      38.816 -24.593 -12.545  0.00  0.00    -0.251 NA
ATOM     17  N   UNL     1      39.970 -26.493 -13.185  0.00  0.00    -0.283 N 
ATOM     18  C   UNL     1      36.743 -25.474 -14.201  0.00  0.00    +0.243 C 
ATOM     19  C   UNL     1      36.612 -24.217 -13.448  0.00  0.00    +0.241 C 
ATOM     20  C   UNL     1      37.713 -23.774 -12.584  0.00  0.00    +0.239 C 
ATOM     21  C   UNL     1      38.846 -25.703 -13.256  0.00  0.00    +0.208 C 
ATOM     22  H   UNL     1      35.305 -26.288 -15.482  0.00  0.00    +0.175 HD
ATOM     23  H   UNL     1      40.020 -27.328 -13.704  0.00  0.00    +0.156 HD
ATOM     24  H   UNL     1      40.726 -26.223 -12.615  0.00  0.00    +0.156 HD
ENDBRANCH   5  12
ENDBRANCH   3   6
BRANCH   2  25
ATOM     25  C   UNL     1      33.678 -20.640 -20.461  0.00  0.00    +0.117 C 
BRANCH  25  26
ATOM     26  C   UNL     1      35.098 -20.166 -20.581  0.00  0.00    +0.003 C 
ATOM     27  C   UNL     1      35.490 -19.266 -21.567  0.00  0.00    +0.027 C 
ATOM     28  C   UNL     1      36.025 -20.659 -19.667  0.00  0.00    -0.002 C 
ATOM     29  C   UNL     1      36.820 -18.854 -21.640  0.00  0.00    +0.006 C 
ATOM     30  C   UNL     1      37.356 -20.247 -19.741  0.00  0.00    -0.000 C 
ATOM     31  C   UNL     1      37.753 -19.345 -20.727  0.00  0.00    +0.000 C 
BRANCH  27  32
ATOM     32  S   UNL     1      34.332 -18.608 -22.760  0.00  0.00    -0.087 S 
BRANCH  32  33
ATOM     33  C   UNL     1      34.430 -16.860 -22.407  0.00  0.00    +0.028 C 
ATOM     34  C   UNL     1      34.428 -15.903 -23.424  0.00  0.00    +0.013 C 
ATOM     35  C   UNL     1      34.513 -16.456 -21.073  0.00  0.00    +0.006 C 
ATOM     36  C   UNL     1      34.506 -14.547 -23.107  0.00  0.00    -0.001 C 
ATOM     37  C   UNL     1      34.592 -15.100 -20.757  0.00  0.00    +0.000 C 
ATOM     38  C   UNL     1      34.588 -14.146 -21.774  0.00  0.00    -0.000 C 
BRANCH  34  39
ATOM     39  C   UNL     1      34.341 -16.283 -24.867  0.00  0.00    +0.164 C 
BRANCH  39  40
ATOM     40  O   UNL     1      33.084 -15.870 -25.385  0.00  0.00    -0.377 OA
ATOM     41  H   UNL     1      33.043 -16.073 -26.333  0.00  0.00    +0.211 HD
ENDBRANCH  39  40
ENDBRANCH  34  39
ENDBRANCH  32  33
ENDBRANCH  27  32
ENDBRANCH  25  26
ENDBRANCH   2  25
TORSDOF 8
ENDMDL
MODEL 5
REMARK VINA RESULT:     -11.7      2.259      3.020
REMARK  Name = 448408
REMARK  8 active torsions:
REMARK  status: ('A' for Active; 'I' for Inactive)
REMARK    1  A    between atoms: N_2  and  C_25
REMARK    2  A    between atoms: C_3  and  C_6
REMARK    3  A    between atoms: C_5  and  N_12
REMARK    4  A    between atoms: C_25  and  C_26
REMARK    5  A    between atoms: C_27  and  S_32
REMARK    6  A    between atoms: S_32  and  C_33
REMARK    7  A    between atoms: C_34  and  C_39
REMARK    8  A    between atoms: C_39  and  O_40
REMARK                            x       y       z     vdW  Elec       q    Type
REMARK                         _______ _______ _______ _____ _____    ______ ____
ROOT
ATOM      1  O   UNL     1      32.873 -22.001 -19.873  0.00  0.00    -0.270 OA
ATOM      2  N   UNL     1      34.612 -22.757 -18.539  0.00  0.00    -0.297 N 
ATOM      3  C   UNL     1      34.043 -21.880 -19.470  0.00  0.00    +0.246 C 
ATOM      4  H   UNL     1      35.545 -22.603 -18.264  0.00  0.00    +0.150 HD
ENDROOT
BRANCH   3   6
ATOM      5  C   UNL     1      35.130 -18.630 -21.022  0.00  0.00    +0.090 C 
ATOM      6  C   UNL     1      34.893 -20.815 -19.978  0.00  0.00    +0.055 C 
ATOM      7  C   UNL     1      34.321 -19.667 -20.526  0.00  0.00    +0.023 C 
ATOM      8  C   UNL     1      36.525 -18.774 -20.956  0.00  0.00    +0.018 C 
ATOM      9  C   UNL     1      36.282 -20.943 -19.920  0.00  0.00    +0.005 C 
ATOM     10  C   UNL     1      37.097 -19.923 -20.408  0.00  0.00    +0.002 C 
BRANCH   5  12
ATOM     11  O   UNL     1      33.837 -16.353 -25.509  0.00  0.00    -0.207 OA
ATOM     12  N   UNL     1      34.559 -17.484 -21.566  0.00  0.00    -0.137 N 
ATOM     13  N   UNL     1      34.727 -16.227 -21.078  0.00  0.00    -0.215 N 
ATOM     14  N   UNL     1      34.288 -17.465 -22.932  0.00  0.00    -0.143 NA
ATOM     15  N   UNL     1      34.609 -14.076 -22.262  0.00  0.00    -0.309 NA
ATOM     16  N   UNL     1      34.130 -14.231 -24.622  0.00  0.00    -0.251 NA
ATOM     17  N   UNL     1      34.441 -12.165 -23.630  0.00  0.00    -0.283 N 
ATOM     18  C   UNL     1      34.572 -15.346 -22.097  0.00  0.00    +0.243 C 
ATOM     19  C   UNL     1      34.294 -16.210 -23.255  0.00  0.00    +0.241 C 
ATOM     20  C   UNL     1      34.064 -15.603 -24.571  0.00  0.00    +0.239 C 
ATOM     21  C   UNL     1      34.386 -13.536 -23.531  0.00  0.00    +0.208 C 
ATOM     22  H   UNL     1      34.926 -15.996 -20.141  0.00  0.00    +0.175 HD
ATOM     23  H   UNL     1      34.630 -11.620 -22.832  0.00  0.00    +0.156 HD
ATOM     24  H   UNL     1      34.292 -11.728 -24.500  0.00  0.00    +0.156 HD
ENDBRANCH   5  12
ENDBRANCH   3   6
BRANCH   2  25
ATOM     25  C   UNL     1      33.904 -23.877 -17.960  0.00  0.00    +0.117 C 
BRANCH  25  26
ATOM     26  C   UNL     1      33.383 -23.563 -16.588  0.00  0.00    +0.003 C 
ATOM     27  C   UNL     1      34.238 -23.340 -15.512  0.00  0.00    +0.027 C 
ATOM     28  C   UNL     1      32.003 -23.501 -16.416  0.00  0.00    -0.002 C 
ATOM     29  C   UNL     1      33.708 -23.053 -14.255  0.00  0.00    +0.006 C 
ATOM     30  C   UNL     1      31.474 -23.213 -15.159  0.00  0.00    -0.000 C 
ATOM     31  C   UNL     1      32.325 -22.988 -14.078  0.00  0.00    +0.000 C 
BRANCH  27  32
ATOM     32  S   UNL     1      36.016 -23.411 -15.687  0.00  0.00    -0.087 S 
BRANCH  32  33
ATOM     33  C   UNL     1      36.486 -24.126 -14.120  0.00  0.00    +0.028 C 
ATOM     34  C   UNL     1      36.495 -25.508 -13.915  0.00  0.00    +0.013 C 
ATOM     35  C   UNL     1      36.852 -23.268 -13.081  0.00  0.00    +0.006 C 
ATOM     36  C   UNL     1      36.869 -26.028 -12.677  0.00  0.00    -0.001 C 
ATOM     37  C   UNL     1      37.225 -23.789 -11.843  0.00  0.00    +0.000 C 
ATOM     38  C   UNL     1      37.234 -25.169 -11.640  0.00  0.00    -0.000 C 
BRANCH  34  39
ATOM     39  C   UNL     1      36.113 -26.469 -14.994  0.00  0.00    +0.164 C 
BRANCH  39  40
ATOM     40  O   UNL     1      37.288 -27.055 -15.537  0.00  0.00    -0.377 OA
ATOM     41  H   UNL     1      37.925 -26.357 -15.758  0.00  0.00    +0.211 HD
ENDBRANCH  39  40
ENDBRANCH  34  39
ENDBRANCH  32  33
ENDBRANCH  27  32
ENDBRANCH  25  26
ENDBRANCH   2  25
TORSDOF 8
ENDMDL
MODEL 6
REMARK VINA RESULT:     -11.5      3.233      5.056
REMARK  Name = 448408
REMARK  8 active torsions:
REMARK  status: ('A' for Active; 'I' for Inactive)
REMARK    1  A    between atoms: N_2  and  C_25
REMARK    2  A    between atoms: C_3  and  C_6
REMARK    3  A    between atoms: C_5  and  N_12
REMARK    4  A    between atoms: C_25  and  C_26
REMARK    5  A    between atoms: C_27  and  S_32
REMARK    6  A    between atoms: S_32  and  C_33
REMARK    7  A    between atoms: C_34  and  C_39
REMARK    8  A    between atoms: C_39  and  O_40
REMARK                            x       y       z     vdW  Elec       q    Type
REMARK                         _______ _______ _______ _____ _____    ______ ____
ROOT
ATOM      1  O   UNL     1      33.001 -22.840 -19.387  0.00  0.00    -0.270 OA
ATOM      2  N   UNL     1      34.355 -22.880 -17.505  0.00  0.00    -0.297 N 
ATOM      3  C   UNL     1      34.005 -22.425 -18.781  0.00  0.00    +0.246 C 
ATOM      4  H   UNL     1      35.164 -22.508 -17.084  0.00  0.00    +0.150 HD
ENDROOT
BRANCH   3   6
ATOM      5  C   UNL     1      35.191 -19.375 -20.638  0.00  0.00    +0.090 C 
ATOM      6  C   UNL     1      34.887 -21.447 -19.399  0.00  0.00    +0.055 C 
ATOM      7  C   UNL     1      34.351 -20.328 -20.037  0.00  0.00    +0.023 C 
ATOM      8  C   UNL     1      36.581 -19.573 -20.584  0.00  0.00    +0.018 C 
ATOM      9  C   UNL     1      36.270 -21.629 -19.353  0.00  0.00    +0.005 C 
ATOM     10  C   UNL     1      37.116 -20.692 -19.945  0.00  0.00    +0.002 C 
BRANCH   5  12
ATOM     11  O   UNL     1      34.684 -17.063 -25.263  0.00  0.00    -0.207 OA
ATOM     12  N   UNL     1      34.658 -18.259 -21.274  0.00  0.00    -0.137 N 
ATOM     13  N   UNL     1      34.618 -17.009 -20.742  0.00  0.00    -0.215 N 
ATOM     14  N   UNL     1      34.676 -18.219 -22.666  0.00  0.00    -0.143 NA
ATOM     15  N   UNL     1      34.578 -14.837 -21.893  0.00  0.00    -0.309 NA
ATOM     16  N   UNL     1      34.615 -14.954 -24.304  0.00  0.00    -0.251 NA
ATOM     17  N   UNL     1      34.547 -12.902 -23.238  0.00  0.00    -0.283 N 
ATOM     18  C   UNL     1      34.609 -16.111 -21.758  0.00  0.00    +0.243 C 
ATOM     19  C   UNL     1      34.648 -16.956 -22.961  0.00  0.00    +0.241 C 
ATOM     20  C   UNL     1      34.650 -16.328 -24.287  0.00  0.00    +0.239 C 
ATOM     21  C   UNL     1      34.582 -14.276 -23.173  0.00  0.00    +0.208 C 
ATOM     22  H   UNL     1      34.599 -16.792 -19.782  0.00  0.00    +0.175 HD
ATOM     23  H   UNL     1      34.521 -12.370 -22.410  0.00  0.00    +0.156 HD
ATOM     24  H   UNL     1      34.547 -12.451 -24.113  0.00  0.00    +0.156 HD
ENDBRANCH   5  12
ENDBRANCH   3   6
BRANCH   2  25
ATOM     25  C   UNL     1      33.594 -23.866 -16.771  0.00  0.00    +0.117 C 
BRANCH  25  26
ATOM     26  C   UNL     1      34.211 -24.172 -15.437  0.00  0.00    +0.003 C 
ATOM     27  C   UNL     1      33.679 -23.673 -14.252  0.00  0.00    +0.027 C 
ATOM     28  C   UNL     1      35.345 -24.978 -15.416  0.00  0.00    -0.002 C 
ATOM     29  C   UNL     1      34.286 -23.983 -13.036  0.00  0.00    +0.006 C 
ATOM     30  C   UNL     1      35.952 -25.288 -14.200  0.00  0.00    -0.000 C 
ATOM     31  C   UNL     1      35.423 -24.791 -13.009  0.00  0.00    +0.000 C 
BRANCH  27  32
ATOM     32  S   UNL     1      32.224 -22.634 -14.233  0.00  0.00    -0.087 S 
BRANCH  32  33
ATOM     33  C   UNL     1      30.927 -23.858 -14.333  0.00  0.00    +0.028 C 
ATOM     34  C   UNL     1      29.955 -23.819 -15.335  0.00  0.00    +0.013 C 
ATOM     35  C   UNL     1      30.898 -24.874 -13.376  0.00  0.00    +0.006 C 
ATOM     36  C   UNL     1      28.958 -24.794 -15.380  0.00  0.00    -0.001 C 
ATOM     37  C   UNL     1      29.900 -25.848 -13.420  0.00  0.00    +0.000 C 
ATOM     38  C   UNL     1      28.930 -25.808 -14.422  0.00  0.00    -0.000 C 
BRANCH  34  39
ATOM     39  C   UNL     1      29.942 -22.753 -16.383  0.00  0.00    +0.164 C 
BRANCH  39  40
ATOM     40  O   UNL     1      28.598 -22.367 -16.641  0.00  0.00    -0.377 OA
ATOM     41  H   UNL     1      28.225 -21.947 -15.851  0.00  0.00    +0.211 HD
ENDBRANCH  39  40
ENDBRANCH  34  39
ENDBRANCH  32  33
ENDBRANCH  27  32
ENDBRANCH  25  26
ENDBRANCH   2  25
TORSDOF 8
ENDMDL
MODEL 7
REMARK VINA RESULT:     -11.5      3.976      7.433
REMARK  Name = 448408
REMARK  8 active torsions:
REMARK  status: ('A' for Active; 'I' for Inactive)
REMARK    1  A    between atoms: N_2  and  C_25
REMARK    2  A    between atoms: C_3  and  C_6
REMARK    3  A    between atoms: C_5  and  N_12
REMARK    4  A    between atoms: C_25  and  C_26
REMARK    5  A    between atoms: C_27  and  S_32
REMARK    6  A    between atoms: S_32  and  C_33
REMARK    7  A    between atoms: C_34  and  C_39
REMARK    8  A    between atoms: C_39  and  O_40
REMARK                            x       y       z     vdW  Elec       q    Type
REMARK                         _______ _______ _______ _____ _____    ______ ____
ROOT
ATOM      1  O   UNL     1      34.948 -14.023 -23.532  0.00  0.00    -0.270 OA
ATOM      2  N   UNL     1      34.579 -15.419 -21.718  0.00  0.00    -0.297 N 
ATOM      3  C   UNL     1      34.325 -14.276 -22.486  0.00  0.00    +0.246 C 
ATOM      4  H   UNL     1      34.048 -15.557 -20.900  0.00  0.00    +0.150 HD
ENDROOT
BRANCH   3   6
ATOM      5  C   UNL     1      32.188 -11.204 -22.099  0.00  0.00    +0.090 C 
ATOM      6  C   UNL     1      33.304 -13.364 -21.995  0.00  0.00    +0.055 C 
ATOM      7  C   UNL     1      33.170 -12.097 -22.563  0.00  0.00    +0.023 C 
ATOM      8  C   UNL     1      31.346 -11.614 -21.052  0.00  0.00    +0.018 C 
ATOM      9  C   UNL     1      32.460 -13.756 -20.955  0.00  0.00    +0.005 C 
ATOM     10  C   UNL     1      31.482 -12.882 -20.484  0.00  0.00    +0.002 C 
BRANCH   5  12
ATOM     11  O   UNL     1      34.816  -6.901 -23.354  0.00  0.00    -0.207 OA
ATOM     12  N   UNL     1      32.053  -9.941 -22.665  0.00  0.00    -0.137 N 
ATOM     13  N   UNL     1      30.975  -9.130 -22.503  0.00  0.00    -0.215 N 
ATOM     14  N   UNL     1      33.207  -9.205 -22.924  0.00  0.00    -0.143 NA
ATOM     15  N   UNL     1      30.851  -6.677 -22.612  0.00  0.00    -0.309 NA
ATOM     16  N   UNL     1      32.943  -5.565 -23.070  0.00  0.00    -0.251 NA
ATOM     17  N   UNL     1      31.010  -4.331 -22.770  0.00  0.00    -0.283 N 
ATOM     18  C   UNL     1      31.379  -7.844 -22.650  0.00  0.00    +0.243 C 
ATOM     19  C   UNL     1      32.820  -7.968 -22.917  0.00  0.00    +0.241 C 
ATOM     20  C   UNL     1      33.622  -6.758 -23.136  0.00  0.00    +0.239 C 
ATOM     21  C   UNL     1      31.648  -5.549 -22.824  0.00  0.00    +0.208 C 
ATOM     22  H   UNL     1      30.055  -9.426 -22.312  0.00  0.00    +0.175 HD
ATOM     23  H   UNL     1      30.043  -4.289 -22.588  0.00  0.00    +0.156 HD
ATOM     24  H   UNL     1      31.521  -3.501 -22.912  0.00  0.00    +0.156 HD
ENDBRANCH   5  12
ENDBRANCH   3   6
BRANCH   2  25
ATOM     25  C   UNL     1      35.577 -16.406 -22.060  0.00  0.00    +0.117 C 
BRANCH  25  26
ATOM     26  C   UNL     1      35.006 -17.518 -22.890  0.00  0.00    +0.003 C 
ATOM     27  C   UNL     1      35.188 -18.856 -22.551  0.00  0.00    +0.027 C 
ATOM     28  C   UNL     1      34.278 -17.173 -24.026  0.00  0.00    -0.002 C 
ATOM     29  C   UNL     1      34.639 -19.855 -23.353  0.00  0.00    +0.006 C 
ATOM     30  C   UNL     1      33.729 -18.172 -24.828  0.00  0.00    -0.000 C 
ATOM     31  C   UNL     1      33.909 -19.514 -24.492  0.00  0.00    +0.000 C 
BRANCH  27  32
ATOM     32  S   UNL     1      36.115 -19.345 -21.102  0.00  0.00    -0.087 S 
BRANCH  32  33
ATOM     33  C   UNL     1      34.930 -20.393 -20.274  0.00  0.00    +0.028 C 
ATOM     34  C   UNL     1      35.328 -21.399 -19.392  0.00  0.00    +0.013 C 
ATOM     35  C   UNL     1      33.572 -20.189 -20.528  0.00  0.00    +0.006 C 
ATOM     36  C   UNL     1      34.372 -22.197 -18.764  0.00  0.00    -0.001 C 
ATOM     37  C   UNL     1      32.616 -20.987 -19.900  0.00  0.00    +0.000 C 
ATOM     38  C   UNL     1      33.016 -21.992 -19.019  0.00  0.00    -0.000 C 
BRANCH  34  39
ATOM     39  C   UNL     1      36.769 -21.659 -19.086  0.00  0.00    +0.164 C 
BRANCH  39  40
ATOM     40  O   UNL     1      36.896 -22.044 -17.724  0.00  0.00    -0.377 OA
ATOM     41  H   UNL     1      36.743 -21.274 -17.155  0.00  0.00    +0.211 HD
ENDBRANCH  39  40
ENDBRANCH  34  39
ENDBRANCH  32  33
ENDBRANCH  27  32
ENDBRANCH  25  26
ENDBRANCH   2  25
TORSDOF 8
ENDMDL
MODEL 8
REMARK VINA RESULT:     -11.4      2.413      3.362
REMARK  Name = 448408
REMARK  8 active torsions:
REMARK  status: ('A' for Active; 'I' for Inactive)
REMARK    1  A    between atoms: N_2  and  C_25
REMARK    2  A    between atoms: C_3  and  C_6
REMARK    3  A    between atoms: C_5  and  N_12
REMARK    4  A    between atoms: C_25  and  C_26
REMARK    5  A    between atoms: C_27  and  S_32
REMARK    6  A    between atoms: S_32  and  C_33
REMARK    7  A    between atoms: C_34  and  C_39
REMARK    8  A    between atoms: C_39  and  O_40
REMARK                            x       y       z     vdW  Elec       q    Type
REMARK                         _______ _______ _______ _____ _____    ______ ____
ROOT
ATOM      1  O   UNL     1      32.817 -22.608 -19.604  0.00  0.00    -0.270 OA
ATOM      2  N   UNL     1      34.389 -23.198 -18.005  0.00  0.00    -0.297 N 
ATOM      3  C   UNL     1      33.927 -22.422 -19.074  0.00  0.00    +0.246 C 
ATOM      4  H   UNL     1      35.278 -22.996 -17.633  0.00  0.00    +0.150 HD
ENDROOT
BRANCH   3   6
ATOM      5  C   UNL     1      35.138 -19.246 -20.688  0.00  0.00    +0.090 C 
ATOM      6  C   UNL     1      34.817 -21.384 -19.570  0.00  0.00    +0.055 C 
ATOM      7  C   UNL     1      34.291 -20.258 -20.203  0.00  0.00    +0.023 C 
ATOM      8  C   UNL     1      36.525 -19.394 -20.523  0.00  0.00    +0.018 C 
ATOM      9  C   UNL     1      36.197 -21.515 -19.413  0.00  0.00    +0.005 C 
ATOM     10  C   UNL     1      37.051 -20.521 -19.889  0.00  0.00    +0.002 C 
BRANCH   5  12
ATOM     11  O   UNL     1      34.720 -16.870 -25.290  0.00  0.00    -0.207 OA
ATOM     12  N   UNL     1      34.614 -18.123 -21.319  0.00  0.00    -0.137 N 
ATOM     13  N   UNL     1      34.560 -16.881 -20.771  0.00  0.00    -0.215 N 
ATOM     14  N   UNL     1      34.662 -18.063 -22.710  0.00  0.00    -0.143 NA
ATOM     15  N   UNL     1      34.537 -14.693 -21.891  0.00  0.00    -0.309 NA
ATOM     16  N   UNL     1      34.625 -14.775 -24.302  0.00  0.00    -0.251 NA
ATOM     17  N   UNL     1      34.528 -12.739 -23.208  0.00  0.00    -0.283 N 
ATOM     18  C   UNL     1      34.569 -15.968 -21.774  0.00  0.00    +0.243 C 
ATOM     19  C   UNL     1      34.636 -16.796 -22.988  0.00  0.00    +0.241 C 
ATOM     20  C   UNL     1      34.664 -16.149 -24.304  0.00  0.00    +0.239 C 
ATOM     21  C   UNL     1      34.566 -14.114 -23.163  0.00  0.00    +0.208 C 
ATOM     22  H   UNL     1      34.521 -16.678 -19.808  0.00  0.00    +0.175 HD
ATOM     23  H   UNL     1      34.483 -12.219 -22.374  0.00  0.00    +0.156 HD
ATOM     24  H   UNL     1      34.545 -12.275 -24.077  0.00  0.00    +0.156 HD
ENDBRANCH   5  12
ENDBRANCH   3   6
BRANCH   2  25
ATOM     25  C   UNL     1      33.633 -24.281 -17.418  0.00  0.00    +0.117 C 
BRANCH  25  26
ATOM     26  C   UNL     1      32.994 -23.879 -16.120  0.00  0.00    +0.003 C 
ATOM     27  C   UNL     1      33.529 -24.257 -14.891  0.00  0.00    +0.027 C 
ATOM     28  C   UNL     1      31.836 -23.110 -16.177  0.00  0.00    -0.002 C 
ATOM     29  C   UNL     1      32.901 -23.862 -13.711  0.00  0.00    +0.006 C 
ATOM     30  C   UNL     1      31.207 -22.715 -14.996  0.00  0.00    -0.000 C 
ATOM     31  C   UNL     1      31.740 -23.090 -13.764  0.00  0.00    +0.000 C 
BRANCH  27  32
ATOM     32  S   UNL     1      35.015 -25.245 -14.772  0.00  0.00    -0.087 S 
BRANCH  32  33
ATOM     33  C   UNL     1      35.780 -24.539 -13.320  0.00  0.00    +0.028 C 
ATOM     34  C   UNL     1      36.809 -23.600 -13.416  0.00  0.00    +0.013 C 
ATOM     35  C   UNL     1      35.327 -24.947 -12.065  0.00  0.00    +0.006 C 
ATOM     36  C   UNL     1      37.381 -23.070 -12.259  0.00  0.00    -0.001 C 
ATOM     37  C   UNL     1      35.900 -24.419 -10.909  0.00  0.00    +0.000 C 
ATOM     38  C   UNL     1      36.927 -23.480 -11.006  0.00  0.00    -0.000 C 
BRANCH  34  39
ATOM     39  C   UNL     1      37.330 -23.129 -14.736  0.00  0.00    +0.164 C 
BRANCH  39  40
ATOM     40  O   UNL     1      38.437 -23.936 -15.117  0.00  0.00    -0.377 OA
ATOM     41  H   UNL     1      38.158 -24.564 -15.802  0.00  0.00    +0.211 HD
ENDBRANCH  39  40
ENDBRANCH  34  39
ENDBRANCH  32  33
ENDBRANCH  27  32
ENDBRANCH  25  26
ENDBRANCH   2  25
TORSDOF 8
ENDMDL
MODEL 9
REMARK VINA RESULT:     -11.4      3.271      4.854
REMARK  Name = 448408
REMARK  8 active torsions:
REMARK  status: ('A' for Active; 'I' for Inactive)
REMARK    1  A    between atoms: N_2  and  C_25
REMARK    2  A    between atoms: C_3  and  C_6
REMARK    3  A    between atoms: C_5  and  N_12
REMARK    4  A    between atoms: C_25  and  C_26
REMARK    5  A    between atoms: C_27  and  S_32
REMARK    6  A    between atoms: S_32  and  C_33
REMARK    7  A    between atoms: C_34  and  C_39
REMARK    8  A    between atoms: C_39  and  O_40
REMARK                            x       y       z     vdW  Elec       q    Type
REMARK                         _______ _______ _______ _____ _____    ______ ____
ROOT
ATOM      1  O   UNL     1      32.900 -20.791 -20.175  0.00  0.00    -0.270 OA
ATOM      2  N   UNL     1      34.447 -22.058 -19.002  0.00  0.00    -0.297 N 
ATOM      3  C   UNL     1      34.082 -21.015 -19.861  0.00  0.00    +0.246 C 
ATOM      4  H   UNL     1      35.402 -22.178 -18.795  0.00  0.00    +0.150 HD
ENDROOT
BRANCH   3   6
ATOM      5  C   UNL     1      35.889 -18.283 -21.713  0.00  0.00    +0.090 C 
ATOM      6  C   UNL     1      35.157 -20.200 -20.403  0.00  0.00    +0.055 C 
ATOM      7  C   UNL     1      34.860 -19.080 -21.181  0.00  0.00    +0.023 C 
ATOM      8  C   UNL     1      37.221 -18.637 -21.445  0.00  0.00    +0.018 C 
ATOM      9  C   UNL     1      36.487 -20.538 -20.146  0.00  0.00    +0.005 C 
ATOM     10  C   UNL     1      37.518 -19.757 -20.666  0.00  0.00    +0.002 C 
BRANCH   5  12
ATOM     11  O   UNL     1      33.509 -13.666 -21.625  0.00  0.00    -0.207 OA
ATOM     12  N   UNL     1      35.593 -17.167 -22.488  0.00  0.00    -0.137 N 
ATOM     13  N   UNL     1      35.288 -17.201 -23.812  0.00  0.00    -0.215 N 
ATOM     14  N   UNL     1      35.022 -16.061 -21.864  0.00  0.00    -0.143 NA
ATOM     15  N   UNL     1      33.932 -15.631 -25.130  0.00  0.00    -0.309 NA
ATOM     16  N   UNL     1      33.020 -13.772 -23.889  0.00  0.00    -0.251 NA
ATOM     17  N   UNL     1      32.597 -13.980 -26.153  0.00  0.00    -0.283 N 
ATOM     18  C   UNL     1      34.512 -16.127 -24.102  0.00  0.00    +0.243 C 
ATOM     19  C   UNL     1      34.382 -15.442 -22.806  0.00  0.00    +0.241 C 
ATOM     20  C   UNL     1      33.595 -14.206 -22.718  0.00  0.00    +0.239 C 
ATOM     21  C   UNL     1      33.190 -14.453 -25.005  0.00  0.00    +0.208 C 
ATOM     22  H   UNL     1      35.581 -17.890 -24.452  0.00  0.00    +0.175 HD
ATOM     23  H   UNL     1      32.707 -14.467 -27.002  0.00  0.00    +0.156 HD
ATOM     24  H   UNL     1      32.062 -13.154 -26.126  0.00  0.00    +0.156 HD
ENDBRANCH   5  12
ENDBRANCH   3   6
BRANCH   2  25
ATOM     25  C   UNL     1      33.498 -22.969 -18.403  0.00  0.00    +0.117 C 
BRANCH  25  26
ATOM     26  C   UNL     1      33.767 -23.178 -16.941  0.00  0.00    +0.003 C 
ATOM     27  C   UNL     1      32.753 -23.105 -15.990  0.00  0.00    +0.027 C 
ATOM     28  C   UNL     1      35.076 -23.450 -16.555  0.00  0.00    -0.002 C 
ATOM     29  C   UNL     1      33.051 -23.305 -14.643  0.00  0.00    +0.006 C 
ATOM     30  C   UNL     1      35.374 -23.651 -15.207  0.00  0.00    -0.000 C 
ATOM     31  C   UNL     1      34.362 -23.579 -14.251  0.00  0.00    +0.000 C 
BRANCH  27  32
ATOM     32  S   UNL     1      31.058 -22.758 -16.441  0.00  0.00    -0.087 S 
BRANCH  32  33
ATOM     33  C   UNL     1      30.194 -24.031 -15.534  0.00  0.00    +0.028 C 
ATOM     34  C   UNL     1      28.803 -24.144 -15.571  0.00  0.00    +0.013 C 
ATOM     35  C   UNL     1      30.944 -24.927 -14.771  0.00  0.00    +0.006 C 
ATOM     36  C   UNL     1      28.165 -25.152 -14.849  0.00  0.00    -0.001 C 
ATOM     37  C   UNL     1      30.306 -25.934 -14.048  0.00  0.00    +0.000 C 
ATOM     38  C   UNL     1      28.916 -26.047 -14.087  0.00  0.00    -0.000 C 
BRANCH  34  39
ATOM     39  C   UNL     1      27.954 -23.210 -16.372  0.00  0.00    +0.164 C 
BRANCH  39  40
ATOM     40  O   UNL     1      27.644 -23.814 -17.621  0.00  0.00    -0.377 OA
ATOM     41  H   UNL     1      27.949 -24.735 -17.619  0.00  0.00    +0.211 HD
ENDBRANCH  39  40
ENDBRANCH  34  39
ENDBRANCH  32  33
ENDBRANCH  27  32
ENDBRANCH  25  26
ENDBRANCH   2  25
TORSDOF 8
ENDMDL
