MODEL 1
REMARK VINA RESULT:     -12.0      0.000      0.000
REMARK  Name = 49831257
REMARK  4 active torsions:
REMARK  status: ('A' for Active; 'I' for Inactive)
REMARK    1  A    between atoms: C_1  and  C_23
REMARK    2  A    between atoms: C_4  and  C_14
REMARK    3  A    between atoms: C_12  and  C_20
REMARK    4  A    between atoms: C_23  and  N_27
REMARK                            x       y       z     vdW  Elec       q    Type
REMARK                         _______ _______ _______ _____ _____    ______ ____
ROOT
ATOM      1  C   UNL     1      35.897 -18.897 -21.390  0.00  0.00    -0.043 C 
ATOM      2  C   UNL     1      35.671 -17.656 -20.795  0.00  0.00    -0.006 C 
ATOM      3  C   UNL     1      35.560 -19.100 -22.728  0.00  0.00    -0.006 C 
ATOM      4  C   UNL     1      34.771 -16.822 -22.876  0.00  0.00    +0.016 C 
ATOM      5  C   UNL     1      35.107 -16.619 -21.538  0.00  0.00    +0.001 C 
ATOM      6  C   UNL     1      34.997 -18.064 -23.472  0.00  0.00    +0.001 C 
ENDROOT
BRANCH   4  14
ATOM      7  O   UNL     1      31.258 -10.602 -21.394  0.00  0.00    -0.274 OA
ATOM      8  N   UNL     1      32.345 -12.534 -20.588  0.00  0.00    -0.217 N 
ATOM      9  N   UNL     1      33.543 -14.628 -23.043  0.00  0.00    -0.152 N 
ATOM     10  N   UNL     1      33.389 -14.363 -21.717  0.00  0.00    -0.092 NA
ATOM     11  N   UNL     1      32.446 -12.692 -22.954  0.00  0.00    -0.319 NA
ATOM     12  C   UNL     1      31.655 -11.313 -20.481  0.00  0.00    +0.234 C 
ATOM     13  C   UNL     1      32.730 -13.206 -21.729  0.00  0.00    +0.167 C 
ATOM     14  C   UNL     1      34.174 -15.727 -23.661  0.00  0.00    +0.077 C 
ATOM     15  C   UNL     1      32.959 -13.583 -23.772  0.00  0.00    +0.219 C 
ATOM     16  C   UNL     1      34.213 -15.769 -25.010  0.00  0.00    +0.017 C 
ATOM     17  C   UNL     1      33.014 -13.650 -25.191  0.00  0.00    +0.051 C 
ATOM     18  C   UNL     1      33.615 -14.695 -25.784  0.00  0.00    +0.005 C 
ATOM     19  H   UNL     1      32.585 -12.966 -19.736  0.00  0.00    +0.167 HD
BRANCH  12  20
ATOM     20  C   UNL     1      31.398 -10.871 -19.074  0.00  0.00    +0.077 C 
ATOM     21  C   UNL     1      31.221  -9.408 -18.790  0.00  0.00    +0.010 C 
ATOM     22  C   UNL     1      32.466 -10.116 -18.338  0.00  0.00    +0.010 C 
ENDBRANCH  12  20
ENDBRANCH   4  14
BRANCH   1  23
ATOM     23  C   UNL     1      36.507 -20.016 -20.589  0.00  0.00    -0.050 C 
BRANCH  23  27
ATOM     24  S   UNL     1      33.700 -22.810 -18.419  0.00  0.00    -0.014 S 
ATOM     25  O   UNL     1      32.798 -22.906 -17.290  0.00  0.00    -0.173 OA
ATOM     26  O   UNL     1      33.913 -23.938 -19.305  0.00  0.00    -0.173 OA
ATOM     27  N   UNL     1      35.547 -20.595 -19.644  0.00  0.00    +0.392 N 
ATOM     28  C   UNL     1      36.159 -21.740 -18.947  0.00  0.00    -0.051 C 
ATOM     29  C   UNL     1      34.317 -20.981 -20.355  0.00  0.00    -0.051 C 
ATOM     30  C   UNL     1      33.210 -21.412 -19.400  0.00  0.00    +0.128 C 
ATOM     31  C   UNL     1      35.280 -22.264 -17.817  0.00  0.00    +0.128 C 
ATOM     32  H   UNL     1      35.294 -19.902 -18.939  0.00  0.00    -0.079 HD
ENDBRANCH  23  27
ENDBRANCH   1  23
TORSDOF 4
ENDMDL
MODEL 2
REMARK VINA RESULT:     -11.9      4.692     11.083
REMARK  Name = 49831257
REMARK  4 active torsions:
REMARK  status: ('A' for Active; 'I' for Inactive)
REMARK    1  A    between atoms: C_1  and  C_23
REMARK    2  A    between atoms: C_4  and  C_14
REMARK    3  A    between atoms: C_12  and  C_20
REMARK    4  A    between atoms: C_23  and  N_27
REMARK                            x       y       z     vdW  Elec       q    Type
REMARK                         _______ _______ _______ _____ _____    ______ ____
ROOT
ATOM      1  C   UNL     1      35.168 -20.597 -20.862  0.00  0.00    -0.043 C 
ATOM      2  C   UNL     1      33.796 -20.494 -20.631  0.00  0.00    -0.006 C 
ATOM      3  C   UNL     1      35.966 -21.349 -20.000  0.00  0.00    -0.006 C 
ATOM      4  C   UNL     1      34.021 -21.894 -18.675  0.00  0.00    +0.016 C 
ATOM      5  C   UNL     1      33.223 -21.142 -19.537  0.00  0.00    +0.001 C 
ATOM      6  C   UNL     1      35.393 -21.997 -18.906  0.00  0.00    +0.001 C 
ENDROOT
BRANCH   4  14
ATOM      7  O   UNL     1      36.475 -25.519 -12.838  0.00  0.00    -0.274 OA
ATOM      8  N   UNL     1      36.966 -24.316 -14.806  0.00  0.00    -0.217 N 
ATOM      9  N   UNL     1      34.203 -23.205 -16.532  0.00  0.00    -0.152 N 
ATOM     10  N   UNL     1      35.558 -23.283 -16.437  0.00  0.00    -0.092 NA
ATOM     11  N   UNL     1      34.598 -24.361 -14.669  0.00  0.00    -0.319 NA
ATOM     12  C   UNL     1      37.267 -25.040 -13.638  0.00  0.00    +0.234 C 
ATOM     13  C   UNL     1      35.730 -23.981 -15.316  0.00  0.00    +0.167 C 
ATOM     14  C   UNL     1      33.416 -22.578 -17.519  0.00  0.00    +0.077 C 
ATOM     15  C   UNL     1      33.646 -23.872 -15.431  0.00  0.00    +0.219 C 
ATOM     16  C   UNL     1      32.072 -22.624 -17.393  0.00  0.00    +0.017 C 
ATOM     17  C   UNL     1      32.229 -23.906 -15.321  0.00  0.00    +0.051 C 
ATOM     18  C   UNL     1      31.475 -23.308 -16.259  0.00  0.00    +0.005 C 
ATOM     19  H   UNL     1      37.742 -24.006 -15.329  0.00  0.00    +0.167 HD
BRANCH  12  20
ATOM     20  C   UNL     1      38.730 -25.221 -13.383  0.00  0.00    +0.077 C 
ATOM     21  C   UNL     1      39.680 -25.202 -14.545  0.00  0.00    +0.010 C 
ATOM     22  C   UNL     1      39.398 -26.490 -13.827  0.00  0.00    +0.010 C 
ENDBRANCH  12  20
ENDBRANCH   4  14
BRANCH   1  23
ATOM     23  C   UNL     1      35.787 -19.899 -22.044  0.00  0.00    -0.050 C 
BRANCH  23  27
ATOM     24  S   UNL     1      34.168 -16.358 -24.332  0.00  0.00    -0.014 S 
ATOM     25  O   UNL     1      33.054 -15.434 -24.409  0.00  0.00    -0.173 OA
ATOM     26  O   UNL     1      35.281 -16.268 -25.257  0.00  0.00    -0.173 OA
ATOM     27  N   UNL     1      34.954 -18.789 -22.518  0.00  0.00    +0.392 N 
ATOM     28  C   UNL     1      34.539 -19.033 -23.910  0.00  0.00    -0.051 C 
ATOM     29  C   UNL     1      35.689 -17.520 -22.380  0.00  0.00    -0.051 C 
ATOM     30  C   UNL     1      34.810 -16.310 -22.676  0.00  0.00    +0.128 C 
ATOM     31  C   UNL     1      33.518 -18.011 -24.395  0.00  0.00    +0.128 C 
ATOM     32  H   UNL     1      34.110 -18.722 -21.950  0.00  0.00    -0.079 HD
ENDBRANCH  23  27
ENDBRANCH   1  23
TORSDOF 4
ENDMDL
MODEL 3
REMARK VINA RESULT:     -10.9      4.319     10.118
REMARK  Name = 49831257
REMARK  4 active torsions:
REMARK  status: ('A' for Active; 'I' for Inactive)
REMARK    1  A    between atoms: C_1  and  C_23
REMARK    2  A    between atoms: C_4  and  C_14
REMARK    3  A    between atoms: C_12  and  C_20
REMARK    4  A    between atoms: C_23  and  N_27
REMARK                            x       y       z     vdW  Elec       q    Type
REMARK                         _______ _______ _______ _____ _____    ______ ____
ROOT
ATOM      1  C   UNL     1      35.300 -20.632 -20.988  0.00  0.00    -0.043 C 
ATOM      2  C   UNL     1      34.063 -20.900 -20.402  0.00  0.00    -0.006 C 
ATOM      3  C   UNL     1      36.476 -20.984 -20.325  0.00  0.00    -0.006 C 
ATOM      4  C   UNL     1      35.178 -21.870 -18.491  0.00  0.00    +0.016 C 
ATOM      5  C   UNL     1      34.002 -21.518 -19.153  0.00  0.00    +0.001 C 
ATOM      6  C   UNL     1      36.416 -21.603 -19.077  0.00  0.00    +0.001 C 
ENDROOT
BRANCH   4  14
ATOM      7  O   UNL     1      29.917 -24.539 -14.198  0.00  0.00    -0.274 OA
ATOM      8  N   UNL     1      30.516 -23.503 -16.230  0.00  0.00    -0.217 N 
ATOM      9  N   UNL     1      33.890 -22.931 -16.603  0.00  0.00    -0.152 N 
ATOM     10  N   UNL     1      32.633 -22.837 -17.117  0.00  0.00    -0.092 NA
ATOM     11  N   UNL     1      32.555 -23.820 -15.057  0.00  0.00    -0.319 NA
ATOM     12  C   UNL     1      29.633 -24.056 -15.285  0.00  0.00    +0.234 C 
ATOM     13  C   UNL     1      31.887 -23.377 -16.155  0.00  0.00    +0.167 C 
ATOM     14  C   UNL     1      35.114 -22.523 -17.172  0.00  0.00    +0.077 C 
ATOM     15  C   UNL     1      33.807 -23.541 -15.344  0.00  0.00    +0.219 C 
ATOM     16  C   UNL     1      36.248 -22.731 -16.469  0.00  0.00    +0.017 C 
ATOM     17  C   UNL     1      35.015 -23.750 -14.625  0.00  0.00    +0.051 C 
ATOM     18  C   UNL     1      36.184 -23.364 -15.163  0.00  0.00    +0.005 C 
ATOM     19  H   UNL     1      30.101 -23.160 -17.055  0.00  0.00    +0.167 HD
BRANCH  12  20
ATOM     20  C   UNL     1      28.194 -24.030 -15.696  0.00  0.00    +0.077 C 
ATOM     21  C   UNL     1      27.786 -23.185 -16.867  0.00  0.00    +0.010 C 
ATOM     22  C   UNL     1      27.394 -22.779 -15.476  0.00  0.00    +0.010 C 
ENDBRANCH  12  20
ENDBRANCH   4  14
BRANCH   1  23
ATOM     23  C   UNL     1      35.366 -19.966 -22.336  0.00  0.00    -0.050 C 
BRANCH  23  27
ATOM     24  S   UNL     1      34.439 -15.578 -22.858  0.00  0.00    -0.014 S 
ATOM     25  O   UNL     1      33.426 -14.568 -22.627  0.00  0.00    -0.173 OA
ATOM     26  O   UNL     1      35.703 -15.241 -23.484  0.00  0.00    -0.173 OA
ATOM     27  N   UNL     1      34.714 -18.653 -22.328  0.00  0.00    +0.392 N 
ATOM     28  C   UNL     1      34.537 -18.173 -23.710  0.00  0.00    -0.051 C 
ATOM     29  C   UNL     1      35.501 -17.710 -21.516  0.00  0.00    -0.051 C 
ATOM     30  C   UNL     1      34.777 -16.383 -21.311  0.00  0.00    +0.128 C 
ATOM     31  C   UNL     1      33.695 -16.905 -23.776  0.00  0.00    +0.128 C 
ATOM     32  H   UNL     1      33.789 -18.730 -21.906  0.00  0.00    -0.079 HD
ENDBRANCH  23  27
ENDBRANCH   1  23
TORSDOF 4
ENDMDL
MODEL 4
REMARK VINA RESULT:      -9.9      4.519      6.755
REMARK  Name = 49831257
REMARK  4 active torsions:
REMARK  status: ('A' for Active; 'I' for Inactive)
REMARK    1  A    between atoms: C_1  and  C_23
REMARK    2  A    between atoms: C_4  and  C_14
REMARK    3  A    between atoms: C_12  and  C_20
REMARK    4  A    between atoms: C_23  and  N_27
REMARK                            x       y       z     vdW  Elec       q    Type
REMARK                         _______ _______ _______ _____ _____    ______ ____
ROOT
ATOM      1  C   UNL     1      33.529 -13.989 -23.658  0.00  0.00    -0.043 C 
ATOM      2  C   UNL     1      34.179 -12.800 -23.987  0.00  0.00    -0.006 C 
ATOM      3  C   UNL     1      32.492 -13.982 -22.725  0.00  0.00    -0.006 C 
ATOM      4  C   UNL     1      32.756 -11.597 -22.449  0.00  0.00    +0.016 C 
ATOM      5  C   UNL     1      33.793 -11.604 -23.382  0.00  0.00    +0.001 C 
ATOM      6  C   UNL     1      32.105 -12.787 -22.120  0.00  0.00    +0.001 C 
ENDROOT
BRANCH   4  14
ATOM      7  O   UNL     1      32.525  -4.563 -24.374  0.00  0.00    -0.274 OA
ATOM      8  N   UNL     1      33.023  -6.791 -24.967  0.00  0.00    -0.217 N 
ATOM      9  N   UNL     1      32.435  -9.098 -22.481  0.00  0.00    -0.152 N 
ATOM     10  N   UNL     1      32.851  -8.841 -23.751  0.00  0.00    -0.092 NA
ATOM     11  N   UNL     1      32.241  -6.893 -22.729  0.00  0.00    -0.319 NA
ATOM     12  C   UNL     1      32.916  -5.404 -25.172  0.00  0.00    +0.234 C 
ATOM     13  C   UNL     1      32.716  -7.519 -23.837  0.00  0.00    +0.167 C 
ATOM     14  C   UNL     1      32.350 -10.334 -21.808  0.00  0.00    +0.077 C 
ATOM     15  C   UNL     1      32.065  -7.885 -21.885  0.00  0.00    +0.219 C 
ATOM     16  C   UNL     1      31.891 -10.342 -20.538  0.00  0.00    +0.017 C 
ATOM     17  C   UNL     1      31.586  -7.920 -20.547  0.00  0.00    +0.051 C 
ATOM     18  C   UNL     1      31.501  -9.096 -19.902  0.00  0.00    +0.005 C 
ATOM     19  H   UNL     1      33.361  -7.312 -25.732  0.00  0.00    +0.167 HD
BRANCH  12  20
ATOM     20  C   UNL     1      33.341  -4.947 -26.533  0.00  0.00    +0.077 C 
ATOM     21  C   UNL     1      34.243  -5.825 -27.348  0.00  0.00    +0.010 C 
ATOM     22  C   UNL     1      34.771  -4.550 -26.758  0.00  0.00    +0.010 C 
ENDBRANCH  12  20
ENDBRANCH   4  14
BRANCH   1  23
ATOM     23  C   UNL     1      33.944 -15.280 -24.313  0.00  0.00    -0.050 C 
BRANCH  23  27
ATOM     24  S   UNL     1      35.562 -18.588 -21.700  0.00  0.00    -0.014 S 
ATOM     25  O   UNL     1      35.193 -19.555 -20.686  0.00  0.00    -0.173 OA
ATOM     26  O   UNL     1      36.925 -18.499 -22.189  0.00  0.00    -0.173 OA
ATOM     27  N   UNL     1      34.080 -16.366 -23.337  0.00  0.00    +0.392 N 
ATOM     28  C   UNL     1      35.024 -15.971 -22.278  0.00  0.00    -0.051 C 
ATOM     29  C   UNL     1      34.506 -17.599 -24.020  0.00  0.00    -0.051 C 
ATOM     30  C   UNL     1      34.481 -18.809 -23.092  0.00  0.00    +0.128 C 
ATOM     31  C   UNL     1      35.063 -16.979 -21.135  0.00  0.00    +0.128 C 
ATOM     32  H   UNL     1      33.179 -16.550 -22.897  0.00  0.00    -0.079 HD
ENDBRANCH  23  27
ENDBRANCH   1  23
TORSDOF 4
ENDMDL
MODEL 5
REMARK VINA RESULT:      -9.9      3.805      5.519
REMARK  Name = 49831257
REMARK  4 active torsions:
REMARK  status: ('A' for Active; 'I' for Inactive)
REMARK    1  A    between atoms: C_1  and  C_23
REMARK    2  A    between atoms: C_4  and  C_14
REMARK    3  A    between atoms: C_12  and  C_20
REMARK    4  A    between atoms: C_23  and  N_27
REMARK                            x       y       z     vdW  Elec       q    Type
REMARK                         _______ _______ _______ _____ _____    ______ ____
ROOT
ATOM      1  C   UNL     1      34.274 -15.438 -23.829  0.00  0.00    -0.043 C 
ATOM      2  C   UNL     1      34.766 -14.986 -22.605  0.00  0.00    -0.006 C 
ATOM      3  C   UNL     1      33.207 -14.779 -24.439  0.00  0.00    -0.006 C 
ATOM      4  C   UNL     1      33.122 -13.216 -22.599  0.00  0.00    +0.016 C 
ATOM      5  C   UNL     1      34.189 -13.875 -21.990  0.00  0.00    +0.001 C 
ATOM      6  C   UNL     1      32.630 -13.668 -23.825  0.00  0.00    +0.001 C 
ENDROOT
BRANCH   4  14
ATOM      7  O   UNL     1      33.681  -5.969 -23.234  0.00  0.00    -0.274 OA
ATOM      8  N   UNL     1      34.352  -8.106 -23.974  0.00  0.00    -0.217 N 
ATOM      9  N   UNL     1      32.853 -10.726 -22.319  0.00  0.00    -0.152 N 
ATOM     10  N   UNL     1      33.719 -10.304 -23.280  0.00  0.00    -0.092 NA
ATOM     11  N   UNL     1      32.782  -8.501 -22.238  0.00  0.00    -0.319 NA
ATOM     12  C   UNL     1      34.340  -6.700 -23.962  0.00  0.00    +0.234 C 
ATOM     13  C   UNL     1      33.636  -8.979 -23.181  0.00  0.00    +0.167 C 
ATOM     14  C   UNL     1      32.511 -12.043 -21.949  0.00  0.00    +0.077 C 
ATOM     15  C   UNL     1      32.294  -9.598 -21.704  0.00  0.00    +0.219 C 
ATOM     16  C   UNL     1      31.607 -12.217 -20.961  0.00  0.00    +0.017 C 
ATOM     17  C   UNL     1      31.344  -9.808 -20.667  0.00  0.00    +0.051 C 
ATOM     18  C   UNL     1      31.014 -11.061 -20.312  0.00  0.00    +0.005 C 
ATOM     19  H   UNL     1      34.950  -8.524 -24.635  0.00  0.00    +0.167 HD
BRANCH  12  20
ATOM     20  C   UNL     1      35.250  -6.067 -24.968  0.00  0.00    +0.077 C 
ATOM     21  C   UNL     1      34.744  -4.915 -25.785  0.00  0.00    +0.010 C 
ATOM     22  C   UNL     1      34.965  -6.252 -26.430  0.00  0.00    +0.010 C 
ENDBRANCH  12  20
ENDBRANCH   4  14
BRANCH   1  23
ATOM     23  C   UNL     1      34.898 -16.637 -24.495  0.00  0.00    -0.050 C 
BRANCH  23  27
ATOM     24  S   UNL     1      34.877 -19.688 -21.167  0.00  0.00    -0.014 S 
ATOM     25  O   UNL     1      35.712 -20.626 -20.444  0.00  0.00    -0.173 OA
ATOM     26  O   UNL     1      33.474 -19.528 -20.839  0.00  0.00    -0.173 OA
ATOM     27  N   UNL     1      35.286 -17.660 -23.520  0.00  0.00    +0.392 N 
ATOM     28  C   UNL     1      34.517 -18.895 -23.758  0.00  0.00    -0.051 C 
ATOM     29  C   UNL     1      35.090 -17.147 -22.153  0.00  0.00    -0.051 C 
ATOM     30  C   UNL     1      35.654 -18.092 -21.097  0.00  0.00    +0.128 C 
ATOM     31  C   UNL     1      35.010 -20.055 -22.900  0.00  0.00    +0.128 C 
ATOM     32  H   UNL     1      36.274 -17.885 -23.629  0.00  0.00    -0.079 HD
ENDBRANCH  23  27
ENDBRANCH   1  23
TORSDOF 4
ENDMDL
MODEL 6
REMARK VINA RESULT:      -9.7      1.434      1.939
REMARK  Name = 49831257
REMARK  4 active torsions:
REMARK  status: ('A' for Active; 'I' for Inactive)
REMARK    1  A    between atoms: C_1  and  C_23
REMARK    2  A    between atoms: C_4  and  C_14
REMARK    3  A    between atoms: C_12  and  C_20
REMARK    4  A    between atoms: C_23  and  N_27
REMARK                            x       y       z     vdW  Elec       q    Type
REMARK                         _______ _______ _______ _____ _____    ______ ____
ROOT
ATOM      1  C   UNL     1      36.226 -20.261 -20.165  0.00  0.00    -0.043 C 
ATOM      2  C   UNL     1      37.100 -19.282 -20.638  0.00  0.00    -0.006 C 
ATOM      3  C   UNL     1      34.898 -20.276 -20.593  0.00  0.00    -0.006 C 
ATOM      4  C   UNL     1      35.318 -18.332 -21.964  0.00  0.00    +0.016 C 
ATOM      5  C   UNL     1      36.646 -18.317 -21.537  0.00  0.00    +0.001 C 
ATOM      6  C   UNL     1      34.444 -19.312 -21.492  0.00  0.00    +0.001 C 
ENDROOT
BRANCH   4  14
ATOM      7  O   UNL     1      32.129 -11.788 -21.478  0.00  0.00    -0.274 OA
ATOM      8  N   UNL     1      33.044 -13.662 -20.375  0.00  0.00    -0.217 N 
ATOM      9  N   UNL     1      34.244 -16.111 -22.475  0.00  0.00    -0.152 N 
ATOM     10  N   UNL     1      34.032 -15.674 -21.204  0.00  0.00    -0.092 NA
ATOM     11  N   UNL     1      33.269 -14.120 -22.693  0.00  0.00    -0.319 NA
ATOM     12  C   UNL     1      32.428 -12.400 -20.461  0.00  0.00    +0.234 C 
ATOM     13  C   UNL     1      33.449 -14.492 -21.399  0.00  0.00    +0.167 C 
ATOM     14  C   UNL     1      34.837 -17.313 -22.913  0.00  0.00    +0.077 C 
ATOM     15  C   UNL     1      33.769 -15.135 -23.362  0.00  0.00    +0.219 C 
ATOM     16  C   UNL     1      34.950 -17.525 -24.242  0.00  0.00    +0.017 C 
ATOM     17  C   UNL     1      33.900 -15.381 -24.755  0.00  0.00    +0.051 C 
ATOM     18  C   UNL     1      34.466 -16.525 -25.177  0.00  0.00    +0.005 C 
ATOM     19  H   UNL     1      33.207 -13.997 -19.463  0.00  0.00    +0.167 HD
BRANCH  12  20
ATOM     20  C   UNL     1      32.120 -11.772 -19.138  0.00  0.00    +0.077 C 
ATOM     21  C   UNL     1      31.158 -10.622 -19.084  0.00  0.00    +0.010 C 
ATOM     22  C   UNL     1      32.623 -10.387 -18.852  0.00  0.00    +0.010 C 
ENDBRANCH  12  20
ENDBRANCH   4  14
BRANCH   1  23
ATOM     23  C   UNL     1      36.716 -21.304 -19.196  0.00  0.00    -0.050 C 
BRANCH  23  27
ATOM     24  S   UNL     1      34.092 -23.390 -16.171  0.00  0.00    -0.014 S 
ATOM     25  O   UNL     1      33.032 -23.175 -15.207  0.00  0.00    -0.173 OA
ATOM     26  O   UNL     1      34.652 -24.710 -16.386  0.00  0.00    -0.173 OA
ATOM     27  N   UNL     1      35.717 -21.602 -18.165  0.00  0.00    +0.392 N 
ATOM     28  C   UNL     1      36.383 -22.124 -16.959  0.00  0.00    -0.051 C 
ATOM     29  C   UNL     1      34.720 -22.547 -18.695  0.00  0.00    -0.051 C 
ATOM     30  C   UNL     1      33.551 -22.748 -17.737  0.00  0.00    +0.128 C 
ATOM     31  C   UNL     1      35.420 -22.273 -15.787  0.00  0.00    +0.128 C 
ATOM     32  H   UNL     1      35.227 -20.747 -17.902  0.00  0.00    -0.079 HD
ENDBRANCH  23  27
ENDBRANCH   1  23
TORSDOF 4
ENDMDL
MODEL 7
REMARK VINA RESULT:      -9.3      7.932     13.033
REMARK  Name = 49831257
REMARK  4 active torsions:
REMARK  status: ('A' for Active; 'I' for Inactive)
REMARK    1  A    between atoms: C_1  and  C_23
REMARK    2  A    between atoms: C_4  and  C_14
REMARK    3  A    between atoms: C_12  and  C_20
REMARK    4  A    between atoms: C_23  and  N_27
REMARK                            x       y       z     vdW  Elec       q    Type
REMARK                         _______ _______ _______ _____ _____    ______ ____
ROOT
ATOM      1  C   UNL     1      34.804  -5.195 -25.989  0.00  0.00    -0.043 C 
ATOM      2  C   UNL     1      33.455  -4.989 -25.705  0.00  0.00    -0.006 C 
ATOM      3  C   UNL     1      35.584  -5.977 -25.137  0.00  0.00    -0.006 C 
ATOM      4  C   UNL     1      33.665  -6.345 -23.717  0.00  0.00    +0.016 C 
ATOM      5  C   UNL     1      32.885  -5.563 -24.569  0.00  0.00    +0.001 C 
ATOM      6  C   UNL     1      35.016  -6.552 -24.000  0.00  0.00    +0.001 C 
ENDROOT
BRANCH   4  14
ATOM      7  O   UNL     1      31.977 -13.094 -21.517  0.00  0.00    -0.274 OA
ATOM      8  N   UNL     1      32.890 -11.695 -23.183  0.00  0.00    -0.217 N 
ATOM      9  N   UNL     1      32.867  -8.342 -22.405  0.00  0.00    -0.152 N 
ATOM     10  N   UNL     1      33.182  -9.326 -23.291  0.00  0.00    -0.092 NA
ATOM     11  N   UNL     1      32.222 -10.240 -21.431  0.00  0.00    -0.319 NA
ATOM     12  C   UNL     1      32.501 -12.919 -22.609  0.00  0.00    +0.234 C 
ATOM     13  C   UNL     1      32.774 -10.425 -22.659  0.00  0.00    +0.167 C 
ATOM     14  C   UNL     1      33.064  -6.951 -22.516  0.00  0.00    +0.077 C 
ATOM     15  C   UNL     1      32.285  -8.936 -21.276  0.00  0.00    +0.219 C 
ATOM     16  C   UNL     1      32.675  -6.164 -21.489  0.00  0.00    +0.017 C 
ATOM     17  C   UNL     1      31.885  -8.087 -20.209  0.00  0.00    +0.051 C 
ATOM     18  C   UNL     1      32.072  -6.759 -20.310  0.00  0.00    +0.005 C 
ATOM     19  H   UNL     1      33.300 -11.753 -24.077  0.00  0.00    +0.167 HD
BRANCH  12  20
ATOM     20  C   UNL     1      32.777 -14.116 -23.463  0.00  0.00    +0.077 C 
ATOM     21  C   UNL     1      34.193 -14.588 -23.622  0.00  0.00    +0.010 C 
ATOM     22  C   UNL     1      33.487 -13.932 -24.773  0.00  0.00    +0.010 C 
ENDBRANCH  12  20
ENDBRANCH   4  14
BRANCH   1  23
ATOM     23  C   UNL     1      35.419  -4.577 -27.216  0.00  0.00    -0.050 C 
BRANCH  23  27
ATOM     24  S   UNL     1      39.561  -5.254 -28.882  0.00  0.00    -0.014 S 
ATOM     25  O   UNL     1      40.787  -6.001 -28.683  0.00  0.00    -0.173 OA
ATOM     26  O   UNL     1      39.425  -4.318 -29.981  0.00  0.00    -0.173 OA
ATOM     27  N   UNL     1      36.786  -5.057 -27.441  0.00  0.00    +0.392 N 
ATOM     28  C   UNL     1      37.734  -3.934 -27.335  0.00  0.00    -0.051 C 
ATOM     29  C   UNL     1      36.871  -5.725 -28.751  0.00  0.00    -0.051 C 
ATOM     30  C   UNL     1      38.216  -6.412 -28.961  0.00  0.00    +0.128 C 
ATOM     31  C   UNL     1      39.185  -4.400 -27.369  0.00  0.00    +0.128 C 
ATOM     32  H   UNL     1      37.034  -5.741 -26.727  0.00  0.00    -0.079 HD
ENDBRANCH  23  27
ENDBRANCH   1  23
TORSDOF 4
ENDMDL
MODEL 8
REMARK VINA RESULT:      -9.1      6.312     10.257
REMARK  Name = 49831257
REMARK  4 active torsions:
REMARK  status: ('A' for Active; 'I' for Inactive)
REMARK    1  A    between atoms: C_1  and  C_23
REMARK    2  A    between atoms: C_4  and  C_14
REMARK    3  A    between atoms: C_12  and  C_20
REMARK    4  A    between atoms: C_23  and  N_27
REMARK                            x       y       z     vdW  Elec       q    Type
REMARK                         _______ _______ _______ _____ _____    ______ ____
ROOT
ATOM      1  C   UNL     1      31.353  -9.803 -21.343  0.00  0.00    -0.043 C 
ATOM      2  C   UNL     1      32.022  -8.939 -20.476  0.00  0.00    -0.006 C 
ATOM      3  C   UNL     1      30.818  -9.317 -22.536  0.00  0.00    -0.006 C 
ATOM      4  C   UNL     1      31.619  -7.103 -21.993  0.00  0.00    +0.016 C 
ATOM      5  C   UNL     1      32.154  -7.589 -20.800  0.00  0.00    +0.001 C 
ATOM      6  C   UNL     1      30.950  -7.967 -22.861  0.00  0.00    +0.001 C 
ENDROOT
BRANCH   4  14
ATOM      7  O   UNL     1      33.882  -3.285 -27.784  0.00  0.00    -0.274 OA
ATOM      8  N   UNL     1      33.472  -5.391 -26.804  0.00  0.00    -0.217 N 
ATOM      9  N   UNL     1      32.248  -5.258 -23.590  0.00  0.00    -0.152 N 
ATOM     10  N   UNL     1      32.638  -6.013 -24.653  0.00  0.00    -0.092 NA
ATOM     11  N   UNL     1      32.870  -3.797 -25.152  0.00  0.00    -0.319 NA
ATOM     12  C   UNL     1      33.875  -4.508 -27.822  0.00  0.00    +0.234 C 
ATOM     13  C   UNL     1      32.998  -5.092 -25.544  0.00  0.00    +0.167 C 
ATOM     14  C   UNL     1      31.757  -5.677 -22.336  0.00  0.00    +0.077 C 
ATOM     15  C   UNL     1      32.399  -3.907 -23.930  0.00  0.00    +0.219 C 
ATOM     16  C   UNL     1      31.420  -4.733 -21.431  0.00  0.00    +0.017 C 
ATOM     17  C   UNL     1      32.037  -2.932 -22.961  0.00  0.00    +0.051 C 
ATOM     18  C   UNL     1      31.568  -3.327 -21.765  0.00  0.00    +0.005 C 
ATOM     19  H   UNL     1      33.537  -6.350 -27.019  0.00  0.00    +0.167 HD
BRANCH  12  20
ATOM     20  C   UNL     1      34.341  -5.181 -29.075  0.00  0.00    +0.077 C 
ATOM     21  C   UNL     1      34.257  -6.677 -29.173  0.00  0.00    +0.010 C 
ATOM     22  C   UNL     1      35.594  -6.008 -29.038  0.00  0.00    +0.010 C 
ENDBRANCH  12  20
ENDBRANCH   4  14
BRANCH   1  23
ATOM     23  C   UNL     1      31.212 -11.261 -20.993  0.00  0.00    -0.050 C 
BRANCH  23  27
ATOM     24  S   UNL     1      33.913 -14.177 -23.134  0.00  0.00    -0.014 S 
ATOM     25  O   UNL     1      35.279 -14.655 -23.212  0.00  0.00    -0.173 OA
ATOM     26  O   UNL     1      32.879 -14.725 -23.989  0.00  0.00    -0.173 OA
ATOM     27  N   UNL     1      32.369 -12.042 -21.439  0.00  0.00    +0.392 N 
ATOM     28  C   UNL     1      32.632 -11.778 -22.865  0.00  0.00    -0.051 C 
ATOM     29  C   UNL     1      32.135 -13.473 -21.180  0.00  0.00    -0.051 C 
ATOM     30  C   UNL     1      33.377 -14.317 -21.446  0.00  0.00    +0.128 C 
ATOM     31  C   UNL     1      33.935 -12.412 -23.338  0.00  0.00    +0.128 C 
ATOM     32  H   UNL     1      33.198 -11.763 -20.915  0.00  0.00    -0.079 HD
ENDBRANCH  23  27
ENDBRANCH   1  23
TORSDOF 4
ENDMDL
MODEL 9
REMARK VINA RESULT:      -9.1      7.026     12.745
REMARK  Name = 49831257
REMARK  4 active torsions:
REMARK  status: ('A' for Active; 'I' for Inactive)
REMARK    1  A    between atoms: C_1  and  C_23
REMARK    2  A    between atoms: C_4  and  C_14
REMARK    3  A    between atoms: C_12  and  C_20
REMARK    4  A    between atoms: C_23  and  N_27
REMARK                            x       y       z     vdW  Elec       q    Type
REMARK                         _______ _______ _______ _____ _____    ______ ____
ROOT
ATOM      1  C   UNL     1      32.864  -5.584 -24.457  0.00  0.00    -0.043 C 
ATOM      2  C   UNL     1      33.902  -6.014 -23.632  0.00  0.00    -0.006 C 
ATOM      3  C   UNL     1      31.601  -6.169 -24.353  0.00  0.00    -0.006 C 
ATOM      4  C   UNL     1      32.417  -7.615 -22.598  0.00  0.00    +0.016 C 
ATOM      5  C   UNL     1      33.679  -7.030 -22.702  0.00  0.00    +0.001 C 
ATOM      6  C   UNL     1      31.378  -7.184 -23.423  0.00  0.00    +0.001 C 
ENDROOT
BRANCH   4  14
ATOM      7  O   UNL     1      33.077 -14.880 -22.499  0.00  0.00    -0.274 OA
ATOM      8  N   UNL     1      33.316 -12.859 -23.692  0.00  0.00    -0.217 N 
ATOM      9  N   UNL     1      32.416 -10.043 -21.929  0.00  0.00    -0.152 N 
ATOM     10  N   UNL     1      32.886 -10.589 -23.083  0.00  0.00    -0.092 NA
ATOM     11  N   UNL     1      32.487 -12.239 -21.557  0.00  0.00    -0.319 NA
ATOM     12  C   UNL     1      33.380 -14.252 -23.505  0.00  0.00    +0.234 C 
ATOM     13  C   UNL     1      32.903 -11.890 -22.802  0.00  0.00    +0.167 C 
ATOM     14  C   UNL     1      32.182  -8.688 -21.617  0.00  0.00    +0.077 C 
ATOM     15  C   UNL     1      32.186 -11.080 -21.014  0.00  0.00    +0.219 C 
ATOM     16  C   UNL     1      31.717  -8.384 -20.386  0.00  0.00    +0.017 C 
ATOM     17  C   UNL     1      31.697 -10.735 -19.724  0.00  0.00    +0.051 C 
ATOM     18  C   UNL     1      31.474  -9.444 -19.423  0.00  0.00    +0.005 C 
ATOM     19  H   UNL     1      33.604 -12.532 -24.575  0.00  0.00    +0.167 HD
BRANCH  12  20
ATOM     20  C   UNL     1      33.881 -15.012 -24.693  0.00  0.00    +0.077 C 
ATOM     21  C   UNL     1      33.505 -16.457 -24.845  0.00  0.00    +0.010 C 
ATOM     22  C   UNL     1      34.916 -16.081 -24.494  0.00  0.00    +0.010 C 
ENDBRANCH  12  20
ENDBRANCH   4  14
BRANCH   1  23
ATOM     23  C   UNL     1      33.103  -4.486 -25.460  0.00  0.00    -0.050 C 
BRANCH  23  27
ATOM     24  S   UNL     1      36.253  -4.661 -28.691  0.00  0.00    -0.014 S 
ATOM     25  O   UNL     1      37.632  -5.021 -28.952  0.00  0.00    -0.173 OA
ATOM     26  O   UNL     1      35.402  -4.143 -29.744  0.00  0.00    -0.173 OA
ATOM     27  N   UNL     1      34.353  -4.688 -26.200  0.00  0.00    +0.392 N 
ATOM     28  C   UNL     1      34.840  -3.399 -26.721  0.00  0.00    -0.051 C 
ATOM     29  C   UNL     1      34.142  -5.670 -27.276  0.00  0.00    -0.051 C 
ATOM     30  C   UNL     1      35.446  -6.065 -27.959  0.00  0.00    +0.128 C 
ATOM     31  C   UNL     1      36.230  -3.513 -27.335  0.00  0.00    +0.128 C 
ATOM     32  H   UNL     1      35.068  -5.060 -25.575  0.00  0.00    -0.079 HD
ENDBRANCH  23  27
ENDBRANCH   1  23
TORSDOF 4
ENDMDL
