MODEL 1
REMARK VINA RESULT:     -12.0      0.000      0.000
REMARK  Name = 54674461
REMARK  5 active torsions:
REMARK  status: ('A' for Active; 'I' for Inactive)
REMARK    1  A    between atoms: N_2  and  C_29
REMARK    2  A    between atoms: C_7  and  C_14
REMARK    3  A    between atoms: C_15  and  N_21
REMARK    4  A    between atoms: C_22  and  O_24
REMARK    5  A    between atoms: C_29  and  C_31
REMARK                            x       y       z     vdW  Elec       q    Type
REMARK                         _______ _______ _______ _____ _____    ______ ____
ROOT
ATOM      1  F   UNL     1      29.259 -22.920 -14.956  0.00  0.00    -0.207 F 
ATOM      2  N   UNL     1      34.310 -24.749 -14.988  0.00  0.00    -0.193 N 
ATOM      3  N   UNL     1      34.901 -24.167 -16.047  0.00  0.00    -0.168 NA
ATOM      4  N   UNL     1      32.171 -24.817 -13.859  0.00  0.00    -0.251 NA
ATOM      5  C   UNL     1      32.718 -23.509 -15.856  0.00  0.00    +0.133 C 
ATOM      6  C   UNL     1      33.003 -24.392 -14.826  0.00  0.00    +0.133 C 
ATOM      7  C   UNL     1      33.928 -23.414 -16.571  0.00  0.00    +0.172 C 
ATOM      8  C   UNL     1      31.424 -22.981 -15.928  0.00  0.00    +0.015 C 
ATOM      9  C   UNL     1      30.514 -23.385 -14.950  0.00  0.00    +0.139 C 
ATOM     10  C   UNL     1      30.933 -24.280 -13.970  0.00  0.00    +0.182 C 
ENDROOT
BRANCH   7  14
ATOM     11  N   UNL     1      33.103 -22.129 -18.385  0.00  0.00    -0.326 NA
ATOM     12  N   UNL     1      35.473 -22.446 -18.087  0.00  0.00    -0.326 NA
ATOM     13  N   UNL     1      32.283 -20.846 -20.199  0.00  0.00    -0.334 N 
ATOM     14  C   UNL     1      34.182 -22.619 -17.746  0.00  0.00    +0.156 C 
ATOM     15  C   UNL     1      34.655 -21.141 -19.937  0.00  0.00    +0.210 C 
ATOM     16  C   UNL     1      33.377 -21.392 -19.481  0.00  0.00    +0.193 C 
ATOM     17  C   UNL     1      35.674 -21.699 -19.193  0.00  0.00    +0.193 C 
ATOM     18  H   UNL     1      31.362 -21.011 -19.893  0.00  0.00    +0.144 HD
ATOM     19  H   UNL     1      32.445 -20.301 -21.002  0.00  0.00    +0.144 HD
ATOM     20  N   UNL     1      37.012 -21.481 -19.607  0.00  0.00    -0.334 N 
ATOM     21  H   UNL     1      37.756 -21.870 -19.092  0.00  0.00    +0.144 HD
ATOM     22  H   UNL     1      37.197 -20.942 -20.410  0.00  0.00    +0.144 HD
BRANCH  15  24
ATOM     23  O   UNL     1      36.408 -18.735 -20.346  0.00  0.00    -0.226 OA
ATOM     24  N   UNL     1      34.901 -20.374 -21.078  0.00  0.00    -0.258 N 
ATOM     25  C   UNL     1      35.727 -19.263 -21.216  0.00  0.00    +0.402 C 
ATOM     26  H   UNL     1      34.428 -20.658 -21.894  0.00  0.00    +0.154 HD
BRANCH  25  27
ATOM     27  O   UNL     1      35.676 -18.819 -22.510  0.00  0.00    -0.431 OA
ATOM     28  C   UNL     1      34.497 -19.166 -23.247  0.00  0.00    +0.257 C 
ENDBRANCH  25  27
ENDBRANCH  15  24
ENDBRANCH   7  14
BRANCH   2  29
ATOM     29  C   UNL     1      35.068 -25.656 -14.158  0.00  0.00    +0.146 C 
BRANCH  29  31
ATOM     30  F   UNL     1      37.875 -26.012 -14.328  0.00  0.00    -0.204 F 
ATOM     31  C   UNL     1      36.044 -24.955 -13.247  0.00  0.00    +0.027 C 
ATOM     32  C   UNL     1      37.415 -25.177 -13.386  0.00  0.00    +0.138 C 
ATOM     33  C   UNL     1      35.576 -24.084 -12.263  0.00  0.00    -0.000 C 
ATOM     34  C   UNL     1      38.315 -24.528 -12.542  0.00  0.00    +0.029 C 
ATOM     35  C   UNL     1      36.477 -23.435 -11.418  0.00  0.00    -0.000 C 
ATOM     36  C   UNL     1      37.847 -23.658 -11.557  0.00  0.00    +0.002 C 
ENDBRANCH  29  31
ENDBRANCH   2  29
TORSDOF 5
ENDMDL
MODEL 2
REMARK VINA RESULT:     -12.0      0.012      1.489
REMARK  Name = 54674461
REMARK  5 active torsions:
REMARK  status: ('A' for Active; 'I' for Inactive)
REMARK    1  A    between atoms: N_2  and  C_29
REMARK    2  A    between atoms: C_7  and  C_14
REMARK    3  A    between atoms: C_15  and  N_21
REMARK    4  A    between atoms: C_22  and  O_24
REMARK    5  A    between atoms: C_29  and  C_31
REMARK                            x       y       z     vdW  Elec       q    Type
REMARK                         _______ _______ _______ _____ _____    ______ ____
ROOT
ATOM      1  F   UNL     1      29.275 -22.911 -14.941  0.00  0.00    -0.207 F 
ATOM      2  N   UNL     1      34.322 -24.750 -14.989  0.00  0.00    -0.193 N 
ATOM      3  N   UNL     1      34.911 -24.170 -16.050  0.00  0.00    -0.168 NA
ATOM      4  N   UNL     1      32.187 -24.813 -13.853  0.00  0.00    -0.251 NA
ATOM      5  C   UNL     1      32.729 -23.508 -15.852  0.00  0.00    +0.133 C 
ATOM      6  C   UNL     1      33.016 -24.390 -14.823  0.00  0.00    +0.133 C 
ATOM      7  C   UNL     1      33.937 -23.415 -16.572  0.00  0.00    +0.172 C 
ATOM      8  C   UNL     1      31.436 -22.977 -15.920  0.00  0.00    +0.015 C 
ATOM      9  C   UNL     1      30.528 -23.378 -14.939  0.00  0.00    +0.139 C 
ATOM     10  C   UNL     1      30.949 -24.273 -13.960  0.00  0.00    +0.182 C 
ENDROOT
BRANCH   7  14
ATOM     11  N   UNL     1      35.479 -22.449 -18.092  0.00  0.00    -0.326 NA
ATOM     12  N   UNL     1      33.108 -22.133 -18.385  0.00  0.00    -0.326 NA
ATOM     13  N   UNL     1      37.015 -21.481 -19.614  0.00  0.00    -0.334 N 
ATOM     14  C   UNL     1      34.189 -22.622 -17.748  0.00  0.00    +0.156 C 
ATOM     15  C   UNL     1      34.657 -21.142 -19.938  0.00  0.00    +0.210 C 
ATOM     16  C   UNL     1      35.678 -21.701 -19.197  0.00  0.00    +0.193 C 
ATOM     17  C   UNL     1      33.380 -21.393 -19.481  0.00  0.00    +0.193 C 
ATOM     18  H   UNL     1      37.760 -21.870 -19.100  0.00  0.00    +0.144 HD
ATOM     19  H   UNL     1      37.198 -20.942 -20.416  0.00  0.00    +0.144 HD
ATOM     20  N   UNL     1      32.285 -20.847 -20.196  0.00  0.00    -0.334 N 
ATOM     21  H   UNL     1      31.365 -21.014 -19.888  0.00  0.00    +0.144 HD
ATOM     22  H   UNL     1      32.445 -20.301 -20.999  0.00  0.00    +0.144 HD
BRANCH  15  24
ATOM     23  O   UNL     1      36.420 -18.741 -20.342  0.00  0.00    -0.226 OA
ATOM     24  N   UNL     1      34.901 -20.369 -21.076  0.00  0.00    -0.258 N 
ATOM     25  C   UNL     1      35.731 -19.261 -21.212  0.00  0.00    +0.402 C 
ATOM     26  H   UNL     1      34.421 -20.645 -21.891  0.00  0.00    +0.154 HD
BRANCH  25  27
ATOM     27  O   UNL     1      35.673 -18.808 -22.502  0.00  0.00    -0.431 OA
ATOM     28  C   UNL     1      34.503 -19.171 -23.245  0.00  0.00    +0.257 C 
ENDBRANCH  25  27
ENDBRANCH  15  24
ENDBRANCH   7  14
BRANCH   2  29
ATOM     29  C   UNL     1      35.081 -25.657 -14.161  0.00  0.00    +0.146 C 
BRANCH  29  31
ATOM     30  F   UNL     1      37.888 -26.020 -14.318  0.00  0.00    -0.204 F 
ATOM     31  C   UNL     1      36.055 -24.957 -13.246  0.00  0.00    +0.027 C 
ATOM     32  C   UNL     1      37.426 -25.182 -13.379  0.00  0.00    +0.138 C 
ATOM     33  C   UNL     1      35.584 -24.083 -12.266  0.00  0.00    -0.000 C 
ATOM     34  C   UNL     1      38.324 -24.533 -12.533  0.00  0.00    +0.029 C 
ATOM     35  C   UNL     1      36.483 -23.434 -11.419  0.00  0.00    -0.000 C 
ATOM     36  C   UNL     1      37.853 -23.660 -11.552  0.00  0.00    +0.002 C 
ENDBRANCH  29  31
ENDBRANCH   2  29
TORSDOF 5
ENDMDL
MODEL 3
REMARK VINA RESULT:     -11.7      1.429      5.004
REMARK  Name = 54674461
REMARK  5 active torsions:
REMARK  status: ('A' for Active; 'I' for Inactive)
REMARK    1  A    between atoms: N_2  and  C_29
REMARK    2  A    between atoms: C_7  and  C_14
REMARK    3  A    between atoms: C_15  and  N_21
REMARK    4  A    between atoms: C_22  and  O_24
REMARK    5  A    between atoms: C_29  and  C_31
REMARK                            x       y       z     vdW  Elec       q    Type
REMARK                         _______ _______ _______ _____ _____    ______ ____
ROOT
ATOM      1  F   UNL     1      38.197 -24.258 -14.046  0.00  0.00    -0.207 F 
ATOM      2  N   UNL     1      32.894 -24.207 -14.903  0.00  0.00    -0.193 N 
ATOM      3  N   UNL     1      32.720 -23.561 -16.069  0.00  0.00    -0.168 NA
ATOM      4  N   UNL     1      34.667 -24.905 -13.412  0.00  0.00    -0.251 NA
ATOM      5  C   UNL     1      34.937 -23.690 -15.521  0.00  0.00    +0.133 C 
ATOM      6  C   UNL     1      34.201 -24.313 -14.526  0.00  0.00    +0.133 C 
ATOM      7  C   UNL     1      33.966 -23.249 -16.441  0.00  0.00    +0.172 C 
ATOM      8  C   UNL     1      36.330 -23.655 -15.382  0.00  0.00    +0.015 C 
ATOM      9  C   UNL     1      36.873 -24.254 -14.245  0.00  0.00    +0.139 C 
ATOM     10  C   UNL     1      36.017 -24.845 -13.322  0.00  0.00    +0.182 C 
ENDROOT
BRANCH   7  14
ATOM     11  N   UNL     1      35.481 -22.387 -18.049  0.00  0.00    -0.326 NA
ATOM     12  N   UNL     1      33.106 -22.084 -18.319  0.00  0.00    -0.326 NA
ATOM     13  N   UNL     1      36.990 -21.525 -19.658  0.00  0.00    -0.334 N 
ATOM     14  C   UNL     1      34.197 -22.534 -17.671  0.00  0.00    +0.156 C 
ATOM     15  C   UNL     1      34.628 -21.200 -19.961  0.00  0.00    +0.210 C 
ATOM     16  C   UNL     1      35.661 -21.713 -19.203  0.00  0.00    +0.193 C 
ATOM     17  C   UNL     1      33.358 -21.418 -19.465  0.00  0.00    +0.193 C 
ATOM     18  H   UNL     1      37.744 -21.881 -19.134  0.00  0.00    +0.144 HD
ATOM     19  H   UNL     1      37.159 -21.039 -20.497  0.00  0.00    +0.144 HD
ATOM     20  N   UNL     1      32.251 -20.917 -20.194  0.00  0.00    -0.334 N 
ATOM     21  H   UNL     1      31.336 -21.060 -19.859  0.00  0.00    +0.144 HD
ATOM     22  H   UNL     1      32.397 -20.425 -21.034  0.00  0.00    +0.144 HD
BRANCH  15  24
ATOM     23  O   UNL     1      35.992 -18.572 -20.471  0.00  0.00    -0.226 OA
ATOM     24  N   UNL     1      34.851 -20.504 -21.151  0.00  0.00    -0.258 N 
ATOM     25  C   UNL     1      35.492 -19.283 -21.334  0.00  0.00    +0.402 C 
ATOM     26  H   UNL     1      34.510 -20.934 -21.969  0.00  0.00    +0.154 HD
BRANCH  25  27
ATOM     27  O   UNL     1      35.490 -18.967 -22.666  0.00  0.00    -0.431 OA
ATOM     28  C   UNL     1      34.311 -19.326 -23.396  0.00  0.00    +0.257 C 
ENDBRANCH  25  27
ENDBRANCH  15  24
ENDBRANCH   7  14
BRANCH   2  29
ATOM     29  C   UNL     1      31.743 -24.706 -14.187  0.00  0.00    +0.146 C 
BRANCH  29  31
ATOM     30  F   UNL     1      30.067 -26.379 -15.744  0.00  0.00    -0.204 F 
ATOM     31  C   UNL     1      30.431 -24.244 -14.769  0.00  0.00    +0.027 C 
ATOM     32  C   UNL     1      29.655 -25.122 -15.527  0.00  0.00    +0.138 C 
ATOM     33  C   UNL     1      29.993 -22.938 -14.549  0.00  0.00    -0.000 C 
ATOM     34  C   UNL     1      28.442 -24.693 -16.065  0.00  0.00    +0.029 C 
ATOM     35  C   UNL     1      28.780 -22.509 -15.088  0.00  0.00    -0.000 C 
ATOM     36  C   UNL     1      28.004 -23.386 -15.846  0.00  0.00    +0.002 C 
ENDBRANCH  29  31
ENDBRANCH   2  29
TORSDOF 5
ENDMDL
MODEL 4
REMARK VINA RESULT:     -11.6      1.451      4.796
REMARK  Name = 54674461
REMARK  5 active torsions:
REMARK  status: ('A' for Active; 'I' for Inactive)
REMARK    1  A    between atoms: N_2  and  C_29
REMARK    2  A    between atoms: C_7  and  C_14
REMARK    3  A    between atoms: C_15  and  N_21
REMARK    4  A    between atoms: C_22  and  O_24
REMARK    5  A    between atoms: C_29  and  C_31
REMARK                            x       y       z     vdW  Elec       q    Type
REMARK                         _______ _______ _______ _____ _____    ______ ____
ROOT
ATOM      1  F   UNL     1      38.140 -24.304 -13.979  0.00  0.00    -0.207 F 
ATOM      2  N   UNL     1      32.842 -24.155 -14.852  0.00  0.00    -0.193 N 
ATOM      3  N   UNL     1      32.684 -23.525 -16.030  0.00  0.00    -0.168 NA
ATOM      4  N   UNL     1      34.596 -24.866 -13.345  0.00  0.00    -0.251 NA
ATOM      5  C   UNL     1      34.897 -23.692 -15.473  0.00  0.00    +0.133 C 
ATOM      6  C   UNL     1      34.145 -24.283 -14.470  0.00  0.00    +0.133 C 
ATOM      7  C   UNL     1      33.938 -23.246 -16.404  0.00  0.00    +0.172 C 
ATOM      8  C   UNL     1      36.290 -23.684 -15.330  0.00  0.00    +0.015 C 
ATOM      9  C   UNL     1      36.818 -24.275 -14.182  0.00  0.00    +0.139 C 
ATOM     10  C   UNL     1      35.946 -24.833 -13.252  0.00  0.00    +0.182 C 
ENDROOT
BRANCH   7  14
ATOM     11  N   UNL     1      33.105 -22.130 -18.323  0.00  0.00    -0.326 NA
ATOM     12  N   UNL     1      35.477 -22.411 -18.003  0.00  0.00    -0.326 NA
ATOM     13  N   UNL     1      32.278 -21.014 -20.241  0.00  0.00    -0.334 N 
ATOM     14  C   UNL     1      34.187 -22.557 -17.645  0.00  0.00    +0.156 C 
ATOM     15  C   UNL     1      34.651 -21.277 -19.958  0.00  0.00    +0.210 C 
ATOM     16  C   UNL     1      33.374 -21.491 -19.480  0.00  0.00    +0.193 C 
ATOM     17  C   UNL     1      35.674 -21.764 -19.170  0.00  0.00    +0.193 C 
ATOM     18  H   UNL     1      31.358 -21.155 -19.920  0.00  0.00    +0.144 HD
ATOM     19  H   UNL     1      32.437 -20.542 -21.090  0.00  0.00    +0.144 HD
ATOM     20  N   UNL     1      37.010 -21.580 -19.604  0.00  0.00    -0.334 N 
ATOM     21  H   UNL     1      37.756 -21.919 -19.059  0.00  0.00    +0.144 HD
ATOM     22  H   UNL     1      37.192 -21.113 -20.452  0.00  0.00    +0.144 HD
BRANCH  15  24
ATOM     23  O   UNL     1      35.127 -18.367 -20.537  0.00  0.00    -0.226 OA
ATOM     24  N   UNL     1      34.893 -20.614 -21.164  0.00  0.00    -0.258 N 
ATOM     25  C   UNL     1      35.109 -19.256 -21.379  0.00  0.00    +0.402 C 
ATOM     26  H   UNL     1      34.914 -21.182 -21.968  0.00  0.00    +0.154 HD
BRANCH  25  27
ATOM     27  O   UNL     1      35.306 -19.037 -22.716  0.00  0.00    -0.431 OA
ATOM     28  C   UNL     1      34.134 -19.074 -23.539  0.00  0.00    +0.257 C 
ENDBRANCH  25  27
ENDBRANCH  15  24
ENDBRANCH   7  14
BRANCH   2  29
ATOM     29  C   UNL     1      31.679 -24.617 -14.131  0.00  0.00    +0.146 C 
BRANCH  29  31
ATOM     30  F   UNL     1      30.077 -26.331 -15.721  0.00  0.00    -0.204 F 
ATOM     31  C   UNL     1      30.377 -24.182 -14.756  0.00  0.00    +0.027 C 
ATOM     32  C   UNL     1      29.638 -25.079 -15.528  0.00  0.00    +0.138 C 
ATOM     33  C   UNL     1      29.912 -22.882 -14.561  0.00  0.00    -0.000 C 
ATOM     34  C   UNL     1      28.434 -24.675 -16.104  0.00  0.00    +0.029 C 
ATOM     35  C   UNL     1      28.708 -22.478 -15.139  0.00  0.00    -0.000 C 
ATOM     36  C   UNL     1      27.969 -23.374 -15.911  0.00  0.00    +0.002 C 
ENDBRANCH  29  31
ENDBRANCH   2  29
TORSDOF 5
ENDMDL
MODEL 5
REMARK VINA RESULT:     -11.4      1.080      2.139
REMARK  Name = 54674461
REMARK  5 active torsions:
REMARK  status: ('A' for Active; 'I' for Inactive)
REMARK    1  A    between atoms: N_2  and  C_29
REMARK    2  A    between atoms: C_7  and  C_14
REMARK    3  A    between atoms: C_15  and  N_21
REMARK    4  A    between atoms: C_22  and  O_24
REMARK    5  A    between atoms: C_29  and  C_31
REMARK                            x       y       z     vdW  Elec       q    Type
REMARK                         _______ _______ _______ _____ _____    ______ ____
ROOT
ATOM      1  F   UNL     1      28.718 -23.579 -15.852  0.00  0.00    -0.207 F 
ATOM      2  N   UNL     1      33.899 -24.135 -14.544  0.00  0.00    -0.193 N 
ATOM      3  N   UNL     1      34.592 -23.589 -15.560  0.00  0.00    -0.168 NA
ATOM      4  N   UNL     1      31.614 -24.545 -13.862  0.00  0.00    -0.251 NA
ATOM      5  C   UNL     1      32.338 -23.451 -15.930  0.00  0.00    +0.133 C 
ATOM      6  C   UNL     1      32.546 -24.080 -14.712  0.00  0.00    +0.133 C 
ATOM      7  C   UNL     1      33.637 -23.174 -16.400  0.00  0.00    +0.172 C 
ATOM      8  C   UNL     1      31.017 -23.262 -16.353  0.00  0.00    +0.015 C 
ATOM      9  C   UNL     1      30.004 -23.725 -15.512  0.00  0.00    +0.139 C 
ATOM     10  C   UNL     1      30.354 -24.341 -14.314  0.00  0.00    +0.182 C 
ENDROOT
BRANCH   7  14
ATOM     11  N   UNL     1      35.303 -22.493 -17.944  0.00  0.00    -0.326 NA
ATOM     12  N   UNL     1      32.980 -22.005 -18.355  0.00  0.00    -0.326 NA
ATOM     13  N   UNL     1      36.964 -21.811 -19.489  0.00  0.00    -0.334 N 
ATOM     14  C   UNL     1      33.993 -22.522 -17.635  0.00  0.00    +0.156 C 
ATOM     15  C   UNL     1      34.657 -21.304 -19.933  0.00  0.00    +0.210 C 
ATOM     16  C   UNL     1      35.601 -21.875 -19.104  0.00  0.00    +0.193 C 
ATOM     17  C   UNL     1      33.348 -21.400 -19.504  0.00  0.00    +0.193 C 
ATOM     18  H   UNL     1      37.656 -22.211 -18.913  0.00  0.00    +0.144 HD
ATOM     19  H   UNL     1      37.218 -21.369 -20.330  0.00  0.00    +0.144 HD
ATOM     20  N   UNL     1      32.328 -20.834 -20.307  0.00  0.00    -0.334 N 
ATOM     21  H   UNL     1      31.388 -20.890 -20.021  0.00  0.00    +0.144 HD
ATOM     22  H   UNL     1      32.560 -20.383 -21.152  0.00  0.00    +0.144 HD
BRANCH  15  24
ATOM     23  O   UNL     1      35.168 -18.405 -20.537  0.00  0.00    -0.226 OA
ATOM     24  N   UNL     1      35.001 -20.667 -21.128  0.00  0.00    -0.258 N 
ATOM     25  C   UNL     1      35.229 -19.314 -21.356  0.00  0.00    +0.402 C 
ATOM     26  H   UNL     1      35.097 -21.255 -21.913  0.00  0.00    +0.154 HD
BRANCH  25  27
ATOM     27  O   UNL     1      35.543 -19.124 -22.675  0.00  0.00    -0.431 OA
ATOM     28  C   UNL     1      34.718 -18.197 -23.391  0.00  0.00    +0.257 C 
ENDBRANCH  25  27
ENDBRANCH  15  24
ENDBRANCH   7  14
BRANCH   2  29
ATOM     29  C   UNL     1      34.609 -24.702 -13.422  0.00  0.00    +0.146 C 
BRANCH  29  31
ATOM     30  F   UNL     1      36.976 -23.301 -12.739  0.00  0.00    -0.204 F 
ATOM     31  C   UNL     1      35.989 -25.195 -13.777  0.00  0.00    +0.027 C 
ATOM     32  C   UNL     1      37.113 -24.454 -13.409  0.00  0.00    +0.138 C 
ATOM     33  C   UNL     1      36.143 -26.394 -14.474  0.00  0.00    -0.000 C 
ATOM     34  C   UNL     1      38.389 -24.912 -13.738  0.00  0.00    +0.029 C 
ATOM     35  C   UNL     1      37.419 -26.851 -14.804  0.00  0.00    -0.000 C 
ATOM     36  C   UNL     1      38.542 -26.110 -14.436  0.00  0.00    +0.002 C 
ENDBRANCH  29  31
ENDBRANCH   2  29
TORSDOF 5
ENDMDL
MODEL 6
REMARK VINA RESULT:     -11.4      3.715      7.423
REMARK  Name = 54674461
REMARK  5 active torsions:
REMARK  status: ('A' for Active; 'I' for Inactive)
REMARK    1  A    between atoms: N_2  and  C_29
REMARK    2  A    between atoms: C_7  and  C_14
REMARK    3  A    between atoms: C_15  and  N_21
REMARK    4  A    between atoms: C_22  and  O_24
REMARK    5  A    between atoms: C_29  and  C_31
REMARK                            x       y       z     vdW  Elec       q    Type
REMARK                         _______ _______ _______ _____ _____    ______ ____
ROOT
ATOM      1  F   UNL     1      30.692 -24.300 -12.366  0.00  0.00    -0.207 F 
ATOM      2  N   UNL     1      33.046 -23.120 -17.048  0.00  0.00    -0.193 N 
ATOM      3  N   UNL     1      34.340 -23.458 -16.901  0.00  0.00    -0.168 NA
ATOM      4  N   UNL     1      30.973 -23.115 -15.800  0.00  0.00    -0.251 NA
ATOM      5  C   UNL     1      33.152 -23.889 -14.993  0.00  0.00    +0.133 C 
ATOM      6  C   UNL     1      32.289 -23.355 -15.938  0.00  0.00    +0.133 C 
ATOM      7  C   UNL     1      34.398 -23.926 -15.649  0.00  0.00    +0.172 C 
ATOM      8  C   UNL     1      32.625 -24.227 -13.741  0.00  0.00    +0.015 C 
ATOM      9  C   UNL     1      31.263 -24.000 -13.538  0.00  0.00    +0.139 C 
ATOM     10  C   UNL     1      30.511 -23.457 -14.575  0.00  0.00    +0.182 C 
ENDROOT
BRANCH   7  14
ATOM     11  N   UNL     1      36.764 -23.788 -15.556  0.00  0.00    -0.326 NA
ATOM     12  N   UNL     1      35.577 -25.402 -14.216  0.00  0.00    -0.326 NA
ATOM     13  N   UNL     1      39.126 -23.655 -15.460  0.00  0.00    -0.334 N 
ATOM     14  C   UNL     1      35.649 -24.398 -15.110  0.00  0.00    +0.156 C 
ATOM     15  C   UNL     1      37.979 -25.279 -14.110  0.00  0.00    +0.210 C 
ATOM     16  C   UNL     1      37.916 -24.255 -15.033  0.00  0.00    +0.193 C 
ATOM     17  C   UNL     1      36.767 -25.821 -13.734  0.00  0.00    +0.193 C 
ATOM     18  H   UNL     1      39.106 -22.922 -16.118  0.00  0.00    +0.144 HD
ATOM     19  H   UNL     1      39.986 -23.969 -15.099  0.00  0.00    +0.144 HD
ATOM     20  N   UNL     1      36.760 -26.877 -12.790  0.00  0.00    -0.334 N 
ATOM     21  H   UNL     1      35.907 -27.279 -12.507  0.00  0.00    +0.144 HD
ATOM     22  H   UNL     1      37.609 -27.209 -12.418  0.00  0.00    +0.144 HD
BRANCH  15  24
ATOM     23  O   UNL     1      40.429 -26.339 -15.489  0.00  0.00    -0.226 OA
ATOM     24  N   UNL     1      39.191 -25.740 -13.591  0.00  0.00    -0.258 N 
ATOM     25  C   UNL     1      40.301 -26.223 -14.277  0.00  0.00    +0.402 C 
ATOM     26  H   UNL     1      39.271 -25.720 -12.609  0.00  0.00    +0.154 HD
BRANCH  25  27
ATOM     27  O   UNL     1      41.274 -26.567 -13.377  0.00  0.00    -0.431 OA
ATOM     28  C   UNL     1      41.657 -27.947 -13.361  0.00  0.00    +0.257 C 
ENDBRANCH  25  27
ENDBRANCH  15  24
ENDBRANCH   7  14
BRANCH   2  29
ATOM     29  C   UNL     1      32.594 -22.564 -18.301  0.00  0.00    +0.146 C 
BRANCH  29  31
ATOM     30  F   UNL     1      32.063 -20.460 -20.124  0.00  0.00    -0.204 F 
ATOM     31  C   UNL     1      33.678 -21.835 -19.056  0.00  0.00    +0.027 C 
ATOM     32  C   UNL     1      33.345 -20.807 -19.940  0.00  0.00    +0.138 C 
ATOM     33  C   UNL     1      35.014 -22.189 -18.871  0.00  0.00    -0.000 C 
ATOM     34  C   UNL     1      34.348 -20.135 -20.637  0.00  0.00    +0.029 C 
ATOM     35  C   UNL     1      36.017 -21.516 -19.569  0.00  0.00    -0.000 C 
ATOM     36  C   UNL     1      35.685 -20.489 -20.452  0.00  0.00    +0.002 C 
ENDBRANCH  29  31
ENDBRANCH   2  29
TORSDOF 5
ENDMDL
MODEL 7
REMARK VINA RESULT:     -11.0      1.881      5.095
REMARK  Name = 54674461
REMARK  5 active torsions:
REMARK  status: ('A' for Active; 'I' for Inactive)
REMARK    1  A    between atoms: N_2  and  C_29
REMARK    2  A    between atoms: C_7  and  C_14
REMARK    3  A    between atoms: C_15  and  N_21
REMARK    4  A    between atoms: C_22  and  O_24
REMARK    5  A    between atoms: C_29  and  C_31
REMARK                            x       y       z     vdW  Elec       q    Type
REMARK                         _______ _______ _______ _____ _____    ______ ____
ROOT
ATOM      1  F   UNL     1      37.987 -24.025 -11.306  0.00  0.00    -0.207 F 
ATOM      2  N   UNL     1      33.229 -24.611 -13.730  0.00  0.00    -0.193 N 
ATOM      3  N   UNL     1      33.361 -24.034 -14.937  0.00  0.00    -0.168 NA
ATOM      4  N   UNL     1      34.514 -25.046 -11.727  0.00  0.00    -0.251 NA
ATOM      5  C   UNL     1      35.303 -23.889 -13.735  0.00  0.00    +0.133 C 
ATOM      6  C   UNL     1      34.359 -24.553 -12.968  0.00  0.00    +0.133 C 
ATOM      7  C   UNL     1      34.626 -23.596 -14.936  0.00  0.00    +0.172 C 
ATOM      8  C   UNL     1      36.575 -23.690 -13.184  0.00  0.00    +0.015 C 
ATOM      9  C   UNL     1      36.796 -24.179 -11.896  0.00  0.00    +0.139 C 
ATOM     10  C   UNL     1      35.758 -24.829 -11.236  0.00  0.00    +0.182 C 
ENDROOT
BRANCH   7  14
ATOM     11  N   UNL     1      36.163 -22.044 -15.858  0.00  0.00    -0.326 NA
ATOM     12  N   UNL     1      34.587 -23.195 -17.272  0.00  0.00    -0.326 NA
ATOM     13  N   UNL     1      37.696 -20.494 -16.784  0.00  0.00    -0.334 N 
ATOM     14  C   UNL     1      35.155 -22.907 -16.086  0.00  0.00    +0.156 C 
ATOM     15  C   UNL     1      36.138 -21.621 -18.227  0.00  0.00    +0.210 C 
ATOM     16  C   UNL     1      36.633 -21.416 -16.955  0.00  0.00    +0.193 C 
ATOM     17  C   UNL     1      35.105 -22.531 -18.327  0.00  0.00    +0.193 C 
ATOM     18  H   UNL     1      38.065 -20.331 -15.886  0.00  0.00    +0.144 HD
ATOM     19  H   UNL     1      38.065 -20.019 -17.562  0.00  0.00    +0.144 HD
ATOM     20  N   UNL     1      34.550 -22.789 -19.605  0.00  0.00    -0.334 N 
ATOM     21  H   UNL     1      33.812 -23.433 -19.700  0.00  0.00    +0.144 HD
ATOM     22  H   UNL     1      34.902 -22.321 -20.397  0.00  0.00    +0.144 HD
BRANCH  15  24
ATOM     23  O   UNL     1      34.788 -19.831 -20.228  0.00  0.00    -0.226 OA
ATOM     24  N   UNL     1      36.647 -20.950 -19.342  0.00  0.00    -0.258 N 
ATOM     25  C   UNL     1      35.976 -20.129 -20.241  0.00  0.00    +0.402 C 
ATOM     26  H   UNL     1      37.609 -21.075 -19.513  0.00  0.00    +0.154 HD
BRANCH  25  27
ATOM     27  O   UNL     1      36.859 -19.676 -21.185  0.00  0.00    -0.431 OA
ATOM     28  C   UNL     1      36.357 -18.686 -22.091  0.00  0.00    +0.257 C 
ENDBRANCH  25  27
ENDBRANCH  15  24
ENDBRANCH   7  14
BRANCH   2  29
ATOM     29  C   UNL     1      31.967 -25.210 -13.362  0.00  0.00    +0.146 C 
BRANCH  29  31
ATOM     30  F   UNL     1      30.049 -26.723 -14.798  0.00  0.00    -0.204 F 
ATOM     31  C   UNL     1      30.785 -24.588 -14.062  0.00  0.00    +0.027 C 
ATOM     32  C   UNL     1      29.878 -25.394 -14.752  0.00  0.00    +0.138 C 
ATOM     33  C   UNL     1      30.598 -23.207 -14.019  0.00  0.00    -0.000 C 
ATOM     34  C   UNL     1      28.785 -24.817 -15.398  0.00  0.00    +0.029 C 
ATOM     35  C   UNL     1      29.505 -22.630 -14.667  0.00  0.00    -0.000 C 
ATOM     36  C   UNL     1      28.598 -23.435 -15.356  0.00  0.00    +0.002 C 
ENDBRANCH  29  31
ENDBRANCH   2  29
TORSDOF 5
ENDMDL
MODEL 8
REMARK VINA RESULT:     -10.4      9.622     14.668
REMARK  Name = 54674461
REMARK  5 active torsions:
REMARK  status: ('A' for Active; 'I' for Inactive)
REMARK    1  A    between atoms: N_2  and  C_29
REMARK    2  A    between atoms: C_7  and  C_14
REMARK    3  A    between atoms: C_15  and  N_21
REMARK    4  A    between atoms: C_22  and  O_24
REMARK    5  A    between atoms: C_29  and  C_31
REMARK                            x       y       z     vdW  Elec       q    Type
REMARK                         _______ _______ _______ _____ _____    ______ ____
ROOT
ATOM      1  F   UNL     1      31.707 -10.848 -17.604  0.00  0.00    -0.207 F 
ATOM      2  N   UNL     1      32.016  -9.245 -22.722  0.00  0.00    -0.193 N 
ATOM      3  N   UNL     1      32.469 -10.308 -23.409  0.00  0.00    -0.168 NA
ATOM      4  N   UNL     1      31.444  -8.601 -20.461  0.00  0.00    -0.251 NA
ATOM      5  C   UNL     1      32.265 -10.792 -21.182  0.00  0.00    +0.133 C 
ATOM      6  C   UNL     1      31.875  -9.478 -21.385  0.00  0.00    +0.133 C 
ATOM      7  C   UNL     1      32.619 -11.247 -22.468  0.00  0.00    +0.172 C 
ATOM      8  C   UNL     1      32.218 -11.297 -19.878  0.00  0.00    +0.015 C 
ATOM      9  C   UNL     1      31.778 -10.434 -18.874  0.00  0.00    +0.139 C 
ATOM     10  C   UNL     1      31.416  -9.135 -19.216  0.00  0.00    +0.182 C 
ENDROOT
BRANCH   7  14
ATOM     11  N   UNL     1      33.541 -13.331 -21.814  0.00  0.00    -0.326 NA
ATOM     12  N   UNL     1      33.056 -12.880 -24.131  0.00  0.00    -0.326 NA
ATOM     13  N   UNL     1      34.461 -15.415 -21.165  0.00  0.00    -0.334 N 
ATOM     14  C   UNL     1      33.098 -12.559 -22.824  0.00  0.00    +0.156 C 
ATOM     15  C   UNL     1      33.994 -15.001 -23.487  0.00  0.00    +0.210 C 
ATOM     16  C   UNL     1      33.983 -14.551 -22.182  0.00  0.00    +0.193 C 
ATOM     17  C   UNL     1      33.514 -14.114 -24.429  0.00  0.00    +0.193 C 
ATOM     18  H   UNL     1      34.463 -15.116 -20.227  0.00  0.00    +0.144 HD
ATOM     19  H   UNL     1      34.790 -16.313 -21.397  0.00  0.00    +0.144 HD
ATOM     20  N   UNL     1      33.498 -14.512 -25.789  0.00  0.00    -0.334 N 
ATOM     21  H   UNL     1      33.161 -13.896 -26.478  0.00  0.00    +0.144 HD
ATOM     22  H   UNL     1      33.826 -15.405 -26.043  0.00  0.00    +0.144 HD
BRANCH  15  24
ATOM     23  O   UNL     1      32.723 -17.189 -25.107  0.00  0.00    -0.226 OA
ATOM     24  N   UNL     1      34.462 -16.271 -23.833  0.00  0.00    -0.258 N 
ATOM     25  C   UNL     1      33.831 -17.252 -24.590  0.00  0.00    +0.402 C 
ATOM     26  H   UNL     1      35.359 -16.502 -23.496  0.00  0.00    +0.154 HD
BRANCH  25  27
ATOM     27  O   UNL     1      34.649 -18.346 -24.685  0.00  0.00    -0.431 OA
ATOM     28  C   UNL     1      34.572 -19.284 -23.606  0.00  0.00    +0.257 C 
ENDBRANCH  25  27
ENDBRANCH  15  24
ENDBRANCH   7  14
BRANCH   2  29
ATOM     29  C   UNL     1      31.733  -8.014 -23.420  0.00  0.00    +0.146 C 
BRANCH  29  31
ATOM     30  F   UNL     1      34.015  -7.157 -21.975  0.00  0.00    -0.204 F 
ATOM     31  C   UNL     1      32.946  -7.409 -24.080  0.00  0.00    +0.027 C 
ATOM     32  C   UNL     1      34.037  -7.009 -23.307  0.00  0.00    +0.138 C 
ATOM     33  C   UNL     1      32.978  -7.251 -25.466  0.00  0.00    -0.000 C 
ATOM     34  C   UNL     1      35.158  -6.451 -23.920  0.00  0.00    +0.029 C 
ATOM     35  C   UNL     1      34.100  -6.692 -26.079  0.00  0.00    -0.000 C 
ATOM     36  C   UNL     1      35.190  -6.291 -25.306  0.00  0.00    +0.002 C 
ENDBRANCH  29  31
ENDBRANCH   2  29
TORSDOF 5
ENDMDL
MODEL 9
REMARK VINA RESULT:      -9.7      3.956      7.386
REMARK  Name = 54674461
REMARK  5 active torsions:
REMARK  status: ('A' for Active; 'I' for Inactive)
REMARK    1  A    between atoms: N_2  and  C_29
REMARK    2  A    between atoms: C_7  and  C_14
REMARK    3  A    between atoms: C_15  and  N_21
REMARK    4  A    between atoms: C_22  and  O_24
REMARK    5  A    between atoms: C_29  and  C_31
REMARK                            x       y       z     vdW  Elec       q    Type
REMARK                         _______ _______ _______ _____ _____    ______ ____
ROOT
ATOM      1  F   UNL     1      30.100 -24.216 -13.197  0.00  0.00    -0.207 F 
ATOM      2  N   UNL     1      32.697 -22.690 -17.645  0.00  0.00    -0.193 N 
ATOM      3  N   UNL     1      33.969 -23.095 -17.481  0.00  0.00    -0.168 NA
ATOM      4  N   UNL     1      30.574 -22.718 -16.485  0.00  0.00    -0.251 NA
ATOM      5  C   UNL     1      32.685 -23.657 -15.673  0.00  0.00    +0.133 C 
ATOM      6  C   UNL     1      31.884 -22.999 -16.594  0.00  0.00    +0.133 C 
ATOM      7  C   UNL     1      33.956 -23.683 -16.280  0.00  0.00    +0.172 C 
ATOM      8  C   UNL     1      32.092 -24.092 -14.481  0.00  0.00    +0.015 C 
ATOM      9  C   UNL     1      30.733 -23.829 -14.311  0.00  0.00    +0.139 C 
ATOM     10  C   UNL     1      30.046 -23.158 -15.318  0.00  0.00    +0.182 C 
ENDROOT
BRANCH   7  14
ATOM     11  N   UNL     1      35.059 -25.490 -15.212  0.00  0.00    -0.326 NA
ATOM     12  N   UNL     1      36.275 -23.501 -15.821  0.00  0.00    -0.326 NA
ATOM     13  N   UNL     1      36.165 -27.292 -14.145  0.00  0.00    -0.334 N 
ATOM     14  C   UNL     1      35.164 -24.256 -15.741  0.00  0.00    +0.156 C 
ATOM     15  C   UNL     1      37.412 -25.324 -14.735  0.00  0.00    +0.210 C 
ATOM     16  C   UNL     1      36.207 -25.996 -14.716  0.00  0.00    +0.193 C 
ATOM     17  C   UNL     1      37.387 -24.067 -15.306  0.00  0.00    +0.193 C 
ATOM     18  H   UNL     1      35.317 -27.791 -14.120  0.00  0.00    +0.144 HD
ATOM     19  H   UNL     1      36.984 -27.694 -13.775  0.00  0.00    +0.144 HD
ATOM     20  N   UNL     1      38.590 -23.322 -15.357  0.00  0.00    -0.334 N 
ATOM     21  H   UNL     1      38.596 -22.423 -15.759  0.00  0.00    +0.144 HD
ATOM     22  H   UNL     1      39.421 -23.703 -14.989  0.00  0.00    +0.144 HD
BRANCH  15  24
ATOM     23  O   UNL     1      38.270 -25.762 -11.889  0.00  0.00    -0.226 OA
ATOM     24  N   UNL     1      38.582 -25.877 -14.210  0.00  0.00    -0.258 N 
ATOM     25  C   UNL     1      38.933 -26.059 -12.876  0.00  0.00    +0.402 C 
ATOM     26  H   UNL     1      39.246 -26.180 -14.871  0.00  0.00    +0.154 HD
BRANCH  25  27
ATOM     27  O   UNL     1      40.171 -26.639 -12.809  0.00  0.00    -0.431 OA
ATOM     28  C   UNL     1      40.931 -26.640 -14.023  0.00  0.00    +0.257 C 
ENDBRANCH  25  27
ENDBRANCH  15  24
ENDBRANCH   7  14
BRANCH   2  29
ATOM     29  C   UNL     1      32.321 -21.997 -18.855  0.00  0.00    +0.146 C 
BRANCH  29  31
ATOM     30  F   UNL     1      32.007 -20.110 -20.946  0.00  0.00    -0.204 F 
ATOM     31  C   UNL     1      33.485 -21.343 -19.554  0.00  0.00    +0.027 C 
ATOM     32  C   UNL     1      33.258 -20.421 -20.577  0.00  0.00    +0.138 C 
ATOM     33  C   UNL     1      34.790 -21.659 -19.179  0.00  0.00    -0.000 C 
ATOM     34  C   UNL     1      34.336 -19.816 -21.223  0.00  0.00    +0.029 C 
ATOM     35  C   UNL     1      35.869 -21.054 -19.825  0.00  0.00    -0.000 C 
ATOM     36  C   UNL     1      35.642 -20.133 -20.848  0.00  0.00    +0.002 C 
ENDBRANCH  29  31
ENDBRANCH   2  29
TORSDOF 5
ENDMDL
