MODEL 1
REMARK VINA RESULT:     -11.6      0.000      0.000
REMARK  Name = 216210
REMARK  9 active torsions:
REMARK  status: ('A' for Active; 'I' for Inactive)
REMARK    1  A    between atoms: C_4  and  C_26
REMARK    2  A    between atoms: C_6  and  C_13
REMARK    3  A    between atoms: N_12  and  C_20
REMARK    4  A    between atoms: C_20  and  C_21
REMARK    5  A    between atoms: C_21  and  C_23
REMARK    6  A    between atoms: C_23  and  O_24
REMARK    7  A    between atoms: C_26  and  N_27
REMARK    8  A    between atoms: N_27  and  C_29
REMARK    9  A    between atoms: C_34  and  C_37
REMARK                            x       y       z     vdW  Elec       q    Type
REMARK                         _______ _______ _______ _____ _____    ______ ____
ROOT
ATOM      1  N   UNL     1      34.120 -17.066 -24.123  0.00  0.00    -0.261 N 
ATOM      2  N   UNL     1      35.225 -16.237 -22.382  0.00  0.00    -0.388 NA
ATOM      3  C   UNL     1      33.939 -15.703 -24.064  0.00  0.00    +0.079 C 
ATOM      4  C   UNL     1      34.894 -17.352 -23.101  0.00  0.00    +0.184 C 
ATOM      5  C   UNL     1      34.623 -15.160 -22.980  0.00  0.00    +0.146 C 
ATOM      6  C   UNL     1      33.877 -12.966 -23.521  0.00  0.00    +0.039 C 
ATOM      7  C   UNL     1      34.617 -13.798 -22.674  0.00  0.00    +0.034 C 
ATOM      8  C   UNL     1      33.200 -14.852 -24.904  0.00  0.00    -0.004 C 
ATOM      9  C   UNL     1      33.181 -13.482 -24.617  0.00  0.00    +0.058 C 
ATOM     10  C   UNL     1      33.567 -17.963 -25.110  0.00  0.00    +0.120 C 
ENDROOT
BRANCH   6  13
ATOM     11  O   UNL     1      34.869 -10.905 -23.512  0.00  0.00    -0.270 OA
ATOM     12  N   UNL     1      32.639 -10.971 -22.734  0.00  0.00    -0.240 N 
ATOM     13  C   UNL     1      33.834 -11.536 -23.254  0.00  0.00    +0.250 C 
ATOM     14  N   UNL     1      33.131  -8.890 -23.843  0.00  0.00    -0.229 NA
ATOM     15  C   UNL     1      32.295  -9.597 -23.052  0.00  0.00    +0.138 C 
ATOM     16  C   UNL     1      31.119  -9.095 -22.519  0.00  0.00    +0.035 C 
ATOM     17  C   UNL     1      30.780  -7.779 -22.817  0.00  0.00    +0.004 C 
ATOM     18  C   UNL     1      32.770  -7.615 -24.110  0.00  0.00    +0.100 C 
ATOM     19  C   UNL     1      31.616  -7.019 -23.627  0.00  0.00    +0.021 C 
BRANCH  12  20
ATOM     20  C   UNL     1      31.748 -11.767 -21.875  0.00  0.00    +0.112 C 
BRANCH  20  21
ATOM     21  C   UNL     1      32.270 -11.869 -20.448  0.00  0.00    +0.131 C 
BRANCH  21  23
ATOM     22  O   UNL     1      30.522 -10.535 -19.396  0.00  0.00    -0.250 OA
ATOM     23  C   UNL     1      31.708 -10.799 -19.536  0.00  0.00    +0.316 C 
BRANCH  23  24
ATOM     24  O   UNL     1      32.696 -10.153 -18.863  0.00  0.00    -0.480 OA
ATOM     25  H   UNL     1      33.543 -10.545 -18.785  0.00  0.00    +0.295 HD
ENDBRANCH  23  24
ENDBRANCH  21  23
ENDBRANCH  20  21
ENDBRANCH  12  20
ENDBRANCH   6  13
BRANCH   4  26
ATOM     26  C   UNL     1      35.344 -18.724 -22.788  0.00  0.00    +0.164 C 
BRANCH  26  27
ATOM     27  N   UNL     1      35.678 -18.963 -21.390  0.00  0.00    -0.326 N 
ATOM     28  H   UNL     1      36.370 -18.402 -20.971  0.00  0.00    +0.147 HD
BRANCH  27  29
ATOM     29  C   UNL     1      35.074 -19.938 -20.625  0.00  0.00    +0.045 C 
ATOM     30  C   UNL     1      35.853 -20.829 -19.887  0.00  0.00    +0.014 C 
ATOM     31  C   UNL     1      33.682 -20.035 -20.591  0.00  0.00    +0.014 C 
ATOM     32  C   UNL     1      35.242 -21.816 -19.116  0.00  0.00    +0.004 C 
ATOM     33  C   UNL     1      33.071 -21.022 -19.819  0.00  0.00    +0.004 C 
ATOM     34  C   UNL     1      33.850 -21.913 -19.081  0.00  0.00    +0.031 C 
BRANCH  34  37
ATOM     35  N   UNL     1      32.080 -22.667 -17.512  0.00  0.00    -0.343 N 
ATOM     36  N   UNL     1      33.709 -24.166 -18.258  0.00  0.00    -0.285 NA
ATOM     37  C   UNL     1      33.212 -22.943 -18.277  0.00  0.00    +0.117 C 
ATOM     38  H   UNL     1      31.664 -23.379 -16.974  0.00  0.00    +0.144 HD
ATOM     39  H   UNL     1      31.696 -21.760 -17.509  0.00  0.00    +0.144 HD
ATOM     40  H   UNL     1      33.279 -24.864 -17.714  0.00  0.00    +0.188 HD
ENDBRANCH  34  37
ENDBRANCH  27  29
ENDBRANCH  26  27
ENDBRANCH   4  26
TORSDOF 9
ENDMDL
MODEL 2
REMARK VINA RESULT:     -11.0      5.931     12.822
REMARK  Name = 216210
REMARK  9 active torsions:
REMARK  status: ('A' for Active; 'I' for Inactive)
REMARK    1  A    between atoms: C_4  and  C_26
REMARK    2  A    between atoms: C_6  and  C_13
REMARK    3  A    between atoms: N_12  and  C_20
REMARK    4  A    between atoms: C_20  and  C_21
REMARK    5  A    between atoms: C_21  and  C_23
REMARK    6  A    between atoms: C_23  and  O_24
REMARK    7  A    between atoms: C_26  and  N_27
REMARK    8  A    between atoms: N_27  and  C_29
REMARK    9  A    between atoms: C_34  and  C_37
REMARK                            x       y       z     vdW  Elec       q    Type
REMARK                         _______ _______ _______ _____ _____    ______ ____
ROOT
ATOM      1  N   UNL     1      34.401 -20.964 -19.866  0.00  0.00    -0.261 N 
ATOM      2  N   UNL     1      36.419 -21.133 -18.950  0.00  0.00    -0.388 NA
ATOM      3  C   UNL     1      34.360 -21.847 -18.810  0.00  0.00    +0.079 C 
ATOM      4  C   UNL     1      35.649 -20.556 -19.921  0.00  0.00    +0.184 C 
ATOM      5  C   UNL     1      35.614 -21.969 -18.220  0.00  0.00    +0.146 C 
ATOM      6  C   UNL     1      34.785 -23.528 -16.624  0.00  0.00    +0.039 C 
ATOM      7  C   UNL     1      35.869 -22.798 -17.126  0.00  0.00    +0.034 C 
ATOM      8  C   UNL     1      33.284 -22.588 -18.294  0.00  0.00    -0.004 C 
ATOM      9  C   UNL     1      33.515 -23.426 -17.196  0.00  0.00    +0.058 C 
ATOM     10  C   UNL     1      33.294 -20.586 -20.711  0.00  0.00    +0.120 C 
ENDROOT
BRANCH   6  13
ATOM     11  O   UNL     1      35.489 -25.515 -15.736  0.00  0.00    -0.270 OA
ATOM     12  N   UNL     1      34.613 -23.958 -14.191  0.00  0.00    -0.240 N 
ATOM     13  C   UNL     1      34.988 -24.410 -15.484  0.00  0.00    +0.250 C 
ATOM     14  N   UNL     1      36.354 -25.301 -13.208  0.00  0.00    -0.229 NA
ATOM     15  C   UNL     1      35.335 -24.432 -13.025  0.00  0.00    +0.138 C 
ATOM     16  C   UNL     1      34.930 -23.961 -11.787  0.00  0.00    +0.035 C 
ATOM     17  C   UNL     1      35.614 -24.410 -10.664  0.00  0.00    +0.004 C 
ATOM     18  C   UNL     1      36.996 -25.717 -12.093  0.00  0.00    +0.100 C 
ATOM     19  C   UNL     1      36.669 -25.305 -10.811  0.00  0.00    +0.021 C 
BRANCH  12  20
ATOM     20  C   UNL     1      33.499 -23.011 -14.024  0.00  0.00    +0.112 C 
BRANCH  20  21
ATOM     21  C   UNL     1      32.154 -23.649 -14.346  0.00  0.00    +0.131 C 
BRANCH  21  23
ATOM     22  O   UNL     1      30.940 -24.126 -12.287  0.00  0.00    -0.250 OA
ATOM     23  C   UNL     1      31.626 -24.515 -13.222  0.00  0.00    +0.316 C 
BRANCH  23  24
ATOM     24  O   UNL     1      32.003 -25.811 -13.376  0.00  0.00    -0.480 OA
ATOM     25  H   UNL     1      32.698 -26.162 -12.855  0.00  0.00    +0.295 HD
ENDBRANCH  23  24
ENDBRANCH  21  23
ENDBRANCH  20  21
ENDBRANCH  12  20
ENDBRANCH   6  13
BRANCH   4  26
ATOM     26  C   UNL     1      36.137 -19.585 -20.922  0.00  0.00    +0.164 C 
BRANCH  26  27
ATOM     27  N   UNL     1      35.760 -18.199 -20.677  0.00  0.00    -0.326 N 
ATOM     28  H   UNL     1      35.863 -17.840 -19.766  0.00  0.00    +0.147 HD
BRANCH  27  29
ATOM     29  C   UNL     1      35.264 -17.366 -21.656  0.00  0.00    +0.045 C 
ATOM     30  C   UNL     1      34.907 -16.055 -21.343  0.00  0.00    +0.014 C 
ATOM     31  C   UNL     1      35.116 -17.836 -22.962  0.00  0.00    +0.014 C 
ATOM     32  C   UNL     1      34.403 -15.214 -22.334  0.00  0.00    +0.004 C 
ATOM     33  C   UNL     1      34.613 -16.995 -23.953  0.00  0.00    +0.004 C 
ATOM     34  C   UNL     1      34.256 -15.683 -23.640  0.00  0.00    +0.031 C 
BRANCH  34  37
ATOM     35  N   UNL     1      33.434 -13.470 -24.408  0.00  0.00    -0.343 N 
ATOM     36  N   UNL     1      33.521 -15.274 -25.890  0.00  0.00    -0.285 NA
ATOM     37  C   UNL     1      33.730 -14.806 -24.674  0.00  0.00    +0.117 C 
ATOM     38  H   UNL     1      33.079 -12.893 -25.124  0.00  0.00    +0.144 HD
ATOM     39  H   UNL     1      33.580 -13.102 -23.507  0.00  0.00    +0.144 HD
ATOM     40  H   UNL     1      33.166 -14.682 -26.592  0.00  0.00    +0.188 HD
ENDBRANCH  34  37
ENDBRANCH  27  29
ENDBRANCH  26  27
ENDBRANCH   4  26
TORSDOF 9
ENDMDL
MODEL 3
REMARK VINA RESULT:     -10.4      1.576      2.762
REMARK  Name = 216210
REMARK  9 active torsions:
REMARK  status: ('A' for Active; 'I' for Inactive)
REMARK    1  A    between atoms: C_4  and  C_26
REMARK    2  A    between atoms: C_6  and  C_13
REMARK    3  A    between atoms: N_12  and  C_20
REMARK    4  A    between atoms: C_20  and  C_21
REMARK    5  A    between atoms: C_21  and  C_23
REMARK    6  A    between atoms: C_23  and  O_24
REMARK    7  A    between atoms: C_26  and  N_27
REMARK    8  A    between atoms: N_27  and  C_29
REMARK    9  A    between atoms: C_34  and  C_37
REMARK                            x       y       z     vdW  Elec       q    Type
REMARK                         _______ _______ _______ _____ _____    ______ ____
ROOT
ATOM      1  N   UNL     1      34.635 -16.528 -23.588  0.00  0.00    -0.261 N 
ATOM      2  N   UNL     1      34.904 -16.079 -21.429  0.00  0.00    -0.388 NA
ATOM      3  C   UNL     1      33.922 -15.398 -23.256  0.00  0.00    +0.079 C 
ATOM      4  C   UNL     1      35.210 -16.909 -22.470  0.00  0.00    +0.184 C 
ATOM      5  C   UNL     1      34.076 -15.096 -21.906  0.00  0.00    +0.146 C 
ATOM      6  C   UNL     1      32.665 -13.189 -22.102  0.00  0.00    +0.039 C 
ATOM      7  C   UNL     1      33.465 -14.002 -21.291  0.00  0.00    +0.034 C 
ATOM      8  C   UNL     1      33.115 -14.571 -24.056  0.00  0.00    -0.004 C 
ATOM      9  C   UNL     1      32.493 -13.467 -23.460  0.00  0.00    +0.058 C 
ATOM     10  C   UNL     1      34.716 -17.137 -24.894  0.00  0.00    +0.120 C 
ENDROOT
BRANCH   6  13
ATOM     11  O   UNL     1      31.167 -12.276 -20.635  0.00  0.00    -0.270 OA
ATOM     12  N   UNL     1      32.348 -10.736 -21.981  0.00  0.00    -0.240 N 
ATOM     13  C   UNL     1      32.002 -12.033 -21.518  0.00  0.00    +0.250 C 
ATOM     14  N   UNL     1      31.852  -9.819 -19.811  0.00  0.00    -0.229 NA
ATOM     15  C   UNL     1      32.263  -9.603 -21.079  0.00  0.00    +0.138 C 
ATOM     16  C   UNL     1      32.613  -8.360 -21.581  0.00  0.00    +0.035 C 
ATOM     17  C   UNL     1      32.534  -7.267 -20.725  0.00  0.00    +0.004 C 
ATOM     18  C   UNL     1      31.787  -8.733 -19.007  0.00  0.00    +0.100 C 
ATOM     19  C   UNL     1      32.114  -7.449 -19.412  0.00  0.00    +0.021 C 
BRANCH  12  20
ATOM     20  C   UNL     1      32.793 -10.533 -23.369  0.00  0.00    +0.112 C 
BRANCH  20  21
ATOM     21  C   UNL     1      34.290 -10.763 -23.530  0.00  0.00    +0.131 C 
BRANCH  21  23
ATOM     22  O   UNL     1      34.555  -8.390 -24.020  0.00  0.00    -0.250 OA
ATOM     23  C   UNL     1      35.049  -9.499 -23.877  0.00  0.00    +0.316 C 
BRANCH  23  24
ATOM     24  O   UNL     1      36.379  -9.741 -24.008  0.00  0.00    -0.480 OA
ATOM     25  H   UNL     1      37.001  -9.179 -23.590  0.00  0.00    +0.295 HD
ENDBRANCH  23  24
ENDBRANCH  21  23
ENDBRANCH  20  21
ENDBRANCH  12  20
ENDBRANCH   6  13
BRANCH   4  26
ATOM     26  C   UNL     1      36.083 -18.097 -22.377  0.00  0.00    +0.164 C 
BRANCH  26  27
ATOM     27  N   UNL     1      36.320 -18.588 -21.025  0.00  0.00    -0.326 N 
ATOM     28  H   UNL     1      36.999 -18.135 -20.474  0.00  0.00    +0.147 HD
BRANCH  27  29
ATOM     29  C   UNL     1      35.640 -19.655 -20.479  0.00  0.00    +0.045 C 
ATOM     30  C   UNL     1      36.335 -20.636 -19.771  0.00  0.00    +0.014 C 
ATOM     31  C   UNL     1      34.258 -19.757 -20.638  0.00  0.00    +0.014 C 
ATOM     32  C   UNL     1      35.648 -21.717 -19.221  0.00  0.00    +0.004 C 
ATOM     33  C   UNL     1      33.571 -20.839 -20.088  0.00  0.00    +0.004 C 
ATOM     34  C   UNL     1      34.265 -21.819 -19.379  0.00  0.00    +0.031 C 
BRANCH  34  37
ATOM     35  N   UNL     1      32.518 -22.759 -17.886  0.00  0.00    -0.343 N 
ATOM     36  N   UNL     1      33.874 -24.179 -19.153  0.00  0.00    -0.285 NA
ATOM     37  C   UNL     1      33.548 -22.947 -18.806  0.00  0.00    +0.117 C 
ATOM     38  H   UNL     1      32.045 -23.537 -17.510  0.00  0.00    +0.144 HD
ATOM     39  H   UNL     1      32.262 -21.849 -17.613  0.00  0.00    +0.144 HD
ATOM     40  H   UNL     1      33.390 -24.944 -18.766  0.00  0.00    +0.188 HD
ENDBRANCH  34  37
ENDBRANCH  27  29
ENDBRANCH  26  27
ENDBRANCH   4  26
TORSDOF 9
ENDMDL
MODEL 4
REMARK VINA RESULT:     -10.2      3.873      7.277
REMARK  Name = 216210
REMARK  9 active torsions:
REMARK  status: ('A' for Active; 'I' for Inactive)
REMARK    1  A    between atoms: C_4  and  C_26
REMARK    2  A    between atoms: C_6  and  C_13
REMARK    3  A    between atoms: N_12  and  C_20
REMARK    4  A    between atoms: C_20  and  C_21
REMARK    5  A    between atoms: C_21  and  C_23
REMARK    6  A    between atoms: C_23  and  O_24
REMARK    7  A    between atoms: C_26  and  N_27
REMARK    8  A    between atoms: N_27  and  C_29
REMARK    9  A    between atoms: C_34  and  C_37
REMARK                            x       y       z     vdW  Elec       q    Type
REMARK                         _______ _______ _______ _____ _____    ______ ____
ROOT
ATOM      1  N   UNL     1      31.714  -9.745 -20.176  0.00  0.00    -0.261 N 
ATOM      2  N   UNL     1      31.396 -10.283 -22.308  0.00  0.00    -0.388 NA
ATOM      3  C   UNL     1      31.786  -8.613 -20.957  0.00  0.00    +0.079 C 
ATOM      4  C   UNL     1      31.480 -10.725 -21.018  0.00  0.00    +0.184 C 
ATOM      5  C   UNL     1      31.590  -8.926 -22.299  0.00  0.00    +0.146 C 
ATOM      6  C   UNL     1      31.842  -6.646 -22.936  0.00  0.00    +0.039 C 
ATOM      7  C   UNL     1      31.610  -7.972 -23.318  0.00  0.00    +0.034 C 
ATOM      8  C   UNL     1      32.019  -7.277 -20.590  0.00  0.00    -0.004 C 
ATOM      9  C   UNL     1      32.042  -6.303 -21.597  0.00  0.00    +0.058 C 
ATOM     10  C   UNL     1      31.866  -9.808 -18.742  0.00  0.00    +0.120 C 
ENDROOT
BRANCH   6  13
ATOM     11  O   UNL     1      30.877  -4.873 -24.010  0.00  0.00    -0.270 OA
ATOM     12  N   UNL     1      33.016  -5.501 -24.791  0.00  0.00    -0.240 N 
ATOM     13  C   UNL     1      31.874  -5.607 -23.953  0.00  0.00    +0.250 C 
ATOM     14  N   UNL     1      32.660  -3.127 -24.989  0.00  0.00    -0.229 NA
ATOM     15  C   UNL     1      33.405  -4.205 -25.316  0.00  0.00    +0.138 C 
ATOM     16  C   UNL     1      34.527  -4.157 -26.128  0.00  0.00    +0.035 C 
ATOM     17  C   UNL     1      34.909  -2.920 -26.637  0.00  0.00    +0.004 C 
ATOM     18  C   UNL     1      33.060  -1.942 -25.503  0.00  0.00    +0.100 C 
ATOM     19  C   UNL     1      34.166  -1.787 -26.323  0.00  0.00    +0.021 C 
BRANCH  12  20
ATOM     20  C   UNL     1      33.808  -6.694 -25.129  0.00  0.00    +0.112 C 
BRANCH  20  21
ATOM     21  C   UNL     1      35.171  -6.687 -24.450  0.00  0.00    +0.131 C 
BRANCH  21  23
ATOM     22  O   UNL     1      35.608  -8.989 -23.778  0.00  0.00    -0.250 OA
ATOM     23  C   UNL     1      35.352  -7.832 -23.476  0.00  0.00    +0.316 C 
BRANCH  23  24
ATOM     24  O   UNL     1      35.201  -7.418 -22.191  0.00  0.00    -0.480 OA
ATOM     25  H   UNL     1      34.359  -7.458 -21.781  0.00  0.00    +0.295 HD
ENDBRANCH  23  24
ENDBRANCH  21  23
ENDBRANCH  20  21
ENDBRANCH  12  20
ENDBRANCH   6  13
BRANCH   4  26
ATOM     26  C   UNL     1      31.327 -12.133 -20.595  0.00  0.00    +0.164 C 
BRANCH  26  27
ATOM     27  N   UNL     1      32.570 -12.824 -20.278  0.00  0.00    -0.326 N 
ATOM     28  H   UNL     1      33.015 -12.619 -19.424  0.00  0.00    +0.147 HD
BRANCH  27  29
ATOM     29  C   UNL     1      33.154 -13.750 -21.115  0.00  0.00    +0.045 C 
ATOM     30  C   UNL     1      33.985 -14.740 -20.591  0.00  0.00    +0.014 C 
ATOM     31  C   UNL     1      32.915 -13.695 -22.489  0.00  0.00    +0.014 C 
ATOM     32  C   UNL     1      34.577 -15.674 -21.439  0.00  0.00    +0.004 C 
ATOM     33  C   UNL     1      33.507 -14.631 -23.337  0.00  0.00    +0.004 C 
ATOM     34  C   UNL     1      34.339 -15.620 -22.812  0.00  0.00    +0.031 C 
BRANCH  34  37
ATOM     35  N   UNL     1      35.635 -17.703 -23.192  0.00  0.00    -0.343 N 
ATOM     36  N   UNL     1      34.884 -16.436 -25.005  0.00  0.00    -0.285 NA
ATOM     37  C   UNL     1      34.957 -16.596 -23.697  0.00  0.00    +0.117 C 
ATOM     38  H   UNL     1      36.047 -18.352 -23.810  0.00  0.00    +0.144 HD
ATOM     39  H   UNL     1      35.704 -17.839 -22.220  0.00  0.00    +0.144 HD
ATOM     40  H   UNL     1      35.301 -17.094 -25.606  0.00  0.00    +0.188 HD
ENDBRANCH  34  37
ENDBRANCH  27  29
ENDBRANCH  26  27
ENDBRANCH   4  26
TORSDOF 9
ENDMDL
MODEL 5
REMARK VINA RESULT:     -10.2      3.705     10.606
REMARK  Name = 216210
REMARK  9 active torsions:
REMARK  status: ('A' for Active; 'I' for Inactive)
REMARK    1  A    between atoms: C_4  and  C_26
REMARK    2  A    between atoms: C_6  and  C_13
REMARK    3  A    between atoms: N_12  and  C_20
REMARK    4  A    between atoms: C_20  and  C_21
REMARK    5  A    between atoms: C_21  and  C_23
REMARK    6  A    between atoms: C_23  and  O_24
REMARK    7  A    between atoms: C_26  and  N_27
REMARK    8  A    between atoms: N_27  and  C_29
REMARK    9  A    between atoms: C_34  and  C_37
REMARK                            x       y       z     vdW  Elec       q    Type
REMARK                         _______ _______ _______ _____ _____    ______ ____
ROOT
ATOM      1  N   UNL     1      33.934 -15.717 -23.890  0.00  0.00    -0.261 N 
ATOM      2  N   UNL     1      34.365 -15.094 -21.801  0.00  0.00    -0.388 NA
ATOM      3  C   UNL     1      34.603 -16.725 -23.233  0.00  0.00    +0.079 C 
ATOM      4  C   UNL     1      33.809 -14.756 -23.003  0.00  0.00    +0.184 C 
ATOM      5  C   UNL     1      34.884 -16.358 -21.921  0.00  0.00    +0.146 C 
ATOM      6  C   UNL     1      35.952 -18.442 -21.496  0.00  0.00    +0.039 C 
ATOM      7  C   UNL     1      35.556 -17.186 -21.021  0.00  0.00    +0.034 C 
ATOM      8  C   UNL     1      35.008 -17.989 -23.694  0.00  0.00    -0.004 C 
ATOM      9  C   UNL     1      35.683 -18.838 -22.808  0.00  0.00    +0.058 C 
ATOM     10  C   UNL     1      33.478 -15.740 -25.259  0.00  0.00    +0.120 C 
ENDROOT
BRANCH   6  13
ATOM     11  O   UNL     1      37.840 -19.068 -20.366  0.00  0.00    -0.270 OA
ATOM     12  N   UNL     1      35.962 -20.470 -20.075  0.00  0.00    -0.240 N 
ATOM     13  C   UNL     1      36.657 -19.350 -20.604  0.00  0.00    +0.250 C 
ATOM     14  N   UNL     1      37.326 -20.391 -18.092  0.00  0.00    -0.229 NA
ATOM     15  C   UNL     1      36.325 -20.993 -18.771  0.00  0.00    +0.138 C 
ATOM     16  C   UNL     1      35.615 -22.086 -18.301  0.00  0.00    +0.035 C 
ATOM     17  C   UNL     1      35.956 -22.595 -17.053  0.00  0.00    +0.004 C 
ATOM     18  C   UNL     1      37.630 -20.913 -16.882  0.00  0.00    +0.100 C 
ATOM     19  C   UNL     1      36.981 -22.003 -16.323  0.00  0.00    +0.021 C 
BRANCH  12  20
ATOM     20  C   UNL     1      34.875 -21.104 -20.839  0.00  0.00    +0.112 C 
BRANCH  20  21
ATOM     21  C   UNL     1      33.517 -20.497 -20.513  0.00  0.00    +0.131 C 
BRANCH  21  23
ATOM     22  O   UNL     1      31.953 -20.889 -18.684  0.00  0.00    -0.250 OA
ATOM     23  C   UNL     1      32.719 -21.329 -19.530  0.00  0.00    +0.316 C 
BRANCH  23  24
ATOM     24  O   UNL     1      32.950 -22.656 -19.704  0.00  0.00    -0.480 OA
ATOM     25  H   UNL     1      33.782 -23.021 -19.475  0.00  0.00    +0.295 HD
ENDBRANCH  23  24
ENDBRANCH  21  23
ENDBRANCH  20  21
ENDBRANCH  12  20
ENDBRANCH   6  13
BRANCH   4  26
ATOM     26  C   UNL     1      33.140 -13.471 -23.293  0.00  0.00    +0.164 C 
BRANCH  26  27
ATOM     27  N   UNL     1      32.198 -13.020 -22.276  0.00  0.00    -0.326 N 
ATOM     28  H   UNL     1      31.541 -13.665 -21.926  0.00  0.00    +0.147 HD
BRANCH  27  29
ATOM     29  C   UNL     1      32.179 -11.733 -21.783  0.00  0.00    +0.045 C 
ATOM     30  C   UNL     1      31.836 -11.502 -20.450  0.00  0.00    +0.014 C 
ATOM     31  C   UNL     1      32.500 -10.661 -22.616  0.00  0.00    +0.014 C 
ATOM     32  C   UNL     1      31.815 -10.200 -19.952  0.00  0.00    +0.004 C 
ATOM     33  C   UNL     1      32.479  -9.360 -22.117  0.00  0.00    +0.004 C 
ATOM     34  C   UNL     1      32.136  -9.128 -20.785  0.00  0.00    +0.031 C 
BRANCH  34  37
ATOM     35  N   UNL     1      31.306  -6.789 -20.837  0.00  0.00    -0.343 N 
ATOM     36  N   UNL     1      32.874  -7.448 -19.235  0.00  0.00    -0.285 NA
ATOM     37  C   UNL     1      32.114  -7.770 -20.265  0.00  0.00    +0.117 C 
ATOM     38  H   UNL     1      31.307  -5.875 -20.469  0.00  0.00    +0.144 HD
ATOM     39  H   UNL     1      30.735  -7.008 -21.607  0.00  0.00    +0.144 HD
ATOM     40  H   UNL     1      32.861  -6.529 -18.881  0.00  0.00    +0.188 HD
ENDBRANCH  34  37
ENDBRANCH  27  29
ENDBRANCH  26  27
ENDBRANCH   4  26
TORSDOF 9
ENDMDL
MODEL 6
REMARK VINA RESULT:      -9.9      4.170      7.487
REMARK  Name = 216210
REMARK  9 active torsions:
REMARK  status: ('A' for Active; 'I' for Inactive)
REMARK    1  A    between atoms: C_4  and  C_26
REMARK    2  A    between atoms: C_6  and  C_13
REMARK    3  A    between atoms: N_12  and  C_20
REMARK    4  A    between atoms: C_20  and  C_21
REMARK    5  A    between atoms: C_21  and  C_23
REMARK    6  A    between atoms: C_23  and  O_24
REMARK    7  A    between atoms: C_26  and  N_27
REMARK    8  A    between atoms: N_27  and  C_29
REMARK    9  A    between atoms: C_34  and  C_37
REMARK                            x       y       z     vdW  Elec       q    Type
REMARK                         _______ _______ _______ _____ _____    ______ ____
ROOT
ATOM      1  N   UNL     1      31.868  -9.480 -20.512  0.00  0.00    -0.261 N 
ATOM      2  N   UNL     1      32.055 -10.079 -22.644  0.00  0.00    -0.388 NA
ATOM      3  C   UNL     1      32.305  -8.410 -21.260  0.00  0.00    +0.079 C 
ATOM      4  C   UNL     1      31.730 -10.463 -21.373  0.00  0.00    +0.184 C 
ATOM      5  C   UNL     1      32.429  -8.761 -22.600  0.00  0.00    +0.146 C 
ATOM      6  C   UNL     1      33.162  -6.571 -23.176  0.00  0.00    +0.039 C 
ATOM      7  C   UNL     1      32.854  -7.872 -23.589  0.00  0.00    +0.034 C 
ATOM      8  C   UNL     1      32.619  -7.099 -20.862  0.00  0.00    -0.004 C 
ATOM      9  C   UNL     1      33.046  -6.189 -21.837  0.00  0.00    +0.058 C 
ATOM     10  C   UNL     1      31.623  -9.490 -19.090  0.00  0.00    +0.120 C 
ENDROOT
BRANCH   6  13
ATOM     11  O   UNL     1      34.827  -5.586 -24.396  0.00  0.00    -0.270 OA
ATOM     12  N   UNL     1      32.650  -4.752 -24.777  0.00  0.00    -0.240 N 
ATOM     13  C   UNL     1      33.610  -5.599 -24.161  0.00  0.00    +0.250 C 
ATOM     14  N   UNL     1      33.998  -4.661 -26.771  0.00  0.00    -0.229 NA
ATOM     15  C   UNL     1      32.871  -4.278 -26.130  0.00  0.00    +0.138 C 
ATOM     16  C   UNL     1      31.904  -3.455 -26.684  0.00  0.00    +0.035 C 
ATOM     17  C   UNL     1      32.106  -2.995 -27.981  0.00  0.00    +0.004 C 
ATOM     18  C   UNL     1      34.161  -4.193 -28.029  0.00  0.00    +0.100 C 
ATOM     19  C   UNL     1      33.254  -3.367 -28.673  0.00  0.00    +0.021 C 
BRANCH  12  20
ATOM     20  C   UNL     1      31.433  -4.352 -24.053  0.00  0.00    +0.112 C 
BRANCH  20  21
ATOM     21  C   UNL     1      31.635  -3.067 -23.261  0.00  0.00    +0.131 C 
BRANCH  21  23
ATOM     22  O   UNL     1      29.985  -3.399 -21.497  0.00  0.00    -0.250 OA
ATOM     23  C   UNL     1      31.138  -3.168 -21.834  0.00  0.00    +0.316 C 
BRANCH  23  24
ATOM     24  O   UNL     1      32.147  -2.976 -20.944  0.00  0.00    -0.480 OA
ATOM     25  H   UNL     1      32.389  -2.107 -20.690  0.00  0.00    +0.295 HD
ENDBRANCH  23  24
ENDBRANCH  21  23
ENDBRANCH  20  21
ENDBRANCH  12  20
ENDBRANCH   6  13
BRANCH   4  26
ATOM     26  C   UNL     1      31.271 -11.814 -20.989  0.00  0.00    +0.164 C 
BRANCH  26  27
ATOM     27  N   UNL     1      32.303 -12.687 -20.445  0.00  0.00    -0.326 N 
ATOM     28  H   UNL     1      32.531 -12.606 -19.491  0.00  0.00    +0.147 HD
BRANCH  27  29
ATOM     29  C   UNL     1      32.978 -13.621 -21.202  0.00  0.00    +0.045 C 
ATOM     30  C   UNL     1      32.804 -13.655 -22.586  0.00  0.00    +0.014 C 
ATOM     31  C   UNL     1      33.832 -14.535 -20.584  0.00  0.00    +0.014 C 
ATOM     32  C   UNL     1      33.484 -14.601 -23.351  0.00  0.00    +0.004 C 
ATOM     33  C   UNL     1      34.513 -15.480 -21.349  0.00  0.00    +0.004 C 
ATOM     34  C   UNL     1      34.339 -15.514 -22.733  0.00  0.00    +0.031 C 
BRANCH  34  37
ATOM     35  N   UNL     1      35.774 -17.531 -22.933  0.00  0.00    -0.343 N 
ATOM     36  N   UNL     1      35.018 -16.428 -24.849  0.00  0.00    -0.285 NA
ATOM     37  C   UNL     1      35.049 -16.501 -23.531  0.00  0.00    +0.117 C 
ATOM     38  H   UNL     1      36.248 -18.189 -23.493  0.00  0.00    +0.144 HD
ATOM     39  H   UNL     1      35.812 -17.602 -21.952  0.00  0.00    +0.144 HD
ATOM     40  H   UNL     1      35.498 -17.094 -25.391  0.00  0.00    +0.188 HD
ENDBRANCH  34  37
ENDBRANCH  27  29
ENDBRANCH  26  27
ENDBRANCH   4  26
TORSDOF 9
ENDMDL
MODEL 7
REMARK VINA RESULT:      -9.7      3.164      6.145
REMARK  Name = 216210
REMARK  9 active torsions:
REMARK  status: ('A' for Active; 'I' for Inactive)
REMARK    1  A    between atoms: C_4  and  C_26
REMARK    2  A    between atoms: C_6  and  C_13
REMARK    3  A    between atoms: N_12  and  C_20
REMARK    4  A    between atoms: C_20  and  C_21
REMARK    5  A    between atoms: C_21  and  C_23
REMARK    6  A    between atoms: C_23  and  O_24
REMARK    7  A    between atoms: C_26  and  N_27
REMARK    8  A    between atoms: N_27  and  C_29
REMARK    9  A    between atoms: C_34  and  C_37
REMARK                            x       y       z     vdW  Elec       q    Type
REMARK                         _______ _______ _______ _____ _____    ______ ____
ROOT
ATOM      1  N   UNL     1      35.332 -21.335 -19.290  0.00  0.00    -0.261 N 
ATOM      2  N   UNL     1      33.384 -20.953 -20.288  0.00  0.00    -0.388 NA
ATOM      3  C   UNL     1      35.481 -20.349 -20.239  0.00  0.00    +0.079 C 
ATOM      4  C   UNL     1      34.064 -21.674 -19.347  0.00  0.00    +0.184 C 
ATOM      5  C   UNL     1      34.272 -20.092 -20.879  0.00  0.00    +0.146 C 
ATOM      6  C   UNL     1      35.274 -18.424 -22.249  0.00  0.00    +0.039 C 
ATOM      7  C   UNL     1      34.127 -19.138 -21.888  0.00  0.00    +0.034 C 
ATOM      8  C   UNL     1      36.624 -19.623 -20.615  0.00  0.00    -0.004 C 
ATOM      9  C   UNL     1      36.501 -18.660 -21.625  0.00  0.00    +0.058 C 
ATOM     10  C   UNL     1      36.365 -21.862 -18.431  0.00  0.00    +0.120 C 
ENDROOT
BRANCH   6  13
ATOM     11  O   UNL     1      35.370 -17.818 -24.452  0.00  0.00    -0.270 OA
ATOM     12  N   UNL     1      34.897 -16.074 -22.932  0.00  0.00    -0.240 N 
ATOM     13  C   UNL     1      35.186 -17.416 -23.295  0.00  0.00    +0.250 C 
ATOM     14  N   UNL     1      33.800 -15.729 -25.048  0.00  0.00    -0.229 NA
ATOM     15  C   UNL     1      34.177 -15.217 -23.856  0.00  0.00    +0.138 C 
ATOM     16  C   UNL     1      33.922 -13.916 -23.453  0.00  0.00    +0.035 C 
ATOM     17  C   UNL     1      33.233 -13.086 -24.332  0.00  0.00    +0.004 C 
ATOM     18  C   UNL     1      33.133 -14.893 -25.876  0.00  0.00    +0.100 C 
ATOM     19  C   UNL     1      32.828 -13.577 -25.568  0.00  0.00    +0.021 C 
BRANCH  12  20
ATOM     20  C   UNL     1      35.322 -15.545 -21.626  0.00  0.00    +0.112 C 
BRANCH  20  21
ATOM     21  C   UNL     1      34.291 -15.813 -20.538  0.00  0.00    +0.131 C 
BRANCH  21  23
ATOM     22  O   UNL     1      33.677 -13.454 -20.563  0.00  0.00    -0.250 OA
ATOM     23  C   UNL     1      33.435 -14.604 -20.225  0.00  0.00    +0.316 C 
BRANCH  23  24
ATOM     24  O   UNL     1      32.330 -14.951 -19.513  0.00  0.00    -0.480 OA
ATOM     25  H   UNL     1      32.282 -14.755 -18.598  0.00  0.00    +0.295 HD
ENDBRANCH  23  24
ENDBRANCH  21  23
ENDBRANCH  20  21
ENDBRANCH  12  20
ENDBRANCH   6  13
BRANCH   4  26
ATOM     26  C   UNL     1      33.467 -22.713 -18.483  0.00  0.00    +0.164 C 
BRANCH  26  27
ATOM     27  N   UNL     1      32.258 -22.311 -17.775  0.00  0.00    -0.326 N 
ATOM     28  H   UNL     1      31.812 -21.476 -18.047  0.00  0.00    +0.147 HD
BRANCH  27  29
ATOM     29  C   UNL     1      31.709 -23.042 -16.744  0.00  0.00    +0.045 C 
ATOM     30  C   UNL     1      30.323 -23.115 -16.601  0.00  0.00    +0.014 C 
ATOM     31  C   UNL     1      32.539 -23.706 -15.840  0.00  0.00    +0.014 C 
ATOM     32  C   UNL     1      29.768 -23.852 -15.556  0.00  0.00    +0.004 C 
ATOM     33  C   UNL     1      31.983 -24.443 -14.795  0.00  0.00    +0.004 C 
ATOM     34  C   UNL     1      30.597 -24.516 -14.653  0.00  0.00    +0.031 C 
BRANCH  34  37
ATOM     35  N   UNL     1      28.919 -26.117 -13.767  0.00  0.00    -0.343 N 
ATOM     36  N   UNL     1      30.533 -25.197 -12.350  0.00  0.00    -0.285 NA
ATOM     37  C   UNL     1      30.018 -25.285 -13.563  0.00  0.00    +0.117 C 
ATOM     38  H   UNL     1      28.542 -26.630 -13.015  0.00  0.00    +0.144 HD
ATOM     39  H   UNL     1      28.519 -26.195 -14.663  0.00  0.00    +0.144 HD
ATOM     40  H   UNL     1      30.142 -25.717 -11.610  0.00  0.00    +0.188 HD
ENDBRANCH  34  37
ENDBRANCH  27  29
ENDBRANCH  26  27
ENDBRANCH   4  26
TORSDOF 9
ENDMDL
MODEL 8
REMARK VINA RESULT:      -9.6      2.805     11.451
REMARK  Name = 216210
REMARK  9 active torsions:
REMARK  status: ('A' for Active; 'I' for Inactive)
REMARK    1  A    between atoms: C_4  and  C_26
REMARK    2  A    between atoms: C_6  and  C_13
REMARK    3  A    between atoms: N_12  and  C_20
REMARK    4  A    between atoms: C_20  and  C_21
REMARK    5  A    between atoms: C_21  and  C_23
REMARK    6  A    between atoms: C_23  and  O_24
REMARK    7  A    between atoms: C_26  and  N_27
REMARK    8  A    between atoms: N_27  and  C_29
REMARK    9  A    between atoms: C_34  and  C_37
REMARK                            x       y       z     vdW  Elec       q    Type
REMARK                         _______ _______ _______ _____ _____    ______ ____
ROOT
ATOM      1  N   UNL     1      31.815 -10.793 -22.093  0.00  0.00    -0.261 N 
ATOM      2  N   UNL     1      33.620 -11.205 -23.322  0.00  0.00    -0.388 NA
ATOM      3  C   UNL     1      32.359 -12.004 -21.729  0.00  0.00    +0.079 C 
ATOM      4  C   UNL     1      32.595 -10.343 -23.049  0.00  0.00    +0.184 C 
ATOM      5  C   UNL     1      33.492 -12.285 -22.486  0.00  0.00    +0.146 C 
ATOM      6  C   UNL     1      33.816 -14.356 -21.359  0.00  0.00    +0.039 C 
ATOM      7  C   UNL     1      34.248 -13.448 -22.332  0.00  0.00    +0.034 C 
ATOM      8  C   UNL     1      31.938 -12.927 -20.756  0.00  0.00    -0.004 C 
ATOM      9  C   UNL     1      32.683 -14.101 -20.583  0.00  0.00    +0.058 C 
ATOM     10  C   UNL     1      30.640 -10.175 -21.526  0.00  0.00    +0.120 C 
ENDROOT
BRANCH   6  13
ATOM     11  O   UNL     1      34.904 -15.824 -19.983  0.00  0.00    -0.270 OA
ATOM     12  N   UNL     1      34.844 -16.416 -22.269  0.00  0.00    -0.240 N 
ATOM     13  C   UNL     1      34.563 -15.586 -21.151  0.00  0.00    +0.250 C 
ATOM     14  N   UNL     1      34.804 -18.360 -20.847  0.00  0.00    -0.229 NA
ATOM     15  C   UNL     1      34.964 -17.851 -22.089  0.00  0.00    +0.138 C 
ATOM     16  C   UNL     1      35.238 -18.615 -23.211  0.00  0.00    +0.035 C 
ATOM     17  C   UNL     1      35.356 -19.991 -23.049  0.00  0.00    +0.004 C 
ATOM     18  C   UNL     1      34.926 -19.701 -20.727  0.00  0.00    +0.100 C 
ATOM     19  C   UNL     1      35.198 -20.552 -21.786  0.00  0.00    +0.021 C 
BRANCH  12  20
ATOM     20  C   UNL     1      35.014 -15.833 -23.609  0.00  0.00    +0.112 C 
BRANCH  20  21
ATOM     21  C   UNL     1      33.875 -16.214 -24.547  0.00  0.00    +0.131 C 
BRANCH  21  23
ATOM     22  O   UNL     1      33.797 -14.734 -26.482  0.00  0.00    -0.250 OA
ATOM     23  C   UNL     1      33.379 -15.049 -25.377  0.00  0.00    +0.316 C 
BRANCH  23  24
ATOM     24  O   UNL     1      32.381 -14.379 -24.742  0.00  0.00    -0.480 OA
ATOM     25  H   UNL     1      31.497 -14.681 -24.810  0.00  0.00    +0.295 HD
ENDBRANCH  23  24
ENDBRANCH  21  23
ENDBRANCH  20  21
ENDBRANCH  12  20
ENDBRANCH   6  13
BRANCH   4  26
ATOM     26  C   UNL     1      32.371  -9.052 -23.732  0.00  0.00    +0.164 C 
BRANCH  26  27
ATOM     27  N   UNL     1      33.220  -7.957 -23.280  0.00  0.00    -0.326 N 
ATOM     28  H   UNL     1      34.188  -8.116 -23.199  0.00  0.00    +0.147 HD
BRANCH  27  29
ATOM     29  C   UNL     1      32.733  -6.708 -22.958  0.00  0.00    +0.045 C 
ATOM     30  C   UNL     1      32.111  -6.498 -21.727  0.00  0.00    +0.014 C 
ATOM     31  C   UNL     1      32.859  -5.655 -23.865  0.00  0.00    +0.014 C 
ATOM     32  C   UNL     1      31.616  -5.235 -21.403  0.00  0.00    +0.004 C 
ATOM     33  C   UNL     1      32.365  -4.393 -23.540  0.00  0.00    +0.004 C 
ATOM     34  C   UNL     1      31.743  -4.182 -22.309  0.00  0.00    +0.031 C 
BRANCH  34  37
ATOM     35  N   UNL     1      29.860  -2.639 -21.821  0.00  0.00    -0.343 N 
ATOM     36  N   UNL     1      32.061  -1.855 -21.805  0.00  0.00    -0.285 NA
ATOM     37  C   UNL     1      31.227  -2.865 -21.971  0.00  0.00    +0.117 C 
ATOM     38  H   UNL     1      29.532  -1.739 -21.592  0.00  0.00    +0.144 HD
ATOM     39  H   UNL     1      29.222  -3.378 -21.943  0.00  0.00    +0.144 HD
ATOM     40  H   UNL     1      31.714  -0.962 -21.576  0.00  0.00    +0.188 HD
ENDBRANCH  34  37
ENDBRANCH  27  29
ENDBRANCH  26  27
ENDBRANCH   4  26
TORSDOF 9
ENDMDL
MODEL 9
REMARK VINA RESULT:      -9.6      3.296     11.033
REMARK  Name = 216210
REMARK  9 active torsions:
REMARK  status: ('A' for Active; 'I' for Inactive)
REMARK    1  A    between atoms: C_4  and  C_26
REMARK    2  A    between atoms: C_6  and  C_13
REMARK    3  A    between atoms: N_12  and  C_20
REMARK    4  A    between atoms: C_20  and  C_21
REMARK    5  A    between atoms: C_21  and  C_23
REMARK    6  A    between atoms: C_23  and  O_24
REMARK    7  A    between atoms: C_26  and  N_27
REMARK    8  A    between atoms: N_27  and  C_29
REMARK    9  A    between atoms: C_34  and  C_37
REMARK                            x       y       z     vdW  Elec       q    Type
REMARK                         _______ _______ _______ _____ _____    ______ ____
ROOT
ATOM      1  N   UNL     1      33.152 -13.243 -22.552  0.00  0.00    -0.261 N 
ATOM      2  N   UNL     1      32.829 -14.106 -20.530  0.00  0.00    -0.388 NA
ATOM      3  C   UNL     1      33.882 -14.402 -22.419  0.00  0.00    +0.079 C 
ATOM      4  C   UNL     1      32.534 -13.096 -21.401  0.00  0.00    +0.184 C 
ATOM      5  C   UNL     1      33.695 -14.962 -21.159  0.00  0.00    +0.146 C 
ATOM      6  C   UNL     1      35.158 -16.769 -21.671  0.00  0.00    +0.039 C 
ATOM      7  C   UNL     1      34.314 -16.143 -20.746  0.00  0.00    +0.034 C 
ATOM      8  C   UNL     1      34.733 -15.043 -23.335  0.00  0.00    -0.004 C 
ATOM      9  C   UNL     1      35.364 -16.230 -22.943  0.00  0.00    +0.058 C 
ATOM     10  C   UNL     1      33.095 -12.393 -23.717  0.00  0.00    +0.120 C 
ENDROOT
BRANCH   6  13
ATOM     11  O   UNL     1      37.041 -17.907 -21.047  0.00  0.00    -0.270 OA
ATOM     12  N   UNL     1      35.080 -19.207 -21.246  0.00  0.00    -0.240 N 
ATOM     13  C   UNL     1      35.831 -18.004 -21.299  0.00  0.00    +0.250 C 
ATOM     14  N   UNL     1      36.530 -20.047 -19.516  0.00  0.00    -0.229 NA
ATOM     15  C   UNL     1      35.459 -20.253 -20.314  0.00  0.00    +0.138 C 
ATOM     16  C   UNL     1      34.692 -21.406 -20.302  0.00  0.00    +0.035 C 
ATOM     17  C   UNL     1      35.048 -22.415 -19.413  0.00  0.00    +0.004 C 
ATOM     18  C   UNL     1      36.847 -21.049 -18.665  0.00  0.00    +0.100 C 
ATOM     19  C   UNL     1      36.144 -22.240 -18.575  0.00  0.00    +0.021 C 
BRANCH  12  20
ATOM     20  C   UNL     1      33.918 -19.402 -22.128  0.00  0.00    +0.112 C 
BRANCH  20  21
ATOM     21  C   UNL     1      34.333 -19.720 -23.558  0.00  0.00    +0.131 C 
BRANCH  21  23
ATOM     22  O   UNL     1      34.080 -17.853 -25.105  0.00  0.00    -0.250 OA
ATOM     23  C   UNL     1      33.624 -18.861 -24.584  0.00  0.00    +0.316 C 
BRANCH  23  24
ATOM     24  O   UNL     1      32.393 -19.355 -24.876  0.00  0.00    -0.480 OA
ATOM     25  H   UNL     1      31.718 -19.347 -24.226  0.00  0.00    +0.295 HD
ENDBRANCH  23  24
ENDBRANCH  21  23
ENDBRANCH  20  21
ENDBRANCH  12  20
ENDBRANCH   6  13
BRANCH   4  26
ATOM     26  C   UNL     1      31.630 -11.964 -21.110  0.00  0.00    +0.164 C 
BRANCH  26  27
ATOM     27  N   UNL     1      32.279 -10.771 -20.584  0.00  0.00    -0.326 N 
ATOM     28  H   UNL     1      32.949 -10.878 -19.870  0.00  0.00    +0.147 HD
BRANCH  27  29
ATOM     29  C   UNL     1      32.002  -9.499 -21.035  0.00  0.00    +0.045 C 
ATOM     30  C   UNL     1      31.453  -9.312 -22.305  0.00  0.00    +0.014 C 
ATOM     31  C   UNL     1      32.272  -8.396 -20.224  0.00  0.00    +0.014 C 
ATOM     32  C   UNL     1      31.175  -8.025 -22.762  0.00  0.00    +0.004 C 
ATOM     33  C   UNL     1      31.992  -7.109 -20.681  0.00  0.00    +0.004 C 
ATOM     34  C   UNL     1      31.444  -6.923 -21.951  0.00  0.00    +0.031 C 
BRANCH  34  37
ATOM     35  N   UNL     1      30.595  -4.618 -21.587  0.00  0.00    -0.343 N 
ATOM     36  N   UNL     1      31.414  -5.256 -23.680  0.00  0.00    -0.285 NA
ATOM     37  C   UNL     1      31.153  -5.580 -22.427  0.00  0.00    +0.117 C 
ATOM     38  H   UNL     1      30.406  -3.714 -21.931  0.00  0.00    +0.144 HD
ATOM     39  H   UNL     1      30.391  -4.840 -20.650  0.00  0.00    +0.144 HD
ATOM     40  H   UNL     1      31.217  -4.348 -24.006  0.00  0.00    +0.188 HD
ENDBRANCH  34  37
ENDBRANCH  27  29
ENDBRANCH  26  27
ENDBRANCH   4  26
TORSDOF 9
ENDMDL
