MODEL 1
REMARK VINA RESULT:     -11.6      0.000      0.000
REMARK  Name = 58507717
REMARK  2 active torsions:
REMARK  status: ('A' for Active; 'I' for Inactive)
REMARK    1  A    between atoms: C_18  and  C_21
REMARK    2  A    between atoms: C_22  and  C_31
REMARK                            x       y       z     vdW  Elec       q    Type
REMARK                         _______ _______ _______ _____ _____    ______ ____
ROOT
ATOM      1  O   UNL     1      29.713 -24.351 -13.926  0.00  0.00    -0.350 OA
ATOM      2  O   UNL     1      38.920 -26.279 -12.502  0.00  0.00    -0.350 OA
ATOM      3  N   UNL     1      32.379 -24.187 -14.800  0.00  0.00    -0.228 N 
ATOM      4  N   UNL     1      36.890 -25.146 -14.082  0.00  0.00    -0.228 N 
ATOM      5  N   UNL     1      34.625 -24.690 -14.412  0.00  0.00    -0.246 NA
ATOM      6  N   UNL     1      36.304 -23.662 -15.784  0.00  0.00    -0.260 NA
ATOM      7  N   UNL     1      33.984 -23.169 -16.154  0.00  0.00    -0.260 NA
ATOM      8  C   UNL     1      32.014 -25.085 -13.700  0.00  0.00    +0.135 C 
ATOM      9  C   UNL     1      31.452 -23.069 -15.030  0.00  0.00    +0.135 C 
ATOM     10  C   UNL     1      38.300 -24.954 -14.438  0.00  0.00    +0.135 C 
ATOM     11  C   UNL     1      36.639 -25.470 -12.671  0.00  0.00    +0.135 C 
ATOM     12  C   UNL     1      30.554 -25.500 -13.837  0.00  0.00    +0.164 C 
ATOM     13  C   UNL     1      30.022 -23.592 -15.096  0.00  0.00    +0.164 C 
ATOM     14  C   UNL     1      37.556 -26.606 -12.233  0.00  0.00    +0.164 C 
ATOM     15  C   UNL     1      39.129 -26.118 -13.905  0.00  0.00    +0.164 C 
ATOM     16  C   UNL     1      33.725 -24.007 -15.138  0.00  0.00    +0.224 C 
ATOM     17  C   UNL     1      35.894 -24.468 -14.792  0.00  0.00    +0.224 C 
ATOM     18  C   UNL     1      35.294 -23.046 -16.420  0.00  0.00    +0.164 C 
ENDROOT
BRANCH  18  21
ATOM     19  N   UNL     1      37.234 -20.559 -18.383  0.00  0.00    -0.229 NA
ATOM     20  N   UNL     1      36.828 -19.566 -20.510  0.00  0.00    -0.343 N 
ATOM     21  C   UNL     1      35.655 -22.161 -17.498  0.00  0.00    +0.110 C 
ATOM     22  C   UNL     1      34.865 -22.021 -18.634  0.00  0.00    +0.087 C 
ATOM     23  C   UNL     1      36.818 -21.414 -17.422  0.00  0.00    +0.112 C 
ATOM     24  C   UNL     1      35.259 -21.151 -19.645  0.00  0.00    +0.038 C 
ATOM     25  C   UNL     1      36.442 -20.450 -19.472  0.00  0.00    +0.125 C 
ATOM     26  H   UNL     1      37.661 -19.047 -20.429  0.00  0.00    +0.144 HD
ATOM     27  H   UNL     1      36.265 -19.470 -21.312  0.00  0.00    +0.144 HD
BRANCH  22  31
ATOM     28  F   UNL     1      33.000 -22.559 -20.008  0.00  0.00    -0.166 F 
ATOM     29  F   UNL     1      33.753 -24.138 -18.717  0.00  0.00    -0.166 F 
ATOM     30  F   UNL     1      32.647 -22.478 -17.865  0.00  0.00    -0.166 F 
ATOM     31  C   UNL     1      33.591 -22.785 -18.800  0.00  0.00    +0.419 C 
ENDBRANCH  22  31
ENDBRANCH  18  21
TORSDOF 2
ENDMDL
MODEL 2
REMARK VINA RESULT:     -11.2      3.084      6.028
REMARK  Name = 58507717
REMARK  2 active torsions:
REMARK  status: ('A' for Active; 'I' for Inactive)
REMARK    1  A    between atoms: C_18  and  C_21
REMARK    2  A    between atoms: C_22  and  C_31
REMARK                            x       y       z     vdW  Elec       q    Type
REMARK                         _______ _______ _______ _____ _____    ______ ____
ROOT
ATOM      1  O   UNL     1      29.786 -24.839 -13.703  0.00  0.00    -0.350 OA
ATOM      2  O   UNL     1      35.321 -20.957 -20.397  0.00  0.00    -0.350 OA
ATOM      3  N   UNL     1      32.358 -24.201 -14.640  0.00  0.00    -0.228 N 
ATOM      4  N   UNL     1      35.053 -22.288 -17.936  0.00  0.00    -0.228 N 
ATOM      5  N   UNL     1      33.675 -23.229 -16.305  0.00  0.00    -0.246 NA
ATOM      6  N   UNL     1      36.047 -23.581 -16.268  0.00  0.00    -0.260 NA
ATOM      7  N   UNL     1      34.662 -24.564 -14.572  0.00  0.00    -0.260 NA
ATOM      8  C   UNL     1      31.172 -23.607 -15.267  0.00  0.00    +0.135 C 
ATOM      9  C   UNL     1      32.121 -25.461 -13.921  0.00  0.00    +0.135 C 
ATOM     10  C   UNL     1      36.381 -22.069 -18.519  0.00  0.00    +0.135 C 
ATOM     11  C   UNL     1      33.939 -22.265 -18.893  0.00  0.00    +0.135 C 
ATOM     12  C   UNL     1      30.032 -23.547 -14.258  0.00  0.00    +0.164 C 
ATOM     13  C   UNL     1      30.930 -25.302 -12.984  0.00  0.00    +0.164 C 
ATOM     14  C   UNL     1      34.040 -21.022 -19.770  0.00  0.00    +0.164 C 
ATOM     15  C   UNL     1      36.352 -20.837 -19.418  0.00  0.00    +0.164 C 
ATOM     16  C   UNL     1      33.623 -23.988 -15.198  0.00  0.00    +0.224 C 
ATOM     17  C   UNL     1      34.919 -23.069 -16.783  0.00  0.00    +0.224 C 
ATOM     18  C   UNL     1      35.842 -24.318 -15.163  0.00  0.00    +0.164 C 
ENDROOT
BRANCH  18  21
ATOM     19  N   UNL     1      38.660 -26.666 -14.581  0.00  0.00    -0.229 NA
ATOM     20  N   UNL     1      40.352 -26.714 -12.905  0.00  0.00    -0.343 N 
ATOM     21  C   UNL     1      37.007 -24.903 -14.551  0.00  0.00    +0.110 C 
ATOM     22  C   UNL     1      37.599 -24.356 -13.418  0.00  0.00    +0.087 C 
ATOM     23  C   UNL     1      37.570 -26.048 -15.089  0.00  0.00    +0.112 C 
ATOM     24  C   UNL     1      38.722 -24.963 -12.866  0.00  0.00    +0.038 C 
ATOM     25  C   UNL     1      39.209 -26.106 -13.480  0.00  0.00    +0.125 C 
ATOM     26  H   UNL     1      40.732 -27.528 -13.308  0.00  0.00    +0.144 HD
ATOM     27  H   UNL     1      40.767 -26.323 -12.102  0.00  0.00    +0.144 HD
BRANCH  22  31
ATOM     28  F   UNL     1      36.896 -22.097 -13.651  0.00  0.00    -0.166 F 
ATOM     29  F   UNL     1      35.833 -23.308 -12.192  0.00  0.00    -0.166 F 
ATOM     30  F   UNL     1      37.853 -22.636 -11.776  0.00  0.00    -0.166 F 
ATOM     31  C   UNL     1      37.056 -23.124 -12.769  0.00  0.00    +0.419 C 
ENDBRANCH  22  31
ENDBRANCH  18  21
TORSDOF 2
ENDMDL
MODEL 3
REMARK VINA RESULT:     -10.9      1.871      2.273
REMARK  Name = 58507717
REMARK  2 active torsions:
REMARK  status: ('A' for Active; 'I' for Inactive)
REMARK    1  A    between atoms: C_18  and  C_21
REMARK    2  A    between atoms: C_22  and  C_31
REMARK                            x       y       z     vdW  Elec       q    Type
REMARK                         _______ _______ _______ _____ _____    ______ ____
ROOT
ATOM      1  O   UNL     1      29.212 -24.663 -14.037  0.00  0.00    -0.350 OA
ATOM      2  O   UNL     1      38.471 -26.169 -12.456  0.00  0.00    -0.350 OA
ATOM      3  N   UNL     1      31.875 -24.465 -14.912  0.00  0.00    -0.228 N 
ATOM      4  N   UNL     1      36.412 -25.216 -14.116  0.00  0.00    -0.228 N 
ATOM      5  N   UNL     1      34.135 -24.862 -14.483  0.00  0.00    -0.246 NA
ATOM      6  N   UNL     1      35.785 -23.870 -15.915  0.00  0.00    -0.260 NA
ATOM      7  N   UNL     1      33.452 -23.484 -16.326  0.00  0.00    -0.260 NA
ATOM      8  C   UNL     1      31.535 -25.299 -13.755  0.00  0.00    +0.135 C 
ATOM      9  C   UNL     1      30.911 -23.398 -15.218  0.00  0.00    +0.135 C 
ATOM     10  C   UNL     1      37.817 -24.999 -14.479  0.00  0.00    +0.135 C 
ATOM     11  C   UNL     1      36.165 -25.453 -12.687  0.00  0.00    +0.135 C 
ATOM     12  C   UNL     1      30.091 -25.773 -13.868  0.00  0.00    +0.164 C 
ATOM     13  C   UNL     1      29.501 -23.974 -15.254  0.00  0.00    +0.164 C 
ATOM     14  C   UNL     1      37.118 -26.525 -12.170  0.00  0.00    +0.164 C 
ATOM     15  C   UNL     1      38.683 -26.094 -13.866  0.00  0.00    +0.164 C 
ATOM     16  C   UNL     1      33.216 -24.261 -15.256  0.00  0.00    +0.224 C 
ATOM     17  C   UNL     1      35.397 -24.622 -14.873  0.00  0.00    +0.224 C 
ATOM     18  C   UNL     1      34.758 -23.333 -16.595  0.00  0.00    +0.164 C 
ENDROOT
BRANCH  18  21
ATOM     19  N   UNL     1      34.513 -21.764 -19.953  0.00  0.00    -0.229 NA
ATOM     20  N   UNL     1      35.926 -20.208 -21.073  0.00  0.00    -0.343 N 
ATOM     21  C   UNL     1      35.094 -22.511 -17.728  0.00  0.00    +0.110 C 
ATOM     22  C   UNL     1      36.232 -21.712 -17.750  0.00  0.00    +0.087 C 
ATOM     23  C   UNL     1      34.275 -22.502 -18.845  0.00  0.00    +0.112 C 
ATOM     24  C   UNL     1      36.511 -20.939 -18.871  0.00  0.00    +0.038 C 
ATOM     25  C   UNL     1      35.627 -21.000 -19.937  0.00  0.00    +0.125 C 
ATOM     26  H   UNL     1      35.326 -20.221 -21.853  0.00  0.00    +0.144 HD
ATOM     27  H   UNL     1      36.734 -19.645 -21.083  0.00  0.00    +0.144 HD
BRANCH  22  31
ATOM     28  F   UNL     1      37.972 -20.557 -16.613  0.00  0.00    -0.166 F 
ATOM     29  F   UNL     1      36.546 -21.639 -15.379  0.00  0.00    -0.166 F 
ATOM     30  F   UNL     1      38.024 -22.728 -16.535  0.00  0.00    -0.166 F 
ATOM     31  C   UNL     1      37.175 -21.663 -16.590  0.00  0.00    +0.419 C 
ENDBRANCH  22  31
ENDBRANCH  18  21
TORSDOF 2
ENDMDL
MODEL 4
REMARK VINA RESULT:     -10.6      3.105      6.665
REMARK  Name = 58507717
REMARK  2 active torsions:
REMARK  status: ('A' for Active; 'I' for Inactive)
REMARK    1  A    between atoms: C_18  and  C_21
REMARK    2  A    between atoms: C_22  and  C_31
REMARK                            x       y       z     vdW  Elec       q    Type
REMARK                         _______ _______ _______ _____ _____    ______ ____
ROOT
ATOM      1  O   UNL     1      35.287 -20.614 -20.010  0.00  0.00    -0.350 OA
ATOM      2  O   UNL     1      30.030 -24.536 -13.118  0.00  0.00    -0.350 OA
ATOM      3  N   UNL     1      35.078 -22.403 -17.852  0.00  0.00    -0.228 N 
ATOM      4  N   UNL     1      32.479 -24.316 -14.480  0.00  0.00    -0.228 N 
ATOM      5  N   UNL     1      33.746 -23.344 -16.181  0.00  0.00    -0.246 NA
ATOM      6  N   UNL     1      34.784 -24.674 -14.475  0.00  0.00    -0.260 NA
ATOM      7  N   UNL     1      36.121 -23.691 -16.210  0.00  0.00    -0.260 NA
ATOM      8  C   UNL     1      33.873 -21.810 -18.443  0.00  0.00    +0.135 C 
ATOM      9  C   UNL     1      36.319 -21.649 -18.074  0.00  0.00    +0.135 C 
ATOM     10  C   UNL     1      32.377 -25.132 -13.265  0.00  0.00    +0.135 C 
ATOM     11  C   UNL     1      31.455 -23.271 -14.619  0.00  0.00    +0.135 C 
ATOM     12  C   UNL     1      34.137 -21.452 -19.900  0.00  0.00    +0.164 C 
ATOM     13  C   UNL     1      36.453 -21.300 -19.552  0.00  0.00    +0.164 C 
ATOM     14  C   UNL     1      30.073 -23.870 -14.380  0.00  0.00    +0.164 C 
ATOM     15  C   UNL     1      30.946 -25.630 -13.097  0.00  0.00    +0.164 C 
ATOM     16  C   UNL     1      34.977 -23.182 -16.695  0.00  0.00    +0.224 C 
ATOM     17  C   UNL     1      33.727 -24.101 -15.073  0.00  0.00    +0.224 C 
ATOM     18  C   UNL     1      35.947 -24.425 -15.099  0.00  0.00    +0.164 C 
ENDROOT
BRANCH  18  21
ATOM     19  N   UNL     1      38.794 -26.757 -14.592  0.00  0.00    -0.229 NA
ATOM     20  N   UNL     1      40.522 -26.803 -12.953  0.00  0.00    -0.343 N 
ATOM     21  C   UNL     1      37.129 -25.006 -14.517  0.00  0.00    +0.110 C 
ATOM     22  C   UNL     1      37.742 -24.462 -13.393  0.00  0.00    +0.087 C 
ATOM     23  C   UNL     1      37.689 -26.144 -15.073  0.00  0.00    +0.112 C 
ATOM     24  C   UNL     1      38.880 -25.064 -12.869  0.00  0.00    +0.038 C 
ATOM     25  C   UNL     1      39.363 -26.200 -13.500  0.00  0.00    +0.125 C 
ATOM     26  H   UNL     1      40.899 -27.611 -13.370  0.00  0.00    +0.144 HD
ATOM     27  H   UNL     1      40.951 -26.414 -12.157  0.00  0.00    +0.144 HD
BRANCH  22  31
ATOM     28  F   UNL     1      37.130 -22.171 -13.571  0.00  0.00    -0.166 F 
ATOM     29  F   UNL     1      35.944 -23.401 -12.225  0.00  0.00    -0.166 F 
ATOM     30  F   UNL     1      37.958 -22.819 -11.668  0.00  0.00    -0.166 F 
ATOM     31  C   UNL     1      37.204 -23.238 -12.724  0.00  0.00    +0.419 C 
ENDBRANCH  22  31
ENDBRANCH  18  21
TORSDOF 2
ENDMDL
MODEL 5
REMARK VINA RESULT:     -10.0      3.097      7.082
REMARK  Name = 58507717
REMARK  2 active torsions:
REMARK  status: ('A' for Active; 'I' for Inactive)
REMARK    1  A    between atoms: C_18  and  C_21
REMARK    2  A    between atoms: C_22  and  C_31
REMARK                            x       y       z     vdW  Elec       q    Type
REMARK                         _______ _______ _______ _____ _____    ______ ____
ROOT
ATOM      1  O   UNL     1      35.501 -20.514 -20.224  0.00  0.00    -0.350 OA
ATOM      2  O   UNL     1      28.377 -24.187 -15.100  0.00  0.00    -0.350 OA
ATOM      3  N   UNL     1      34.624 -22.295 -18.234  0.00  0.00    -0.228 N 
ATOM      4  N   UNL     1      31.113 -24.084 -15.734  0.00  0.00    -0.228 N 
ATOM      5  N   UNL     1      32.842 -23.172 -17.007  0.00  0.00    -0.246 NA
ATOM      6  N   UNL     1      33.309 -24.555 -15.103  0.00  0.00    -0.260 NA
ATOM      7  N   UNL     1      35.115 -23.636 -16.389  0.00  0.00    -0.260 NA
ATOM      8  C   UNL     1      33.657 -21.642 -19.123  0.00  0.00    +0.135 C 
ATOM      9  C   UNL     1      35.913 -21.602 -18.096  0.00  0.00    +0.135 C 
ATOM     10  C   UNL     1      30.644 -24.897 -14.606  0.00  0.00    +0.135 C 
ATOM     11  C   UNL     1      30.216 -22.991 -16.133  0.00  0.00    +0.135 C 
ATOM     12  C   UNL     1      34.327 -21.294 -20.447  0.00  0.00    +0.164 C 
ATOM     13  C   UNL     1      36.463 -21.257 -19.475  0.00  0.00    +0.164 C 
ATOM     14  C   UNL     1      28.796 -23.521 -16.291  0.00  0.00    +0.164 C 
ATOM     15  C   UNL     1      29.200 -25.325 -14.845  0.00  0.00    +0.164 C 
ATOM     16  C   UNL     1      34.173 -23.070 -17.161  0.00  0.00    +0.224 C 
ATOM     17  C   UNL     1      32.485 -23.930 -15.958  0.00  0.00    +0.224 C 
ATOM     18  C   UNL     1      34.609 -24.362 -15.380  0.00  0.00    +0.164 C 
ENDROOT
BRANCH  18  21
ATOM     19  N   UNL     1      37.464 -26.470 -14.282  0.00  0.00    -0.229 NA
ATOM     20  N   UNL     1      38.352 -26.919 -12.118  0.00  0.00    -0.343 N 
ATOM     21  C   UNL     1      35.557 -25.001 -14.504  0.00  0.00    +0.110 C 
ATOM     22  C   UNL     1      35.527 -24.820 -13.126  0.00  0.00    +0.087 C 
ATOM     23  C   UNL     1      36.536 -25.829 -15.028  0.00  0.00    +0.112 C 
ATOM     24  C   UNL     1      36.465 -25.463 -12.325  0.00  0.00    +0.038 C 
ATOM     25  C   UNL     1      37.404 -26.270 -12.947  0.00  0.00    +0.125 C 
ATOM     26  H   UNL     1      39.038 -27.502 -12.518  0.00  0.00    +0.144 HD
ATOM     27  H   UNL     1      38.326 -26.788 -11.143  0.00  0.00    +0.144 HD
BRANCH  22  31
ATOM     28  F   UNL     1      34.857 -23.584 -11.208  0.00  0.00    -0.166 F 
ATOM     29  F   UNL     1      34.277 -22.781 -13.143  0.00  0.00    -0.166 F 
ATOM     30  F   UNL     1      33.279 -24.540 -12.357  0.00  0.00    -0.166 F 
ATOM     31  C   UNL     1      34.502 -23.948 -12.473  0.00  0.00    +0.419 C 
ENDBRANCH  22  31
ENDBRANCH  18  21
TORSDOF 2
ENDMDL
MODEL 6
REMARK VINA RESULT:      -9.9      2.151      2.782
REMARK  Name = 58507717
REMARK  2 active torsions:
REMARK  status: ('A' for Active; 'I' for Inactive)
REMARK    1  A    between atoms: C_18  and  C_21
REMARK    2  A    between atoms: C_22  and  C_31
REMARK                            x       y       z     vdW  Elec       q    Type
REMARK                         _______ _______ _______ _____ _____    ______ ____
ROOT
ATOM      1  O   UNL     1      28.474 -24.587 -15.153  0.00  0.00    -0.350 OA
ATOM      2  O   UNL     1      37.830 -23.997 -13.532  0.00  0.00    -0.350 OA
ATOM      3  N   UNL     1      31.046 -23.910 -16.063  0.00  0.00    -0.228 N 
ATOM      4  N   UNL     1      35.632 -23.632 -15.246  0.00  0.00    -0.228 N 
ATOM      5  N   UNL     1      33.335 -23.792 -15.622  0.00  0.00    -0.246 NA
ATOM      6  N   UNL     1      34.754 -22.597 -17.143  0.00  0.00    -0.260 NA
ATOM      7  N   UNL     1      32.395 -22.741 -17.564  0.00  0.00    -0.260 NA
ATOM      8  C   UNL     1      30.877 -24.701 -14.839  0.00  0.00    +0.135 C 
ATOM      9  C   UNL     1      29.883 -23.096 -16.447  0.00  0.00    +0.135 C 
ATOM     10  C   UNL     1      36.964 -23.157 -15.637  0.00  0.00    +0.135 C 
ATOM     11  C   UNL     1      35.427 -23.798 -13.801  0.00  0.00    +0.135 C 
ATOM     12  C   UNL     1      29.564 -25.473 -14.901  0.00  0.00    +0.164 C 
ATOM     13  C   UNL     1      28.624 -23.955 -16.424  0.00  0.00    +0.164 C 
ATOM     14  C   UNL     1      36.579 -24.603 -13.207  0.00  0.00    +0.164 C 
ATOM     15  C   UNL     1      38.034 -23.994 -14.945  0.00  0.00    +0.164 C 
ATOM     16  C   UNL     1      32.317 -23.460 -16.433  0.00  0.00    +0.224 C 
ATOM     17  C   UNL     1      34.522 -23.326 -16.040  0.00  0.00    +0.224 C 
ATOM     18  C   UNL     1      33.644 -22.343 -17.856  0.00  0.00    +0.164 C 
ENDROOT
BRANCH  18  21
ATOM     19  N   UNL     1      32.763 -20.366 -20.875  0.00  0.00    -0.229 NA
ATOM     20  N   UNL     1      34.123 -19.318 -22.525  0.00  0.00    -0.343 N 
ATOM     21  C   UNL     1      33.811 -21.564 -19.055  0.00  0.00    +0.110 C 
ATOM     22  C   UNL     1      35.067 -21.253 -19.565  0.00  0.00    +0.087 C 
ATOM     23  C   UNL     1      32.701 -21.101 -19.742  0.00  0.00    +0.112 C 
ATOM     24  C   UNL     1      35.172 -20.499 -20.729  0.00  0.00    +0.038 C 
ATOM     25  C   UNL     1      34.000 -20.083 -21.340  0.00  0.00    +0.125 C 
ATOM     26  H   UNL     1      33.316 -19.001 -22.993  0.00  0.00    +0.144 HD
ATOM     27  H   UNL     1      35.015 -19.101 -22.882  0.00  0.00    +0.144 HD
BRANCH  22  31
ATOM     28  F   UNL     1      36.315 -23.055 -18.642  0.00  0.00    -0.166 F 
ATOM     29  F   UNL     1      37.448 -21.480 -19.624  0.00  0.00    -0.166 F 
ATOM     30  F   UNL     1      36.542 -21.115 -17.687  0.00  0.00    -0.166 F 
ATOM     31  C   UNL     1      36.320 -21.714 -18.892  0.00  0.00    +0.419 C 
ENDBRANCH  22  31
ENDBRANCH  18  21
TORSDOF 2
ENDMDL
MODEL 7
REMARK VINA RESULT:      -9.7      2.944      6.967
REMARK  Name = 58507717
REMARK  2 active torsions:
REMARK  status: ('A' for Active; 'I' for Inactive)
REMARK    1  A    between atoms: C_18  and  C_21
REMARK    2  A    between atoms: C_22  and  C_31
REMARK                            x       y       z     vdW  Elec       q    Type
REMARK                         _______ _______ _______ _____ _____    ______ ____
ROOT
ATOM      1  O   UNL     1      35.805 -21.075 -20.080  0.00  0.00    -0.350 OA
ATOM      2  O   UNL     1      28.604 -24.500 -14.892  0.00  0.00    -0.350 OA
ATOM      3  N   UNL     1      34.915 -22.526 -17.843  0.00  0.00    -0.228 N 
ATOM      4  N   UNL     1      31.366 -24.198 -15.315  0.00  0.00    -0.228 N 
ATOM      5  N   UNL     1      33.115 -23.353 -16.607  0.00  0.00    -0.246 NA
ATOM      6  N   UNL     1      33.522 -24.271 -14.429  0.00  0.00    -0.260 NA
ATOM      7  N   UNL     1      35.348 -23.412 -15.728  0.00  0.00    -0.260 NA
ATOM      8  C   UNL     1      33.983 -22.179 -18.921  0.00  0.00    +0.135 C 
ATOM      9  C   UNL     1      36.106 -21.670 -17.748  0.00  0.00    +0.135 C 
ATOM     10  C   UNL     1      30.869 -24.825 -14.086  0.00  0.00    +0.135 C 
ATOM     11  C   UNL     1      30.409 -23.318 -15.999  0.00  0.00    +0.135 C 
ATOM     12  C   UNL     1      34.745 -22.018 -20.230  0.00  0.00    +0.164 C 
ATOM     13  C   UNL     1      36.756 -21.538 -19.120  0.00  0.00    +0.164 C 
ATOM     14  C   UNL     1      29.073 -24.034 -16.158  0.00  0.00    +0.164 C 
ATOM     15  C   UNL     1      29.507 -25.460 -14.345  0.00  0.00    +0.164 C 
ATOM     16  C   UNL     1      34.437 -23.124 -16.673  0.00  0.00    +0.224 C 
ATOM     17  C   UNL     1      32.731 -23.928 -15.457  0.00  0.00    +0.224 C 
ATOM     18  C   UNL     1      34.818 -23.983 -14.635  0.00  0.00    +0.164 C 
ENDROOT
BRANCH  18  21
ATOM     19  N   UNL     1      36.724 -23.701 -11.460  0.00  0.00    -0.229 NA
ATOM     20  N   UNL     1      38.326 -25.145 -10.448  0.00  0.00    -0.343 N 
ATOM     21  C   UNL     1      35.732 -24.321 -13.575  0.00  0.00    +0.110 C 
ATOM     22  C   UNL     1      36.480 -25.493 -13.590  0.00  0.00    +0.087 C 
ATOM     23  C   UNL     1      35.889 -23.466 -12.497  0.00  0.00    +0.112 C 
ATOM     24  C   UNL     1      37.350 -25.770 -12.541  0.00  0.00    +0.038 C 
ATOM     25  C   UNL     1      37.434 -24.850 -11.508  0.00  0.00    +0.125 C 
ATOM     26  H   UNL     1      38.417 -24.519  -9.694  0.00  0.00    +0.144 HD
ATOM     27  H   UNL     1      38.853 -25.976 -10.464  0.00  0.00    +0.144 HD
BRANCH  22  31
ATOM     28  F   UNL     1      36.534 -27.762 -14.301  0.00  0.00    -0.166 F 
ATOM     29  F   UNL     1      35.174 -26.435 -15.359  0.00  0.00    -0.166 F 
ATOM     30  F   UNL     1      37.313 -26.282 -15.689  0.00  0.00    -0.166 F 
ATOM     31  C   UNL     1      36.377 -26.472 -14.716  0.00  0.00    +0.419 C 
ENDBRANCH  22  31
ENDBRANCH  18  21
TORSDOF 2
ENDMDL
MODEL 8
REMARK VINA RESULT:      -9.7      2.911      5.856
REMARK  Name = 58507717
REMARK  2 active torsions:
REMARK  status: ('A' for Active; 'I' for Inactive)
REMARK    1  A    between atoms: C_18  and  C_21
REMARK    2  A    between atoms: C_22  and  C_31
REMARK                            x       y       z     vdW  Elec       q    Type
REMARK                         _______ _______ _______ _____ _____    ______ ____
ROOT
ATOM      1  O   UNL     1      28.967 -25.029 -14.659  0.00  0.00    -0.350 OA
ATOM      2  O   UNL     1      35.637 -21.381 -20.379  0.00  0.00    -0.350 OA
ATOM      3  N   UNL     1      31.611 -24.154 -15.036  0.00  0.00    -0.228 N 
ATOM      4  N   UNL     1      34.866 -22.361 -17.860  0.00  0.00    -0.228 N 
ATOM      5  N   UNL     1      33.211 -23.249 -16.475  0.00  0.00    -0.246 NA
ATOM      6  N   UNL     1      35.512 -23.229 -15.793  0.00  0.00    -0.260 NA
ATOM      7  N   UNL     1      33.838 -24.150 -14.340  0.00  0.00    -0.260 NA
ATOM      8  C   UNL     1      30.579 -23.844 -16.031  0.00  0.00    +0.135 C 
ATOM      9  C   UNL     1      31.327 -25.316 -14.182  0.00  0.00    +0.135 C 
ATOM     10  C   UNL     1      36.270 -22.031 -18.129  0.00  0.00    +0.135 C 
ATOM     11  C   UNL     1      34.052 -22.647 -19.049  0.00  0.00    +0.135 C 
ATOM     12  C   UNL     1      29.210 -23.810 -15.361  0.00  0.00    +0.164 C 
ATOM     13  C   UNL     1      29.919 -25.203 -13.610  0.00  0.00    +0.164 C 
ATOM     14  C   UNL     1      34.249 -21.546 -20.085  0.00  0.00    +0.164 C 
ATOM     15  C   UNL     1      36.349 -20.963 -19.215  0.00  0.00    +0.164 C 
ATOM     16  C   UNL     1      32.948 -23.836 -15.296  0.00  0.00    +0.224 C 
ATOM     17  C   UNL     1      34.513 -22.975 -16.653  0.00  0.00    +0.224 C 
ATOM     18  C   UNL     1      35.099 -23.818 -14.658  0.00  0.00    +0.164 C 
ENDROOT
BRANCH  18  21
ATOM     19  N   UNL     1      37.406 -23.383 -11.780  0.00  0.00    -0.229 NA
ATOM     20  N   UNL     1      39.021 -24.846 -10.818  0.00  0.00    -0.343 N 
ATOM     21  C   UNL     1      36.114 -24.124 -13.684  0.00  0.00    +0.110 C 
ATOM     22  C   UNL     1      36.773 -25.348 -13.663  0.00  0.00    +0.087 C 
ATOM     23  C   UNL     1      36.465 -23.183 -12.730  0.00  0.00    +0.112 C 
ATOM     24  C   UNL     1      37.747 -25.591 -12.702  0.00  0.00    +0.038 C 
ATOM     25  C   UNL     1      38.024 -24.585 -11.790  0.00  0.00    +0.125 C 
ATOM     26  H   UNL     1      39.250 -24.160 -10.151  0.00  0.00    +0.144 HD
ATOM     27  H   UNL     1      39.484 -25.715 -10.809  0.00  0.00    +0.144 HD
BRANCH  22  31
ATOM     28  F   UNL     1      37.400 -26.506 -15.644  0.00  0.00    -0.166 F 
ATOM     29  F   UNL     1      36.390 -27.667 -14.108  0.00  0.00    -0.166 F 
ATOM     30  F   UNL     1      35.271 -26.240 -15.297  0.00  0.00    -0.166 F 
ATOM     31  C   UNL     1      36.461 -26.421 -14.658  0.00  0.00    +0.419 C 
ENDBRANCH  22  31
ENDBRANCH  18  21
TORSDOF 2
ENDMDL
MODEL 9
REMARK VINA RESULT:      -9.2      3.035      5.983
REMARK  Name = 58507717
REMARK  2 active torsions:
REMARK  status: ('A' for Active; 'I' for Inactive)
REMARK    1  A    between atoms: C_18  and  C_21
REMARK    2  A    between atoms: C_22  and  C_31
REMARK                            x       y       z     vdW  Elec       q    Type
REMARK                         _______ _______ _______ _____ _____    ______ ____
ROOT
ATOM      1  O   UNL     1      36.317 -20.979 -20.508  0.00  0.00    -0.350 OA
ATOM      2  O   UNL     1      37.286 -25.989 -12.479  0.00  0.00    -0.350 OA
ATOM      3  N   UNL     1      35.175 -22.036 -18.168  0.00  0.00    -0.228 N 
ATOM      4  N   UNL     1      35.676 -24.495 -14.232  0.00  0.00    -0.228 N 
ATOM      5  N   UNL     1      35.464 -23.265 -16.204  0.00  0.00    -0.246 NA
ATOM      6  N   UNL     1      33.529 -23.935 -14.954  0.00  0.00    -0.260 NA
ATOM      7  N   UNL     1      33.271 -22.669 -16.977  0.00  0.00    -0.260 NA
ATOM      8  C   UNL     1      36.632 -22.012 -18.337  0.00  0.00    +0.135 C 
ATOM      9  C   UNL     1      34.400 -21.987 -19.415  0.00  0.00    +0.135 C 
ATOM     10  C   UNL     1      35.080 -25.178 -13.079  0.00  0.00    +0.135 C 
ATOM     11  C   UNL     1      36.960 -25.043 -14.689  0.00  0.00    +0.135 C 
ATOM     12  C   UNL     1      37.024 -20.875 -19.273  0.00  0.00    +0.164 C 
ATOM     13  C   UNL     1      34.911 -20.851 -20.294  0.00  0.00    +0.164 C 
ATOM     14  C   UNL     1      37.902 -25.205 -13.502  0.00  0.00    +0.164 C 
ATOM     15  C   UNL     1      36.122 -25.333 -11.977  0.00  0.00    +0.164 C 
ATOM     16  C   UNL     1      34.611 -22.686 -17.066  0.00  0.00    +0.224 C 
ATOM     17  C   UNL     1      34.851 -23.869 -15.174  0.00  0.00    +0.224 C 
ATOM     18  C   UNL     1      32.801 -23.312 -15.897  0.00  0.00    +0.164 C 
ENDROOT
BRANCH  18  21
ATOM     19  N   UNL     1      29.199 -22.803 -16.646  0.00  0.00    -0.229 NA
ATOM     20  N   UNL     1      27.239 -23.334 -15.401  0.00  0.00    -0.343 N 
ATOM     21  C   UNL     1      31.371 -23.340 -15.731  0.00  0.00    +0.110 C 
ATOM     22  C   UNL     1      30.769 -23.872 -14.596  0.00  0.00    +0.087 C 
ATOM     23  C   UNL     1      30.549 -22.821 -16.717  0.00  0.00    +0.112 C 
ATOM     24  C   UNL     1      29.383 -23.871 -14.486  0.00  0.00    +0.038 C 
ATOM     25  C   UNL     1      28.650 -23.330 -15.529  0.00  0.00    +0.125 C 
ATOM     26  H   UNL     1      26.679 -22.959 -16.118  0.00  0.00    +0.144 HD
ATOM     27  H   UNL     1      26.818 -23.712 -14.595  0.00  0.00    +0.144 HD
BRANCH  22  31
ATOM     28  F   UNL     1      30.806 -24.870 -12.437  0.00  0.00    -0.166 F 
ATOM     29  F   UNL     1      32.320 -25.534 -13.849  0.00  0.00    -0.166 F 
ATOM     30  F   UNL     1      32.472 -23.569 -12.944  0.00  0.00    -0.166 F 
ATOM     31  C   UNL     1      31.579 -24.449 -13.479  0.00  0.00    +0.419 C 
ENDBRANCH  22  31
ENDBRANCH  18  21
TORSDOF 2
ENDMDL
