MODEL 1
REMARK VINA RESULT:     -12.6      0.000      0.000
REMARK  Name = 11987860
REMARK  5 active torsions:
REMARK  status: ('A' for Active; 'I' for Inactive)
REMARK    1  A    between atoms: N_2  and  C_19
REMARK    2  A    between atoms: C_3  and  C_11
REMARK    3  A    between atoms: N_9  and  O_17
REMARK    4  A    between atoms: C_19  and  C_20
REMARK    5  A    between atoms: C_23  and  C_26
REMARK                            x       y       z     vdW  Elec       q    Type
REMARK                         _______ _______ _______ _____ _____    ______ ____
ROOT
ATOM      1  O   UNL     1      33.935 -22.768 -14.818  0.00  0.00    -0.272 OA
ATOM      2  N   UNL     1      34.414 -23.755 -16.871  0.00  0.00    -0.298 N 
ATOM      3  C   UNL     1      34.661 -23.438 -15.547  0.00  0.00    +0.253 C 
ATOM      4  H   UNL     1      35.075 -24.303 -17.353  0.00  0.00    +0.150 HD
ENDROOT
BRANCH   3  11
ATOM      5  O   UNL     1      35.317 -25.081 -13.103  0.00  0.00    -0.327 OA
ATOM      6  O   UNL     1      35.856 -25.435 -15.335  0.00  0.00    -0.320 OA
ATOM      7  O   UNL     1      40.249 -24.663 -13.218  0.00  0.00    -0.250 OA
ATOM      8  N   UNL     1      38.076 -25.437 -13.481  0.00  0.00    -0.255 N 
ATOM      9  N   UNL     1      39.925 -26.812 -13.943  0.00  0.00    -0.181 N 
ATOM     10  C   UNL     1      36.072 -23.943 -13.540  0.00  0.00    +0.174 C 
ATOM     11  C   UNL     1      35.940 -24.036 -15.051  0.00  0.00    +0.222 C 
ATOM     12  C   UNL     1      35.743 -26.065 -14.050  0.00  0.00    +0.256 C 
ATOM     13  C   UNL     1      37.509 -24.150 -13.051  0.00  0.00    +0.128 C 
ATOM     14  C   UNL     1      37.128 -26.560 -13.631  0.00  0.00    +0.156 C 
ATOM     15  C   UNL     1      39.476 -25.577 -13.525  0.00  0.00    +0.326 C 
ATOM     16  H   UNL     1      39.310 -27.540 -14.187  0.00  0.00    +0.184 HD
BRANCH   9  17
ATOM     17  O   UNL     1      41.320 -26.957 -13.994  0.00  0.00    -0.294 OA
ATOM     18  H   UNL     1      41.566 -27.440 -14.800  0.00  0.00    +0.241 HD
ENDBRANCH   9  17
ENDBRANCH   3  11
BRANCH   2  19
ATOM     19  C   UNL     1      33.233 -23.318 -17.581  0.00  0.00    +0.116 C 
BRANCH  19  20
ATOM     20  C   UNL     1      33.589 -22.281 -18.609  0.00  0.00    -0.003 C 
ATOM     21  C   UNL     1      34.920 -22.099 -18.967  0.00  0.00    -0.003 C 
ATOM     22  C   UNL     1      32.585 -21.517 -19.189  0.00  0.00    -0.003 C 
ATOM     23  C   UNL     1      34.249 -20.365 -20.509  0.00  0.00    -0.000 C 
ATOM     24  C   UNL     1      35.250 -21.137 -19.921  0.00  0.00    -0.000 C 
ATOM     25  C   UNL     1      32.916 -20.555 -20.143  0.00  0.00    -0.000 C 
BRANCH  23  26
ATOM     26  C   UNL     1      34.591 -19.367 -21.500  0.00  0.00    -0.000 C 
ATOM     27  C   UNL     1      34.279 -19.581 -22.842  0.00  0.00    -0.000 C 
ATOM     28  C   UNL     1      35.232 -18.191 -21.111  0.00  0.00    -0.000 C 
ATOM     29  C   UNL     1      34.608 -18.619 -23.797  0.00  0.00    +0.000 C 
ATOM     30  C   UNL     1      35.561 -17.228 -22.065  0.00  0.00    +0.000 C 
ATOM     31  C   UNL     1      35.250 -17.442 -23.409  0.00  0.00    +0.000 C 
ENDBRANCH  23  26
ENDBRANCH  19  20
ENDBRANCH   2  19
TORSDOF 5
ENDMDL
MODEL 2
REMARK VINA RESULT:     -11.9      8.374     12.903
REMARK  Name = 11987860
REMARK  5 active torsions:
REMARK  status: ('A' for Active; 'I' for Inactive)
REMARK    1  A    between atoms: N_2  and  C_19
REMARK    2  A    between atoms: C_3  and  C_11
REMARK    3  A    between atoms: N_9  and  O_17
REMARK    4  A    between atoms: C_19  and  C_20
REMARK    5  A    between atoms: C_23  and  C_26
REMARK                            x       y       z     vdW  Elec       q    Type
REMARK                         _______ _______ _______ _____ _____    ______ ____
ROOT
ATOM      1  O   UNL     1      33.400 -15.156 -26.220  0.00  0.00    -0.272 OA
ATOM      2  N   UNL     1      34.247 -15.730 -24.129  0.00  0.00    -0.298 N 
ATOM      3  C   UNL     1      33.558 -14.930 -25.023  0.00  0.00    +0.253 C 
ATOM      4  H   UNL     1      34.305 -15.441 -23.189  0.00  0.00    +0.150 HD
ENDROOT
BRANCH   3  11
ATOM      5  O   UNL     1      34.469 -13.252 -22.688  0.00  0.00    -0.327 OA
ATOM      6  O   UNL     1      33.764 -12.613 -24.806  0.00  0.00    -0.320 OA
ATOM      7  O   UNL     1      30.261 -10.784 -21.848  0.00  0.00    -0.250 OA
ATOM      8  N   UNL     1      32.379 -11.381 -22.586  0.00  0.00    -0.255 N 
ATOM      9  N   UNL     1      31.571  -9.189 -22.842  0.00  0.00    -0.181 N 
ATOM     10  C   UNL     1      33.134 -13.749 -22.856  0.00  0.00    +0.174 C 
ATOM     11  C   UNL     1      32.973 -13.720 -24.366  0.00  0.00    +0.222 C 
ATOM     12  C   UNL     1      34.479 -12.183 -23.638  0.00  0.00    +0.256 C 
ATOM     13  C   UNL     1      32.203 -12.769 -22.135  0.00  0.00    +0.128 C 
ATOM     14  C   UNL     1      33.736 -10.996 -23.026  0.00  0.00    +0.156 C 
ATOM     15  C   UNL     1      31.327 -10.467 -22.386  0.00  0.00    +0.326 C 
ATOM     16  H   UNL     1      32.420  -8.936 -23.271  0.00  0.00    +0.184 HD
BRANCH   9  17
ATOM     17  O   UNL     1      30.525  -8.274 -22.651  0.00  0.00    -0.294 OA
ATOM     18  H   UNL     1      30.079  -8.111 -23.497  0.00  0.00    +0.241 HD
ENDBRANCH   9  17
ENDBRANCH   3  11
BRANCH   2  19
ATOM     19  C   UNL     1      34.887 -16.969 -24.509  0.00  0.00    +0.116 C 
BRANCH  19  20
ATOM     20  C   UNL     1      34.843 -17.954 -23.374  0.00  0.00    -0.003 C 
ATOM     21  C   UNL     1      35.305 -17.575 -22.119  0.00  0.00    -0.003 C 
ATOM     22  C   UNL     1      34.342 -19.231 -23.592  0.00  0.00    -0.003 C 
ATOM     23  C   UNL     1      34.763 -19.773 -21.276  0.00  0.00    -0.000 C 
ATOM     24  C   UNL     1      35.264 -18.489 -21.066  0.00  0.00    -0.000 C 
ATOM     25  C   UNL     1      34.302 -20.144 -22.539  0.00  0.00    -0.000 C 
BRANCH  23  26
ATOM     26  C   UNL     1      34.720 -20.722 -20.183  0.00  0.00    -0.000 C 
ATOM     27  C   UNL     1      35.905 -21.151 -19.586  0.00  0.00    -0.000 C 
ATOM     28  C   UNL     1      33.494 -21.204 -19.727  0.00  0.00    -0.000 C 
ATOM     29  C   UNL     1      35.864 -22.065 -18.533  0.00  0.00    +0.000 C 
ATOM     30  C   UNL     1      33.452 -22.117 -18.674  0.00  0.00    +0.000 C 
ATOM     31  C   UNL     1      34.637 -22.548 -18.076  0.00  0.00    +0.000 C 
ENDBRANCH  23  26
ENDBRANCH  19  20
ENDBRANCH   2  19
TORSDOF 5
ENDMDL
MODEL 3
REMARK VINA RESULT:     -11.7      8.380     12.483
REMARK  Name = 11987860
REMARK  5 active torsions:
REMARK  status: ('A' for Active; 'I' for Inactive)
REMARK    1  A    between atoms: N_2  and  C_19
REMARK    2  A    between atoms: C_3  and  C_11
REMARK    3  A    between atoms: N_9  and  O_17
REMARK    4  A    between atoms: C_19  and  C_20
REMARK    5  A    between atoms: C_23  and  C_26
REMARK                            x       y       z     vdW  Elec       q    Type
REMARK                         _______ _______ _______ _____ _____    ______ ____
ROOT
ATOM      1  O   UNL     1      32.709 -14.350 -24.624  0.00  0.00    -0.272 OA
ATOM      2  N   UNL     1      34.588 -14.649 -23.283  0.00  0.00    -0.298 N 
ATOM      3  C   UNL     1      33.432 -14.008 -23.692  0.00  0.00    +0.253 C 
ATOM      4  H   UNL     1      35.085 -14.278 -22.518  0.00  0.00    +0.150 HD
ENDROOT
BRANCH   3  11
ATOM      5  O   UNL     1      31.470 -13.598 -21.437  0.00  0.00    -0.327 OA
ATOM      6  O   UNL     1      33.727 -13.067 -21.574  0.00  0.00    -0.320 OA
ATOM      7  O   UNL     1      31.541  -8.651 -21.270  0.00  0.00    -0.250 OA
ATOM      8  N   UNL     1      31.957 -10.896 -20.852  0.00  0.00    -0.255 N 
ATOM      9  N   UNL     1      32.763  -9.219 -19.417  0.00  0.00    -0.181 N 
ATOM     10  C   UNL     1      31.626 -12.704 -22.547  0.00  0.00    +0.174 C 
ATOM     11  C   UNL     1      33.112 -12.820 -22.841  0.00  0.00    +0.222 C 
ATOM     12  C   UNL     1      32.633 -13.277 -20.669  0.00  0.00    +0.256 C 
ATOM     13  C   UNL     1      31.220 -11.311 -22.055  0.00  0.00    +0.128 C 
ATOM     14  C   UNL     1      32.365 -11.970 -19.923  0.00  0.00    +0.156 C 
ATOM     15  C   UNL     1      32.051  -9.522 -20.559  0.00  0.00    +0.326 C 
ATOM     16  H   UNL     1      33.170  -9.913 -18.850  0.00  0.00    +0.184 HD
BRANCH   9  17
ATOM     17  O   UNL     1      32.865  -7.851 -19.121  0.00  0.00    -0.294 OA
ATOM     18  H   UNL     1      32.795  -7.336 -19.941  0.00  0.00    +0.241 HD
ENDBRANCH   9  17
ENDBRANCH   3  11
BRANCH   2  19
ATOM     19  C   UNL     1      35.102 -15.837 -23.926  0.00  0.00    +0.116 C 
BRANCH  19  20
ATOM     20  C   UNL     1      34.996 -17.022 -23.007  0.00  0.00    -0.003 C 
ATOM     21  C   UNL     1      35.300 -16.874 -21.659  0.00  0.00    -0.003 C 
ATOM     22  C   UNL     1      34.595 -18.251 -23.516  0.00  0.00    -0.003 C 
ATOM     23  C   UNL     1      34.799 -19.210 -21.308  0.00  0.00    -0.000 C 
ATOM     24  C   UNL     1      35.201 -17.973 -20.807  0.00  0.00    -0.000 C 
ATOM     25  C   UNL     1      34.496 -19.350 -22.663  0.00  0.00    -0.000 C 
BRANCH  23  26
ATOM     26  C   UNL     1      34.696 -20.352 -20.423  0.00  0.00    -0.000 C 
ATOM     27  C   UNL     1      35.850 -20.953 -19.924  0.00  0.00    -0.000 C 
ATOM     28  C   UNL     1      33.442 -20.848 -20.070  0.00  0.00    -0.000 C 
ATOM     29  C   UNL     1      35.751 -22.052 -19.070  0.00  0.00    +0.000 C 
ATOM     30  C   UNL     1      33.341 -21.946 -19.217  0.00  0.00    +0.000 C 
ATOM     31  C   UNL     1      34.496 -22.549 -18.717  0.00  0.00    +0.000 C 
ENDBRANCH  23  26
ENDBRANCH  19  20
ENDBRANCH   2  19
TORSDOF 5
ENDMDL
MODEL 4
REMARK VINA RESULT:     -11.7      1.667      2.104
REMARK  Name = 11987860
REMARK  5 active torsions:
REMARK  status: ('A' for Active; 'I' for Inactive)
REMARK    1  A    between atoms: N_2  and  C_19
REMARK    2  A    between atoms: C_3  and  C_11
REMARK    3  A    between atoms: N_9  and  O_17
REMARK    4  A    between atoms: C_19  and  C_20
REMARK    5  A    between atoms: C_23  and  C_26
REMARK                            x       y       z     vdW  Elec       q    Type
REMARK                         _______ _______ _______ _____ _____    ______ ____
ROOT
ATOM      1  O   UNL     1      32.512 -23.551 -15.465  0.00  0.00    -0.272 OA
ATOM      2  N   UNL     1      34.254 -23.472 -17.008  0.00  0.00    -0.298 N 
ATOM      3  C   UNL     1      33.709 -23.507 -15.736  0.00  0.00    +0.253 C 
ATOM      4  H   UNL     1      35.234 -23.438 -17.097  0.00  0.00    +0.150 HD
ENDROOT
BRANCH   3  11
ATOM      5  O   UNL     1      34.699 -25.664 -13.875  0.00  0.00    -0.327 OA
ATOM      6  O   UNL     1      35.883 -24.195 -15.229  0.00  0.00    -0.320 OA
ATOM      7  O   UNL     1      37.169 -22.815 -10.667  0.00  0.00    -0.250 OA
ATOM      8  N   UNL     1      36.627 -24.219 -12.434  0.00  0.00    -0.255 N 
ATOM      9  N   UNL     1      38.865 -23.786 -11.863  0.00  0.00    -0.181 N 
ATOM     10  C   UNL     1      34.351 -24.336 -13.461  0.00  0.00    +0.174 C 
ATOM     11  C   UNL     1      34.759 -23.511 -14.670  0.00  0.00    +0.222 C 
ATOM     12  C   UNL     1      35.965 -25.428 -14.498  0.00  0.00    +0.256 C 
ATOM     13  C   UNL     1      35.186 -24.026 -12.215  0.00  0.00    +0.128 C 
ATOM     14  C   UNL     1      37.014 -25.269 -13.398  0.00  0.00    +0.156 C 
ATOM     15  C   UNL     1      37.534 -23.555 -11.586  0.00  0.00    +0.326 C 
ATOM     16  H   UNL     1      39.156 -24.375 -12.595  0.00  0.00    +0.184 HD
BRANCH   9  17
ATOM     17  O   UNL     1      39.775 -23.122 -11.025  0.00  0.00    -0.294 OA
ATOM     18  H   UNL     1      39.404 -23.058 -10.130  0.00  0.00    +0.241 HD
ENDBRANCH   9  17
ENDBRANCH   3  11
BRANCH   2  19
ATOM     19  C   UNL     1      33.452 -23.483 -18.211  0.00  0.00    +0.116 C 
BRANCH  19  20
ATOM     20  C   UNL     1      33.779 -22.295 -19.072  0.00  0.00    -0.003 C 
ATOM     21  C   UNL     1      32.754 -21.462 -19.508  0.00  0.00    -0.003 C 
ATOM     22  C   UNL     1      35.098 -22.043 -19.423  0.00  0.00    -0.003 C 
ATOM     23  C   UNL     1      34.379 -20.099 -20.664  0.00  0.00    -0.000 C 
ATOM     24  C   UNL     1      33.057 -20.360 -20.307  0.00  0.00    -0.000 C 
ATOM     25  C   UNL     1      35.400 -20.941 -20.222  0.00  0.00    -0.000 C 
BRANCH  23  26
ATOM     26  C   UNL     1      34.694 -18.955 -21.493  0.00  0.00    -0.000 C 
ATOM     27  C   UNL     1      34.636 -19.063 -22.882  0.00  0.00    -0.000 C 
ATOM     28  C   UNL     1      35.053 -17.744 -20.901  0.00  0.00    -0.000 C 
ATOM     29  C   UNL     1      34.938 -17.960 -23.681  0.00  0.00    +0.000 C 
ATOM     30  C   UNL     1      35.355 -16.641 -21.699  0.00  0.00    +0.000 C 
ATOM     31  C   UNL     1      35.298 -16.749 -23.090  0.00  0.00    +0.000 C 
ENDBRANCH  23  26
ENDBRANCH  19  20
ENDBRANCH   2  19
TORSDOF 5
ENDMDL
MODEL 5
REMARK VINA RESULT:     -10.8      3.863      6.251
REMARK  Name = 11987860
REMARK  5 active torsions:
REMARK  status: ('A' for Active; 'I' for Inactive)
REMARK    1  A    between atoms: N_2  and  C_19
REMARK    2  A    between atoms: C_3  and  C_11
REMARK    3  A    between atoms: N_9  and  O_17
REMARK    4  A    between atoms: C_19  and  C_20
REMARK    5  A    between atoms: C_23  and  C_26
REMARK                            x       y       z     vdW  Elec       q    Type
REMARK                         _______ _______ _______ _____ _____    ______ ____
ROOT
ATOM      1  O   UNL     1      34.430 -24.252 -16.329  0.00  0.00    -0.272 OA
ATOM      2  N   UNL     1      33.828 -22.649 -17.906  0.00  0.00    -0.298 N 
ATOM      3  C   UNL     1      33.588 -23.553 -16.885  0.00  0.00    +0.253 C 
ATOM      4  H   UNL     1      33.067 -22.144 -18.273  0.00  0.00    +0.150 HD
ENDROOT
BRANCH   3  11
ATOM      5  O   UNL     1      32.225 -24.176 -14.268  0.00  0.00    -0.327 OA
ATOM      6  O   UNL     1      31.923 -22.394 -15.726  0.00  0.00    -0.320 OA
ATOM      7  O   UNL     1      27.608 -24.784 -15.949  0.00  0.00    -0.250 OA
ATOM      8  N   UNL     1      29.540 -23.880 -15.032  0.00  0.00    -0.255 N 
ATOM      9  N   UNL     1      27.491 -22.735 -14.932  0.00  0.00    -0.181 N 
ATOM     10  C   UNL     1      31.838 -24.729 -15.533  0.00  0.00    +0.174 C 
ATOM     11  C   UNL     1      32.147 -23.585 -16.485  0.00  0.00    +0.222 C 
ATOM     12  C   UNL     1      31.703 -22.849 -14.383  0.00  0.00    +0.256 C 
ATOM     13  C   UNL     1      30.342 -25.043 -15.440  0.00  0.00    +0.128 C 
ATOM     14  C   UNL     1      30.196 -22.908 -14.133  0.00  0.00    +0.156 C 
ATOM     15  C   UNL     1      28.168 -23.863 -15.345  0.00  0.00    +0.326 C 
ATOM     16  H   UNL     1      27.936 -22.001 -14.450  0.00  0.00    +0.184 HD
BRANCH   9  17
ATOM     17  O   UNL     1      26.123 -22.708 -15.245  0.00  0.00    -0.294 OA
ATOM     18  H   UNL     1      25.841 -21.789 -15.386  0.00  0.00    +0.241 HD
ENDBRANCH   9  17
ENDBRANCH   3  11
BRANCH   2  19
ATOM     19  C   UNL     1      35.143 -22.413 -18.458  0.00  0.00    +0.116 C 
BRANCH  19  20
ATOM     20  C   UNL     1      35.088 -21.335 -19.505  0.00  0.00    -0.003 C 
ATOM     21  C   UNL     1      33.861 -20.955 -20.035  0.00  0.00    -0.003 C 
ATOM     22  C   UNL     1      36.265 -20.733 -19.932  0.00  0.00    -0.003 C 
ATOM     23  C   UNL     1      34.986 -19.345 -21.440  0.00  0.00    -0.000 C 
ATOM     24  C   UNL     1      33.811 -19.955 -21.006  0.00  0.00    -0.000 C 
ATOM     25  C   UNL     1      36.214 -19.734 -20.903  0.00  0.00    -0.000 C 
BRANCH  23  26
ATOM     26  C   UNL     1      34.934 -18.307 -22.448  0.00  0.00    -0.000 C 
ATOM     27  C   UNL     1      34.526 -18.615 -23.745  0.00  0.00    -0.000 C 
ATOM     28  C   UNL     1      35.291 -16.999 -22.120  0.00  0.00    -0.000 C 
ATOM     29  C   UNL     1      34.475 -17.614 -24.716  0.00  0.00    +0.000 C 
ATOM     30  C   UNL     1      35.240 -15.999 -23.090  0.00  0.00    +0.000 C 
ATOM     31  C   UNL     1      34.832 -16.306 -24.389  0.00  0.00    +0.000 C 
ENDBRANCH  23  26
ENDBRANCH  19  20
ENDBRANCH   2  19
TORSDOF 5
ENDMDL
MODEL 6
REMARK VINA RESULT:     -10.8      9.150     13.360
REMARK  Name = 11987860
REMARK  5 active torsions:
REMARK  status: ('A' for Active; 'I' for Inactive)
REMARK    1  A    between atoms: N_2  and  C_19
REMARK    2  A    between atoms: C_3  and  C_11
REMARK    3  A    between atoms: N_9  and  O_17
REMARK    4  A    between atoms: C_19  and  C_20
REMARK    5  A    between atoms: C_23  and  C_26
REMARK                            x       y       z     vdW  Elec       q    Type
REMARK                         _______ _______ _______ _____ _____    ______ ____
ROOT
ATOM      1  O   UNL     1      31.874 -13.978 -22.817  0.00  0.00    -0.272 OA
ATOM      2  N   UNL     1      33.756 -13.350 -24.034  0.00  0.00    -0.298 N 
ATOM      3  C   UNL     1      32.743 -13.162 -23.110  0.00  0.00    +0.253 C 
ATOM      4  H   UNL     1      34.397 -12.617 -24.183  0.00  0.00    +0.150 HD
ENDROOT
BRANCH   3  11
ATOM      5  O   UNL     1      30.615 -11.228 -22.197  0.00  0.00    -0.327 OA
ATOM      6  O   UNL     1      32.482 -12.038 -21.078  0.00  0.00    -0.320 OA
ATOM      7  O   UNL     1      33.458  -7.223 -21.571  0.00  0.00    -0.250 OA
ATOM      8  N   UNL     1      32.231  -9.159 -21.201  0.00  0.00    -0.255 N 
ATOM      9  N   UNL     1      33.059  -7.881 -19.412  0.00  0.00    -0.181 N 
ATOM     10  C   UNL     1      31.764 -10.861 -22.973  0.00  0.00    +0.174 C 
ATOM     11  C   UNL     1      32.819 -11.821 -22.451  0.00  0.00    +0.222 C 
ATOM     12  C   UNL     1      31.207 -11.401 -20.907  0.00  0.00    +0.256 C 
ATOM     13  C   UNL     1      32.071  -9.396 -22.644  0.00  0.00    +0.128 C 
ATOM     14  C   UNL     1      31.436 -10.017 -20.299  0.00  0.00    +0.156 C 
ATOM     15  C   UNL     1      32.952  -8.027 -20.780  0.00  0.00    +0.326 C 
ATOM     16  H   UNL     1      32.657  -8.520 -18.782  0.00  0.00    +0.184 HD
BRANCH   9  17
ATOM     17  O   UNL     1      33.782  -6.757 -18.984  0.00  0.00    -0.294 OA
ATOM     18  H   UNL     1      34.629  -7.042 -18.605  0.00  0.00    +0.241 HD
ENDBRANCH   9  17
ENDBRANCH   3  11
BRANCH   2  19
ATOM     19  C   UNL     1      33.918 -14.571 -24.791  0.00  0.00    +0.116 C 
BRANCH  19  20
ATOM     20  C   UNL     1      34.335 -15.699 -23.889  0.00  0.00    -0.003 C 
ATOM     21  C   UNL     1      34.778 -15.420 -22.602  0.00  0.00    -0.003 C 
ATOM     22  C   UNL     1      34.272 -17.006 -24.353  0.00  0.00    -0.003 C 
ATOM     23  C   UNL     1      35.106 -17.782 -22.222  0.00  0.00    -0.000 C 
ATOM     24  C   UNL     1      35.165 -16.467 -21.766  0.00  0.00    -0.000 C 
ATOM     25  C   UNL     1      34.659 -18.053 -23.516  0.00  0.00    -0.000 C 
BRANCH  23  26
ATOM     26  C   UNL     1      35.506 -18.869 -21.354  0.00  0.00    -0.000 C 
ATOM     27  C   UNL     1      34.572 -19.826 -20.958  0.00  0.00    -0.000 C 
ATOM     28  C   UNL     1      36.827 -18.960 -20.916  0.00  0.00    -0.000 C 
ATOM     29  C   UNL     1      34.958 -20.874 -20.122  0.00  0.00    +0.000 C 
ATOM     30  C   UNL     1      37.213 -20.008 -20.080  0.00  0.00    +0.000 C 
ATOM     31  C   UNL     1      36.279 -20.965 -19.683  0.00  0.00    +0.000 C 
ENDBRANCH  23  26
ENDBRANCH  19  20
ENDBRANCH   2  19
TORSDOF 5
ENDMDL
MODEL 7
REMARK VINA RESULT:     -10.6      2.950      4.725
REMARK  Name = 11987860
REMARK  5 active torsions:
REMARK  status: ('A' for Active; 'I' for Inactive)
REMARK    1  A    between atoms: N_2  and  C_19
REMARK    2  A    between atoms: C_3  and  C_11
REMARK    3  A    between atoms: N_9  and  O_17
REMARK    4  A    between atoms: C_19  and  C_20
REMARK    5  A    between atoms: C_23  and  C_26
REMARK                            x       y       z     vdW  Elec       q    Type
REMARK                         _______ _______ _______ _____ _____    ______ ____
ROOT
ATOM      1  O   UNL     1      37.486 -22.445 -16.322  0.00  0.00    -0.272 OA
ATOM      2  N   UNL     1      35.980 -22.076 -18.059  0.00  0.00    -0.298 N 
ATOM      3  C   UNL     1      36.339 -22.384 -16.758  0.00  0.00    +0.253 C 
ATOM      4  H   UNL     1      35.023 -22.057 -18.289  0.00  0.00    +0.150 HD
ENDROOT
BRANCH   3  11
ATOM      5  O   UNL     1      34.893 -24.902 -15.943  0.00  0.00    -0.327 OA
ATOM      6  O   UNL     1      35.664 -23.133 -14.651  0.00  0.00    -0.320 OA
ATOM      7  O   UNL     1      30.760 -22.848 -14.149  0.00  0.00    -0.250 OA
ATOM      8  N   UNL     1      32.868 -23.804 -14.338  0.00  0.00    -0.255 N 
ATOM      9  N   UNL     1      31.861 -23.477 -12.241  0.00  0.00    -0.181 N 
ATOM     10  C   UNL     1      34.245 -23.716 -16.423  0.00  0.00    +0.174 C 
ATOM     11  C   UNL     1      35.150 -22.621 -15.883  0.00  0.00    +0.222 C 
ATOM     12  C   UNL     1      35.234 -24.502 -14.613  0.00  0.00    +0.256 C 
ATOM     13  C   UNL     1      32.844 -23.695 -15.805  0.00  0.00    +0.128 C 
ATOM     14  C   UNL     1      33.973 -24.589 -13.752  0.00  0.00    +0.156 C 
ATOM     15  C   UNL     1      31.755 -23.342 -13.609  0.00  0.00    +0.326 C 
ATOM     16  H   UNL     1      32.653 -23.871 -11.810  0.00  0.00    +0.184 HD
BRANCH   9  17
ATOM     17  O   UNL     1      30.758 -23.014 -11.506  0.00  0.00    -0.294 OA
ATOM     18  H   UNL     1      30.988 -22.179 -11.068  0.00  0.00    +0.241 HD
ENDBRANCH   9  17
ENDBRANCH   3  11
BRANCH   2  19
ATOM     19  C   UNL     1      36.943 -21.782 -19.095  0.00  0.00    +0.116 C 
BRANCH  19  20
ATOM     20  C   UNL     1      36.442 -20.676 -19.982  0.00  0.00    -0.003 C 
ATOM     21  C   UNL     1      35.104 -20.651 -20.357  0.00  0.00    -0.003 C 
ATOM     22  C   UNL     1      37.322 -19.693 -20.416  0.00  0.00    -0.003 C 
ATOM     23  C   UNL     1      35.515 -18.633 -21.620  0.00  0.00    -0.000 C 
ATOM     24  C   UNL     1      34.640 -19.625 -21.179  0.00  0.00    -0.000 C 
ATOM     25  C   UNL     1      36.857 -18.667 -21.238  0.00  0.00    -0.000 C 
BRANCH  23  26
ATOM     26  C   UNL     1      35.033 -17.568 -22.473  0.00  0.00    -0.000 C 
ATOM     27  C   UNL     1      34.631 -17.848 -23.778  0.00  0.00    -0.000 C 
ATOM     28  C   UNL     1      34.969 -16.262 -21.988  0.00  0.00    -0.000 C 
ATOM     29  C   UNL     1      34.166 -16.821 -24.600  0.00  0.00    +0.000 C 
ATOM     30  C   UNL     1      34.504 -15.235 -22.809  0.00  0.00    +0.000 C 
ATOM     31  C   UNL     1      34.102 -15.514 -24.116  0.00  0.00    +0.000 C 
ENDBRANCH  23  26
ENDBRANCH  19  20
ENDBRANCH   2  19
TORSDOF 5
ENDMDL
MODEL 8
REMARK VINA RESULT:     -10.5      2.749      5.066
REMARK  Name = 11987860
REMARK  5 active torsions:
REMARK  status: ('A' for Active; 'I' for Inactive)
REMARK    1  A    between atoms: N_2  and  C_19
REMARK    2  A    between atoms: C_3  and  C_11
REMARK    3  A    between atoms: N_9  and  O_17
REMARK    4  A    between atoms: C_19  and  C_20
REMARK    5  A    between atoms: C_23  and  C_26
REMARK                            x       y       z     vdW  Elec       q    Type
REMARK                         _______ _______ _______ _____ _____    ______ ____
ROOT
ATOM      1  O   UNL     1      36.528 -24.401 -15.377  0.00  0.00    -0.272 OA
ATOM      2  N   UNL     1      35.441 -22.865 -16.748  0.00  0.00    -0.298 N 
ATOM      3  C   UNL     1      35.503 -23.869 -15.797  0.00  0.00    +0.253 C 
ATOM      4  H   UNL     1      34.556 -22.517 -17.004  0.00  0.00    +0.150 HD
ENDROOT
BRANCH   3  11
ATOM      5  O   UNL     1      32.934 -22.315 -15.517  0.00  0.00    -0.327 OA
ATOM      6  O   UNL     1      33.323 -24.411 -16.437  0.00  0.00    -0.320 OA
ATOM      7  O   UNL     1      30.509 -25.407 -12.504  0.00  0.00    -0.250 OA
ATOM      8  N   UNL     1      31.291 -24.289 -14.383  0.00  0.00    -0.255 N 
ATOM      9  N   UNL     1      29.470 -25.768 -14.514  0.00  0.00    -0.181 N 
ATOM     10  C   UNL     1      33.504 -23.129 -14.483  0.00  0.00    +0.174 C 
ATOM     11  C   UNL     1      34.151 -24.247 -15.283  0.00  0.00    +0.222 C 
ATOM     12  C   UNL     1      32.395 -23.318 -16.383  0.00  0.00    +0.256 C 
ATOM     13  C   UNL     1      32.342 -23.612 -13.609  0.00  0.00    +0.128 C 
ATOM     14  C   UNL     1      31.088 -23.823 -15.771  0.00  0.00    +0.156 C 
ATOM     15  C   UNL     1      30.423 -25.173 -13.715  0.00  0.00    +0.326 C 
ATOM     16  H   UNL     1      29.401 -25.583 -15.478  0.00  0.00    +0.184 HD
BRANCH   9  17
ATOM     17  O   UNL     1      28.605 -26.656 -13.855  0.00  0.00    -0.294 OA
ATOM     18  H   UNL     1      27.691 -26.340 -13.941  0.00  0.00    +0.241 HD
ENDBRANCH   9  17
ENDBRANCH   3  11
BRANCH   2  19
ATOM     19  C   UNL     1      36.611 -22.305 -17.384  0.00  0.00    +0.116 C 
BRANCH  19  20
ATOM     20  C   UNL     1      36.219 -21.488 -18.583  0.00  0.00    -0.003 C 
ATOM     21  C   UNL     1      37.150 -20.634 -19.165  0.00  0.00    -0.003 C 
ATOM     22  C   UNL     1      34.933 -21.594 -19.096  0.00  0.00    -0.003 C 
ATOM     23  C   UNL     1      35.497 -19.976 -20.798  0.00  0.00    -0.000 C 
ATOM     24  C   UNL     1      36.786 -19.876 -20.277  0.00  0.00    -0.000 C 
ATOM     25  C   UNL     1      34.570 -20.835 -20.208  0.00  0.00    -0.000 C 
BRANCH  23  26
ATOM     26  C   UNL     1      35.119 -19.189 -21.953  0.00  0.00    -0.000 C 
ATOM     27  C   UNL     1      35.386 -17.820 -21.982  0.00  0.00    -0.000 C 
ATOM     28  C   UNL     1      34.491 -19.800 -23.038  0.00  0.00    -0.000 C 
ATOM     29  C   UNL     1      35.023 -17.062 -23.095  0.00  0.00    +0.000 C 
ATOM     30  C   UNL     1      34.128 -19.043 -24.151  0.00  0.00    +0.000 C 
ATOM     31  C   UNL     1      34.393 -17.673 -24.180  0.00  0.00    +0.000 C 
ENDBRANCH  23  26
ENDBRANCH  19  20
ENDBRANCH   2  19
TORSDOF 5
ENDMDL
MODEL 9
REMARK VINA RESULT:     -10.4     10.096     14.207
REMARK  Name = 11987860
REMARK  5 active torsions:
REMARK  status: ('A' for Active; 'I' for Inactive)
REMARK    1  A    between atoms: N_2  and  C_19
REMARK    2  A    between atoms: C_3  and  C_11
REMARK    3  A    between atoms: N_9  and  O_17
REMARK    4  A    between atoms: C_19  and  C_20
REMARK    5  A    between atoms: C_23  and  C_26
REMARK                            x       y       z     vdW  Elec       q    Type
REMARK                         _______ _______ _______ _____ _____    ______ ____
ROOT
ATOM      1  O   UNL     1      31.537 -12.445 -20.453  0.00  0.00    -0.272 OA
ATOM      2  N   UNL     1      31.783 -11.349 -22.492  0.00  0.00    -0.298 N 
ATOM      3  C   UNL     1      31.856 -12.436 -21.639  0.00  0.00    +0.253 C 
ATOM      4  H   UNL     1      32.069 -11.466 -23.427  0.00  0.00    +0.150 HD
ENDROOT
BRANCH   3  11
ATOM      5  O   UNL     1      34.442 -13.042 -23.069  0.00  0.00    -0.327 OA
ATOM      6  O   UNL     1      33.312 -14.252 -21.440  0.00  0.00    -0.320 OA
ATOM      7  O   UNL     1      33.055 -17.181 -25.406  0.00  0.00    -0.250 OA
ATOM      8  N   UNL     1      33.948 -15.688 -23.869  0.00  0.00    -0.255 N 
ATOM      9  N   UNL     1      34.391 -17.991 -23.730  0.00  0.00    -0.181 N 
ATOM     10  C   UNL     1      33.139 -13.338 -23.591  0.00  0.00    +0.174 C 
ATOM     11  C   UNL     1      32.359 -13.664 -22.329  0.00  0.00    +0.222 C 
ATOM     12  C   UNL     1      34.580 -14.076 -22.090  0.00  0.00    +0.256 C 
ATOM     13  C   UNL     1      33.299 -14.543 -24.524  0.00  0.00    +0.128 C 
ATOM     14  C   UNL     1      34.935 -15.374 -22.815  0.00  0.00    +0.156 C 
ATOM     15  C   UNL     1      33.752 -16.974 -24.407  0.00  0.00    +0.326 C 
ATOM     16  H   UNL     1      34.945 -17.827 -22.934  0.00  0.00    +0.184 HD
BRANCH   9  17
ATOM     17  O   UNL     1      34.195 -19.277 -24.257  0.00  0.00    -0.294 OA
ATOM     18  H   UNL     1      33.681 -19.810 -23.629  0.00  0.00    +0.241 HD
ENDBRANCH   9  17
ENDBRANCH   3  11
BRANCH   2  19
ATOM     19  C   UNL     1      31.308 -10.049 -22.075  0.00  0.00    +0.116 C 
BRANCH  19  20
ATOM     20  C   UNL     1      31.989  -8.962 -22.860  0.00  0.00    -0.003 C 
ATOM     21  C   UNL     1      33.374  -8.855 -22.822  0.00  0.00    -0.003 C 
ATOM     22  C   UNL     1      31.227  -8.079 -23.612  0.00  0.00    -0.003 C 
ATOM     23  C   UNL     1      33.250  -6.955 -24.308  0.00  0.00    -0.000 C 
ATOM     24  C   UNL     1      34.006  -7.847 -23.549  0.00  0.00    -0.000 C 
ATOM     25  C   UNL     1      31.860  -7.071 -24.340  0.00  0.00    -0.000 C 
BRANCH  23  26
ATOM     26  C   UNL     1      33.905  -5.909 -25.064  0.00  0.00    -0.000 C 
ATOM     27  C   UNL     1      35.226  -6.074 -25.481  0.00  0.00    -0.000 C 
ATOM     28  C   UNL     1      33.216  -4.738 -25.375  0.00  0.00    -0.000 C 
ATOM     29  C   UNL     1      35.858  -5.067 -26.211  0.00  0.00    +0.000 C 
ATOM     30  C   UNL     1      33.847  -3.730 -26.104  0.00  0.00    +0.000 C 
ATOM     31  C   UNL     1      35.168  -3.894 -26.522  0.00  0.00    +0.000 C 
ENDBRANCH  23  26
ENDBRANCH  19  20
ENDBRANCH   2  19
TORSDOF 5
ENDMDL
