MODEL 1
REMARK VINA RESULT:     -11.8      0.000      0.000
REMARK  Name = 9909438
REMARK  10 active torsions:
REMARK  status: ('A' for Active; 'I' for Inactive)
REMARK    1  A    between atoms: C_1  and  C_2
REMARK    2  A    between atoms: C_1  and  C_18
REMARK    3  A    between atoms: C_2  and  C_7
REMARK    4  A    between atoms: N_4  and  C_10
REMARK    5  A    between atoms: C_10  and  C_11
REMARK    6  A    between atoms: C_18  and  C_19
REMARK    7  A    between atoms: C_22  and  O_25
REMARK    8  A    between atoms: O_25  and  C_26
REMARK    9  A    between atoms: C_26  and  C_30
REMARK   10  A    between atoms: C_30  and  O_31
REMARK                            x       y       z     vdW  Elec       q    Type
REMARK                         _______ _______ _______ _____ _____    ______ ____
ROOT
ATOM      1  C   UNL     1      34.306 -22.521 -18.929  0.00  0.00    +0.014 C 
ENDROOT
BRANCH   1   2
ATOM      2  C   UNL     1      33.645 -21.293 -19.550  0.00  0.00    +0.078 C 
BRANCH   2   7
ATOM      3  O   UNL     1      37.567 -18.985 -20.806  0.00  0.00    -0.191 OA
ATOM      4  N   UNL     1      35.524 -19.293 -21.874  0.00  0.00    -0.151 N 
ATOM      5  N   UNL     1      34.381 -19.944 -21.525  0.00  0.00    -0.229 N 
ATOM      6  N   UNL     1      35.840 -20.209 -19.838  0.00  0.00    -0.308 NA
ATOM      7  C   UNL     1      34.638 -20.468 -20.294  0.00  0.00    +0.187 C 
ATOM      8  C   UNL     1      36.432 -19.442 -20.842  0.00  0.00    +0.286 C 
ATOM      9  H   UNL     1      33.549 -20.020 -22.048  0.00  0.00    +0.173 HD
BRANCH   4  10
ATOM     10  C   UNL     1      35.625 -18.598 -23.127  0.00  0.00    +0.152 C 
BRANCH  10  11
ATOM     11  C   UNL     1      35.048 -17.215 -23.051  0.00  0.00    +0.000 C 
ATOM     12  C   UNL     1      34.471 -16.649 -24.181  0.00  0.00    -0.003 C 
ATOM     13  C   UNL     1      35.098 -16.514 -21.852  0.00  0.00    -0.003 C 
ATOM     14  C   UNL     1      33.980 -14.653 -22.911  0.00  0.00    -0.022 C 
ATOM     15  C   UNL     1      33.934 -15.362 -24.110  0.00  0.00    -0.005 C 
ATOM     16  C   UNL     1      34.561 -15.229 -21.782  0.00  0.00    -0.005 C 
ATOM     17  C   UNL     1      33.406 -13.278 -22.836  0.00  0.00    +0.031 C 
ENDBRANCH  10  11
ENDBRANCH   4  10
ENDBRANCH   2   7
ENDBRANCH   1   2
BRANCH   1  18
ATOM     18  C   UNL     1      33.821 -22.786 -17.500  0.00  0.00    +0.027 C 
BRANCH  18  19
ATOM     19  C   UNL     1      34.968 -23.097 -16.573  0.00  0.00    -0.022 C 
ATOM     20  C   UNL     1      34.742 -23.877 -15.449  0.00  0.00    -0.001 C 
ATOM     21  C   UNL     1      36.230 -22.600 -16.860  0.00  0.00    -0.001 C 
ATOM     22  C   UNL     1      37.078 -23.673 -14.868  0.00  0.00    +0.139 C 
ATOM     23  C   UNL     1      35.803 -24.167 -14.591  0.00  0.00    +0.037 C 
ATOM     24  C   UNL     1      37.292 -22.889 -16.002  0.00  0.00    +0.037 C 
BRANCH  22  25
ATOM     25  O   UNL     1      38.114 -23.953 -14.031  0.00  0.00    -0.472 OA
BRANCH  25  26
ATOM     26  C   UNL     1      38.529 -25.316 -13.946  0.00  0.00    +0.221 C 
ATOM     27  C   UNL     1      38.481 -25.733 -12.479  0.00  0.00    +0.055 C 
ATOM     28  C   UNL     1      37.594 -26.150 -14.816  0.00  0.00    +0.055 C 
BRANCH  26  30
ATOM     29  O   UNL     1      40.912 -24.817 -13.930  0.00  0.00    -0.246 OA
ATOM     30  C   UNL     1      39.954 -25.345 -14.482  0.00  0.00    +0.350 C 
BRANCH  30  31
ATOM     31  O   UNL     1      40.075 -26.022 -15.653  0.00  0.00    -0.478 OA
ATOM     32  H   UNL     1      40.394 -26.903 -15.653  0.00  0.00    +0.295 HD
ENDBRANCH  30  31
ENDBRANCH  26  30
ENDBRANCH  25  26
ENDBRANCH  22  25
ENDBRANCH  18  19
ENDBRANCH   1  18
TORSDOF 10
ENDMDL
MODEL 2
REMARK VINA RESULT:     -11.6      1.115      1.822
REMARK  Name = 9909438
REMARK  10 active torsions:
REMARK  status: ('A' for Active; 'I' for Inactive)
REMARK    1  A    between atoms: C_1  and  C_2
REMARK    2  A    between atoms: C_1  and  C_18
REMARK    3  A    between atoms: C_2  and  C_7
REMARK    4  A    between atoms: N_4  and  C_10
REMARK    5  A    between atoms: C_10  and  C_11
REMARK    6  A    between atoms: C_18  and  C_19
REMARK    7  A    between atoms: C_22  and  O_25
REMARK    8  A    between atoms: O_25  and  C_26
REMARK    9  A    between atoms: C_26  and  C_30
REMARK   10  A    between atoms: C_30  and  O_31
REMARK                            x       y       z     vdW  Elec       q    Type
REMARK                         _______ _______ _______ _____ _____    ______ ____
ROOT
ATOM      1  C   UNL     1      34.334 -22.586 -18.823  0.00  0.00    +0.014 C 
ENDROOT
BRANCH   1   2
ATOM      2  C   UNL     1      33.664 -21.430 -19.561  0.00  0.00    +0.078 C 
BRANCH   2   7
ATOM      3  O   UNL     1      37.630 -19.087 -20.597  0.00  0.00    -0.191 OA
ATOM      4  N   UNL     1      35.589 -19.273 -21.699  0.00  0.00    -0.151 N 
ATOM      5  N   UNL     1      34.434 -19.932 -21.412  0.00  0.00    -0.229 N 
ATOM      6  N   UNL     1      35.878 -20.360 -19.744  0.00  0.00    -0.308 NA
ATOM      7  C   UNL     1      34.674 -20.561 -20.228  0.00  0.00    +0.187 C 
ATOM      8  C   UNL     1      36.488 -19.522 -20.677  0.00  0.00    +0.286 C 
ATOM      9  H   UNL     1      33.606 -19.952 -21.944  0.00  0.00    +0.173 HD
BRANCH   4  10
ATOM     10  C   UNL     1      35.711 -18.477 -22.888  0.00  0.00    +0.152 C 
BRANCH  10  11
ATOM     11  C   UNL     1      35.104 -17.115 -22.718  0.00  0.00    +0.000 C 
ATOM     12  C   UNL     1      35.051 -16.540 -21.454  0.00  0.00    -0.003 C 
ATOM     13  C   UNL     1      34.600 -16.443 -23.825  0.00  0.00    -0.003 C 
ATOM     14  C   UNL     1      33.980 -14.593 -22.401  0.00  0.00    -0.022 C 
ATOM     15  C   UNL     1      34.487 -15.273 -21.295  0.00  0.00    -0.005 C 
ATOM     16  C   UNL     1      34.037 -15.177 -23.666  0.00  0.00    -0.005 C 
ATOM     17  C   UNL     1      33.377 -13.239 -22.231  0.00  0.00    +0.031 C 
ENDBRANCH  10  11
ENDBRANCH   4  10
ENDBRANCH   2   7
ENDBRANCH   1   2
BRANCH   1  18
ATOM     18  C   UNL     1      33.677 -22.875 -17.469  0.00  0.00    +0.027 C 
BRANCH  18  19
ATOM     19  C   UNL     1      34.705 -23.131 -16.396  0.00  0.00    -0.022 C 
ATOM     20  C   UNL     1      34.310 -23.711 -15.200  0.00  0.00    -0.001 C 
ATOM     21  C   UNL     1      36.027 -22.783 -16.623  0.00  0.00    -0.001 C 
ATOM     22  C   UNL     1      36.595 -23.604 -14.423  0.00  0.00    +0.139 C 
ATOM     23  C   UNL     1      35.260 -23.950 -14.207  0.00  0.00    +0.037 C 
ATOM     24  C   UNL     1      36.979 -23.020 -15.630  0.00  0.00    +0.037 C 
BRANCH  22  25
ATOM     25  O   UNL     1      37.523 -23.835 -13.455  0.00  0.00    -0.472 OA
BRANCH  25  26
ATOM     26  C   UNL     1      37.900 -25.192 -13.227  0.00  0.00    +0.221 C 
ATOM     27  C   UNL     1      37.149 -26.065 -14.227  0.00  0.00    +0.055 C 
ATOM     28  C   UNL     1      39.414 -25.295 -13.390  0.00  0.00    +0.055 C 
BRANCH  26  30
ATOM     29  O   UNL     1      37.695 -24.770 -10.838  0.00  0.00    -0.246 OA
ATOM     30  C   UNL     1      37.477 -25.500 -11.797  0.00  0.00    +0.350 C 
BRANCH  30  31
ATOM     31  O   UNL     1      36.822 -26.684 -11.673  0.00  0.00    -0.478 OA
ATOM     32  H   UNL     1      35.910 -26.694 -11.461  0.00  0.00    +0.295 HD
ENDBRANCH  30  31
ENDBRANCH  26  30
ENDBRANCH  25  26
ENDBRANCH  22  25
ENDBRANCH  18  19
ENDBRANCH   1  18
TORSDOF 10
ENDMDL
MODEL 3
REMARK VINA RESULT:     -11.5      5.607     13.066
REMARK  Name = 9909438
REMARK  10 active torsions:
REMARK  status: ('A' for Active; 'I' for Inactive)
REMARK    1  A    between atoms: C_1  and  C_2
REMARK    2  A    between atoms: C_1  and  C_18
REMARK    3  A    between atoms: C_2  and  C_7
REMARK    4  A    between atoms: N_4  and  C_10
REMARK    5  A    between atoms: C_10  and  C_11
REMARK    6  A    between atoms: C_18  and  C_19
REMARK    7  A    between atoms: C_22  and  O_25
REMARK    8  A    between atoms: O_25  and  C_26
REMARK    9  A    between atoms: C_26  and  C_30
REMARK   10  A    between atoms: C_30  and  O_31
REMARK                            x       y       z     vdW  Elec       q    Type
REMARK                         _______ _______ _______ _____ _____    ______ ____
ROOT
ATOM      1  C   UNL     1      33.318 -14.092 -21.187  0.00  0.00    +0.014 C 
ENDROOT
BRANCH   1   2
ATOM      2  C   UNL     1      34.340 -14.937 -20.430  0.00  0.00    +0.078 C 
BRANCH   2   7
ATOM      3  O   UNL     1      35.102 -17.965 -23.972  0.00  0.00    -0.191 OA
ATOM      4  N   UNL     1      35.567 -18.072 -21.694  0.00  0.00    -0.151 N 
ATOM      5  N   UNL     1      35.346 -17.217 -20.659  0.00  0.00    -0.229 N 
ATOM      6  N   UNL     1      34.554 -16.232 -22.517  0.00  0.00    -0.308 NA
ATOM      7  C   UNL     1      34.735 -16.137 -21.221  0.00  0.00    +0.187 C 
ATOM      8  C   UNL     1      35.079 -17.482 -22.847  0.00  0.00    +0.286 C 
ATOM      9  H   UNL     1      35.578 -17.349 -19.711  0.00  0.00    +0.173 HD
BRANCH   4  10
ATOM     10  C   UNL     1      36.197 -19.345 -21.481  0.00  0.00    +0.152 C 
BRANCH  10  11
ATOM     11  C   UNL     1      35.377 -20.236 -20.595  0.00  0.00    +0.000 C 
ATOM     12  C   UNL     1      36.013 -21.111 -19.723  0.00  0.00    -0.003 C 
ATOM     13  C   UNL     1      33.989 -20.178 -20.656  0.00  0.00    -0.003 C 
ATOM     14  C   UNL     1      33.858 -21.888 -18.954  0.00  0.00    -0.022 C 
ATOM     15  C   UNL     1      35.250 -21.940 -18.899  0.00  0.00    -0.005 C 
ATOM     16  C   UNL     1      33.227 -21.006 -19.833  0.00  0.00    -0.005 C 
ATOM     17  C   UNL     1      33.043 -22.774 -18.074  0.00  0.00    +0.031 C 
ENDBRANCH  10  11
ENDBRANCH   4  10
ENDBRANCH   2   7
ENDBRANCH   1   2
BRANCH   1  18
ATOM     18  C   UNL     1      32.256 -13.490 -20.260  0.00  0.00    +0.027 C 
BRANCH  18  19
ATOM     19  C   UNL     1      32.002 -12.038 -20.576  0.00  0.00    -0.022 C 
ATOM     20  C   UNL     1      31.998 -11.620 -21.899  0.00  0.00    -0.001 C 
ATOM     21  C   UNL     1      31.775 -11.146 -19.540  0.00  0.00    -0.001 C 
ATOM     22  C   UNL     1      31.532  -9.368 -21.159  0.00  0.00    +0.139 C 
ATOM     23  C   UNL     1      31.762 -10.278 -22.192  0.00  0.00    +0.037 C 
ATOM     24  C   UNL     1      31.539  -9.802 -19.833  0.00  0.00    +0.037 C 
BRANCH  22  25
ATOM     25  O   UNL     1      31.303  -8.057 -21.444  0.00  0.00    -0.472 OA
BRANCH  25  26
ATOM     26  C   UNL     1      32.387  -7.151 -21.247  0.00  0.00    +0.221 C 
ATOM     27  C   UNL     1      32.908  -7.340 -19.826  0.00  0.00    +0.055 C 
ATOM     28  C   UNL     1      33.451  -7.452 -22.299  0.00  0.00    +0.055 C 
BRANCH  26  30
ATOM     29  O   UNL     1      32.427  -4.718 -21.305  0.00  0.00    -0.246 OA
ATOM     30  C   UNL     1      31.799  -5.760 -21.440  0.00  0.00    +0.350 C 
BRANCH  30  31
ATOM     31  O   UNL     1      30.484  -5.774 -21.783  0.00  0.00    -0.478 OA
ATOM     32  H   UNL     1      29.950  -6.510 -21.560  0.00  0.00    +0.295 HD
ENDBRANCH  30  31
ENDBRANCH  26  30
ENDBRANCH  25  26
ENDBRANCH  22  25
ENDBRANCH  18  19
ENDBRANCH   1  18
TORSDOF 10
ENDMDL
MODEL 4
REMARK VINA RESULT:     -11.5      5.557     13.028
REMARK  Name = 9909438
REMARK  10 active torsions:
REMARK  status: ('A' for Active; 'I' for Inactive)
REMARK    1  A    between atoms: C_1  and  C_2
REMARK    2  A    between atoms: C_1  and  C_18
REMARK    3  A    between atoms: C_2  and  C_7
REMARK    4  A    between atoms: N_4  and  C_10
REMARK    5  A    between atoms: C_10  and  C_11
REMARK    6  A    between atoms: C_18  and  C_19
REMARK    7  A    between atoms: C_22  and  O_25
REMARK    8  A    between atoms: O_25  and  C_26
REMARK    9  A    between atoms: C_26  and  C_30
REMARK   10  A    between atoms: C_30  and  O_31
REMARK                            x       y       z     vdW  Elec       q    Type
REMARK                         _______ _______ _______ _____ _____    ______ ____
ROOT
ATOM      1  C   UNL     1      33.233 -14.153 -21.208  0.00  0.00    +0.014 C 
ENDROOT
BRANCH   1   2
ATOM      2  C   UNL     1      34.334 -14.928 -20.489  0.00  0.00    +0.078 C 
BRANCH   2   7
ATOM      3  O   UNL     1      35.049 -18.041 -23.967  0.00  0.00    -0.191 OA
ATOM      4  N   UNL     1      35.558 -18.086 -21.697  0.00  0.00    -0.151 N 
ATOM      5  N   UNL     1      35.351 -17.207 -20.680  0.00  0.00    -0.229 N 
ATOM      6  N   UNL     1      34.517 -16.275 -22.547  0.00  0.00    -0.308 NA
ATOM      7  C   UNL     1      34.722 -16.145 -21.257  0.00  0.00    +0.187 C 
ATOM      8  C   UNL     1      35.044 -17.529 -22.855  0.00  0.00    +0.286 C 
ATOM      9  H   UNL     1      35.601 -17.313 -19.733  0.00  0.00    +0.173 HD
BRANCH   4  10
ATOM     10  C   UNL     1      36.200 -19.350 -21.463  0.00  0.00    +0.152 C 
BRANCH  10  11
ATOM     11  C   UNL     1      35.376 -20.245 -20.584  0.00  0.00    +0.000 C 
ATOM     12  C   UNL     1      33.989 -20.181 -20.646  0.00  0.00    -0.003 C 
ATOM     13  C   UNL     1      36.008 -21.127 -19.715  0.00  0.00    -0.003 C 
ATOM     14  C   UNL     1      33.849 -21.901 -18.956  0.00  0.00    -0.022 C 
ATOM     15  C   UNL     1      33.223 -21.013 -19.829  0.00  0.00    -0.005 C 
ATOM     16  C   UNL     1      35.241 -21.959 -18.899  0.00  0.00    -0.005 C 
ATOM     17  C   UNL     1      33.029 -22.790 -18.083  0.00  0.00    +0.031 C 
ENDBRANCH  10  11
ENDBRANCH   4  10
ENDBRANCH   2   7
ENDBRANCH   1   2
BRANCH   1  18
ATOM     18  C   UNL     1      32.236 -13.515 -20.235  0.00  0.00    +0.027 C 
BRANCH  18  19
ATOM     19  C   UNL     1      31.993 -12.064 -20.561  0.00  0.00    -0.022 C 
ATOM     20  C   UNL     1      31.848 -11.149 -19.528  0.00  0.00    -0.001 C 
ATOM     21  C   UNL     1      31.918 -11.666 -21.887  0.00  0.00    -0.001 C 
ATOM     22  C   UNL     1      31.548  -9.392 -21.159  0.00  0.00    +0.139 C 
ATOM     23  C   UNL     1      31.625  -9.806 -19.828  0.00  0.00    +0.037 C 
ATOM     24  C   UNL     1      31.694 -10.322 -22.188  0.00  0.00    +0.037 C 
BRANCH  22  25
ATOM     25  O   UNL     1      31.328  -8.082 -21.453  0.00  0.00    -0.472 OA
BRANCH  25  26
ATOM     26  C   UNL     1      32.457  -7.210 -21.417  0.00  0.00    +0.221 C 
ATOM     27  C   UNL     1      32.908  -7.081 -19.966  0.00  0.00    +0.055 C 
ATOM     28  C   UNL     1      33.542  -7.805 -22.310  0.00  0.00    +0.055 C 
BRANCH  26  30
ATOM     29  O   UNL     1      32.668  -5.064 -22.547  0.00  0.00    -0.246 OA
ATOM     30  C   UNL     1      31.963  -5.877 -21.963  0.00  0.00    +0.350 C 
BRANCH  30  31
ATOM     31  O   UNL     1      30.640  -5.662 -21.740  0.00  0.00    -0.478 OA
ATOM     32  H   UNL     1      30.006  -6.275 -22.056  0.00  0.00    +0.295 HD
ENDBRANCH  30  31
ENDBRANCH  26  30
ENDBRANCH  25  26
ENDBRANCH  22  25
ENDBRANCH  18  19
ENDBRANCH   1  18
TORSDOF 10
ENDMDL
MODEL 5
REMARK VINA RESULT:     -11.3      2.506      4.407
REMARK  Name = 9909438
REMARK  10 active torsions:
REMARK  status: ('A' for Active; 'I' for Inactive)
REMARK    1  A    between atoms: C_1  and  C_2
REMARK    2  A    between atoms: C_1  and  C_18
REMARK    3  A    between atoms: C_2  and  C_7
REMARK    4  A    between atoms: N_4  and  C_10
REMARK    5  A    between atoms: C_10  and  C_11
REMARK    6  A    between atoms: C_18  and  C_19
REMARK    7  A    between atoms: C_22  and  O_25
REMARK    8  A    between atoms: O_25  and  C_26
REMARK    9  A    between atoms: C_26  and  C_30
REMARK   10  A    between atoms: C_30  and  O_31
REMARK                            x       y       z     vdW  Elec       q    Type
REMARK                         _______ _______ _______ _____ _____    ______ ____
ROOT
ATOM      1  C   UNL     1      35.038 -19.720 -21.838  0.00  0.00    +0.014 C 
ENDROOT
BRANCH   1   2
ATOM      2  C   UNL     1      34.652 -19.602 -23.310  0.00  0.00    +0.078 C 
BRANCH   2   7
ATOM      3  O   UNL     1      33.480 -15.641 -25.598  0.00  0.00    -0.191 OA
ATOM      4  N   UNL     1      34.742 -16.026 -23.681  0.00  0.00    -0.151 N 
ATOM      5  N   UNL     1      35.099 -17.158 -23.014  0.00  0.00    -0.229 N 
ATOM      6  N   UNL     1      33.844 -17.786 -24.769  0.00  0.00    -0.308 NA
ATOM      7  C   UNL     1      34.530 -18.175 -23.720  0.00  0.00    +0.187 C 
ATOM      8  C   UNL     1      33.972 -16.397 -24.769  0.00  0.00    +0.286 C 
ATOM      9  H   UNL     1      35.647 -17.227 -22.199  0.00  0.00    +0.173 HD
BRANCH   4  10
ATOM     10  C   UNL     1      35.173 -14.734 -23.227  0.00  0.00    +0.152 C 
BRANCH  10  11
ATOM     11  C   UNL     1      34.043 -13.935 -22.646  0.00  0.00    +0.000 C 
ATOM     12  C   UNL     1      33.463 -14.337 -21.449  0.00  0.00    -0.003 C 
ATOM     13  C   UNL     1      33.588 -12.803 -23.311  0.00  0.00    -0.003 C 
ATOM     14  C   UNL     1      31.950 -12.458 -21.569  0.00  0.00    -0.022 C 
ATOM     15  C   UNL     1      32.412 -13.594 -20.909  0.00  0.00    -0.005 C 
ATOM     16  C   UNL     1      32.538 -12.061 -22.771  0.00  0.00    -0.005 C 
ATOM     17  C   UNL     1      30.827 -11.664 -20.991  0.00  0.00    +0.031 C 
ENDBRANCH  10  11
ENDBRANCH   4  10
ENDBRANCH   2   7
ENDBRANCH   1   2
BRANCH   1  18
ATOM     18  C   UNL     1      33.817 -19.862 -20.922  0.00  0.00    +0.027 C 
BRANCH  18  19
ATOM     19  C   UNL     1      34.030 -20.923 -19.873  0.00  0.00    -0.022 C 
ATOM     20  C   UNL     1      32.931 -21.484 -19.240  0.00  0.00    -0.001 C 
ATOM     21  C   UNL     1      35.320 -21.322 -19.560  0.00  0.00    -0.001 C 
ATOM     22  C   UNL     1      34.420 -22.878 -17.946  0.00  0.00    +0.139 C 
ATOM     23  C   UNL     1      33.126 -22.468 -18.270  0.00  0.00    +0.037 C 
ATOM     24  C   UNL     1      35.516 -22.306 -18.589  0.00  0.00    +0.037 C 
BRANCH  22  25
ATOM     25  O   UNL     1      34.612 -23.837 -16.998  0.00  0.00    -0.472 OA
BRANCH  25  26
ATOM     26  C   UNL     1      35.098 -23.405 -15.728  0.00  0.00    +0.221 C 
ATOM     27  C   UNL     1      36.083 -22.264 -15.962  0.00  0.00    +0.055 C 
ATOM     28  C   UNL     1      33.901 -22.974 -14.886  0.00  0.00    +0.055 C 
BRANCH  26  30
ATOM     29  O   UNL     1      35.208 -25.554 -14.588  0.00  0.00    -0.246 OA
ATOM     30  C   UNL     1      35.791 -24.618 -15.121  0.00  0.00    +0.350 C 
BRANCH  30  31
ATOM     31  O   UNL     1      37.145 -24.571 -15.224  0.00  0.00    -0.478 OA
ATOM     32  H   UNL     1      37.623 -23.887 -14.801  0.00  0.00    +0.295 HD
ENDBRANCH  30  31
ENDBRANCH  26  30
ENDBRANCH  25  26
ENDBRANCH  22  25
ENDBRANCH  18  19
ENDBRANCH   1  18
TORSDOF 10
ENDMDL
MODEL 6
REMARK VINA RESULT:     -11.1      6.326     12.840
REMARK  Name = 9909438
REMARK  10 active torsions:
REMARK  status: ('A' for Active; 'I' for Inactive)
REMARK    1  A    between atoms: C_1  and  C_2
REMARK    2  A    between atoms: C_1  and  C_18
REMARK    3  A    between atoms: C_2  and  C_7
REMARK    4  A    between atoms: N_4  and  C_10
REMARK    5  A    between atoms: C_10  and  C_11
REMARK    6  A    between atoms: C_18  and  C_19
REMARK    7  A    between atoms: C_22  and  O_25
REMARK    8  A    between atoms: O_25  and  C_26
REMARK    9  A    between atoms: C_26  and  C_30
REMARK   10  A    between atoms: C_30  and  O_31
REMARK                            x       y       z     vdW  Elec       q    Type
REMARK                         _______ _______ _______ _____ _____    ______ ____
ROOT
ATOM      1  C   UNL     1      33.635 -14.183 -20.269  0.00  0.00    +0.014 C 
ENDROOT
BRANCH   1   2
ATOM      2  C   UNL     1      34.576 -13.881 -21.433  0.00  0.00    +0.078 C 
BRANCH   2   7
ATOM      3  O   UNL     1      33.490 -15.946 -25.538  0.00  0.00    -0.191 OA
ATOM      4  N   UNL     1      34.559 -16.730 -23.626  0.00  0.00    -0.151 N 
ATOM      5  N   UNL     1      34.870 -16.156 -22.432  0.00  0.00    -0.229 N 
ATOM      6  N   UNL     1      33.841 -14.593 -23.676  0.00  0.00    -0.308 NA
ATOM      7  C   UNL     1      34.411 -14.877 -22.528  0.00  0.00    +0.187 C 
ATOM      8  C   UNL     1      33.918 -15.781 -24.403  0.00  0.00    +0.286 C 
ATOM      9  H   UNL     1      35.328 -16.572 -21.666  0.00  0.00    +0.173 HD
BRANCH   4  10
ATOM     10  C   UNL     1      34.886 -18.103 -23.893  0.00  0.00    +0.152 C 
BRANCH  10  11
ATOM     11  C   UNL     1      35.278 -18.841 -22.646  0.00  0.00    +0.000 C 
ATOM     12  C   UNL     1      36.553 -18.672 -22.120  0.00  0.00    -0.003 C 
ATOM     13  C   UNL     1      34.362 -19.686 -22.030  0.00  0.00    -0.003 C 
ATOM     14  C   UNL     1      36.005 -20.207 -20.337  0.00  0.00    -0.022 C 
ATOM     15  C   UNL     1      36.918 -19.358 -20.961  0.00  0.00    -0.005 C 
ATOM     16  C   UNL     1      34.727 -20.371 -20.871  0.00  0.00    -0.005 C 
ATOM     17  C   UNL     1      36.395 -20.940 -19.098  0.00  0.00    +0.031 C 
ENDBRANCH  10  11
ENDBRANCH   4  10
ENDBRANCH   2   7
ENDBRANCH   1   2
BRANCH   1  18
ATOM     18  C   UNL     1      32.171 -13.876 -20.606  0.00  0.00    +0.027 C 
BRANCH  18  19
ATOM     19  C   UNL     1      31.939 -12.397 -20.781  0.00  0.00    -0.022 C 
ATOM     20  C   UNL     1      31.936 -11.573 -19.666  0.00  0.00    -0.001 C 
ATOM     21  C   UNL     1      31.735 -11.886 -22.053  0.00  0.00    -0.001 C 
ATOM     22  C   UNL     1      31.516  -9.676 -21.102  0.00  0.00    +0.139 C 
ATOM     23  C   UNL     1      31.723 -10.204 -19.827  0.00  0.00    +0.037 C 
ATOM     24  C   UNL     1      31.521 -10.517 -22.215  0.00  0.00    +0.037 C 
BRANCH  22  25
ATOM     25  O   UNL     1      31.306  -8.340 -21.260  0.00  0.00    -0.472 OA
BRANCH  25  26
ATOM     26  C   UNL     1      32.461  -7.513 -21.389  0.00  0.00    +0.221 C 
ATOM     27  C   UNL     1      33.047  -7.299 -19.997  0.00  0.00    +0.055 C 
ATOM     28  C   UNL     1      33.440  -8.211 -22.329  0.00  0.00    +0.055 C 
BRANCH  26  30
ATOM     29  O   UNL     1      32.681  -5.367 -22.518  0.00  0.00    -0.246 OA
ATOM     30  C   UNL     1      31.962  -6.203 -21.985  0.00  0.00    +0.350 C 
BRANCH  30  31
ATOM     31  O   UNL     1      30.619  -6.038 -21.874  0.00  0.00    -0.478 OA
ATOM     32  H   UNL     1      30.040  -6.730 -22.125  0.00  0.00    +0.295 HD
ENDBRANCH  30  31
ENDBRANCH  26  30
ENDBRANCH  25  26
ENDBRANCH  22  25
ENDBRANCH  18  19
ENDBRANCH   1  18
TORSDOF 10
ENDMDL
MODEL 7
REMARK VINA RESULT:     -11.1      2.379      3.441
REMARK  Name = 9909438
REMARK  10 active torsions:
REMARK  status: ('A' for Active; 'I' for Inactive)
REMARK    1  A    between atoms: C_1  and  C_2
REMARK    2  A    between atoms: C_1  and  C_18
REMARK    3  A    between atoms: C_2  and  C_7
REMARK    4  A    between atoms: N_4  and  C_10
REMARK    5  A    between atoms: C_10  and  C_11
REMARK    6  A    between atoms: C_18  and  C_19
REMARK    7  A    between atoms: C_22  and  O_25
REMARK    8  A    between atoms: O_25  and  C_26
REMARK    9  A    between atoms: C_26  and  C_30
REMARK   10  A    between atoms: C_30  and  O_31
REMARK                            x       y       z     vdW  Elec       q    Type
REMARK                         _______ _______ _______ _____ _____    ______ ____
ROOT
ATOM      1  C   UNL     1      35.041 -20.607 -20.234  0.00  0.00    +0.014 C 
ENDROOT
BRANCH   1   2
ATOM      2  C   UNL     1      36.054 -19.613 -20.796  0.00  0.00    +0.078 C 
BRANCH   2   7
ATOM      3  O   UNL     1      33.740 -18.503 -24.760  0.00  0.00    -0.191 OA
ATOM      4  N   UNL     1      34.985 -17.226 -23.265  0.00  0.00    -0.151 N 
ATOM      5  N   UNL     1      35.666 -17.529 -22.126  0.00  0.00    -0.229 N 
ATOM      6  N   UNL     1      34.753 -19.437 -22.884  0.00  0.00    -0.308 NA
ATOM      7  C   UNL     1      35.488 -18.869 -21.957  0.00  0.00    +0.187 C 
ATOM      8  C   UNL     1      34.420 -18.394 -23.748  0.00  0.00    +0.286 C 
ATOM      9  H   UNL     1      36.176 -16.914 -21.550  0.00  0.00    +0.173 HD
BRANCH   4  10
ATOM     10  C   UNL     1      34.953 -15.883 -23.773  0.00  0.00    +0.152 C 
BRANCH  10  11
ATOM     11  C   UNL     1      34.164 -14.965 -22.886  0.00  0.00    +0.000 C 
ATOM     12  C   UNL     1      34.352 -15.010 -21.510  0.00  0.00    -0.003 C 
ATOM     13  C   UNL     1      33.252 -14.081 -23.450  0.00  0.00    -0.003 C 
ATOM     14  C   UNL     1      32.702 -13.266 -21.243  0.00  0.00    -0.022 C 
ATOM     15  C   UNL     1      33.618 -14.155 -20.685  0.00  0.00    -0.005 C 
ATOM     16  C   UNL     1      32.519 -13.227 -22.625  0.00  0.00    -0.005 C 
ATOM     17  C   UNL     1      31.918 -12.353 -20.361  0.00  0.00    +0.031 C 
ENDBRANCH  10  11
ENDBRANCH   4  10
ENDBRANCH   2   7
ENDBRANCH   1   2
BRANCH   1  18
ATOM     18  C   UNL     1      35.678 -21.954 -19.880  0.00  0.00    +0.027 C 
BRANCH  18  19
ATOM     19  C   UNL     1      35.495 -22.289 -18.421  0.00  0.00    -0.022 C 
ATOM     20  C   UNL     1      34.294 -22.835 -17.994  0.00  0.00    -0.001 C 
ATOM     21  C   UNL     1      36.531 -22.047 -17.532  0.00  0.00    -0.001 C 
ATOM     22  C   UNL     1      35.158 -22.908 -15.739  0.00  0.00    +0.139 C 
ATOM     23  C   UNL     1      34.124 -23.146 -16.645  0.00  0.00    +0.037 C 
ATOM     24  C   UNL     1      36.361 -22.357 -16.182  0.00  0.00    +0.037 C 
BRANCH  22  25
ATOM     25  O   UNL     1      34.993 -23.209 -14.422  0.00  0.00    -0.472 OA
BRANCH  25  26
ATOM     26  C   UNL     1      35.737 -24.314 -13.911  0.00  0.00    +0.221 C 
ATOM     27  C   UNL     1      35.536 -25.496 -14.854  0.00  0.00    +0.055 C 
ATOM     28  C   UNL     1      37.200 -23.893 -13.814  0.00  0.00    +0.055 C 
BRANCH  26  30
ATOM     29  O   UNL     1      35.626 -25.396 -11.733  0.00  0.00    -0.246 OA
ATOM     30  C   UNL     1      35.152 -24.600 -12.534  0.00  0.00    +0.350 C 
BRANCH  30  31
ATOM     31  O   UNL     1      34.033 -23.879 -12.264  0.00  0.00    -0.478 OA
ATOM     32  H   UNL     1      33.369 -23.783 -12.917  0.00  0.00    +0.295 HD
ENDBRANCH  30  31
ENDBRANCH  26  30
ENDBRANCH  25  26
ENDBRANCH  22  25
ENDBRANCH  18  19
ENDBRANCH   1  18
TORSDOF 10
ENDMDL
MODEL 8
REMARK VINA RESULT:     -11.0      3.847     10.022
REMARK  Name = 9909438
REMARK  10 active torsions:
REMARK  status: ('A' for Active; 'I' for Inactive)
REMARK    1  A    between atoms: C_1  and  C_2
REMARK    2  A    between atoms: C_1  and  C_18
REMARK    3  A    between atoms: C_2  and  C_7
REMARK    4  A    between atoms: N_4  and  C_10
REMARK    5  A    between atoms: C_10  and  C_11
REMARK    6  A    between atoms: C_18  and  C_19
REMARK    7  A    between atoms: C_22  and  O_25
REMARK    8  A    between atoms: O_25  and  C_26
REMARK    9  A    between atoms: C_26  and  C_30
REMARK   10  A    between atoms: C_30  and  O_31
REMARK                            x       y       z     vdW  Elec       q    Type
REMARK                         _______ _______ _______ _____ _____    ______ ____
ROOT
ATOM      1  C   UNL     1      35.548 -22.401 -16.590  0.00  0.00    +0.014 C 
ENDROOT
BRANCH   1   2
ATOM      2  C   UNL     1      36.172 -23.564 -15.823  0.00  0.00    +0.078 C 
BRANCH   2   7
ATOM      3  O   UNL     1      34.535 -24.019 -11.418  0.00  0.00    -0.191 OA
ATOM      4  N   UNL     1      33.714 -24.735 -13.474  0.00  0.00    -0.151 N 
ATOM      5  N   UNL     1      34.176 -24.623 -14.750  0.00  0.00    -0.229 N 
ATOM      6  N   UNL     1      35.660 -23.596 -13.412  0.00  0.00    -0.308 NA
ATOM      7  C   UNL     1      35.344 -23.933 -14.640  0.00  0.00    +0.187 C 
ATOM      8  C   UNL     1      34.621 -24.111 -12.636  0.00  0.00    +0.286 C 
ATOM      9  H   UNL     1      33.756 -24.966 -15.572  0.00  0.00    +0.173 HD
BRANCH   4  10
ATOM     10  C   UNL     1      32.486 -25.423 -13.190  0.00  0.00    +0.152 C 
BRANCH  10  11
ATOM     11  C   UNL     1      31.311 -24.780 -13.867  0.00  0.00    +0.000 C 
ATOM     12  C   UNL     1      30.293 -25.576 -14.379  0.00  0.00    -0.003 C 
ATOM     13  C   UNL     1      31.253 -23.396 -13.977  0.00  0.00    -0.003 C 
ATOM     14  C   UNL     1      29.135 -23.591 -15.122  0.00  0.00    -0.022 C 
ATOM     15  C   UNL     1      29.201 -24.978 -15.009  0.00  0.00    -0.005 C 
ATOM     16  C   UNL     1      30.161 -22.799 -14.606  0.00  0.00    -0.005 C 
ATOM     17  C   UNL     1      27.967 -22.952 -15.796  0.00  0.00    +0.031 C 
ENDBRANCH  10  11
ENDBRANCH   4  10
ENDBRANCH   2   7
ENDBRANCH   1   2
BRANCH   1  18
ATOM     18  C   UNL     1      34.586 -22.872 -17.686  0.00  0.00    +0.027 C 
BRANCH  18  19
ATOM     19  C   UNL     1      34.565 -21.920 -18.854  0.00  0.00    -0.022 C 
ATOM     20  C   UNL     1      35.760 -21.553 -19.455  0.00  0.00    -0.001 C 
ATOM     21  C   UNL     1      33.352 -21.427 -19.309  0.00  0.00    -0.001 C 
ATOM     22  C   UNL     1      34.528 -20.169 -21.005  0.00  0.00    +0.139 C 
ATOM     23  C   UNL     1      35.742 -20.673 -20.536  0.00  0.00    +0.037 C 
ATOM     24  C   UNL     1      33.333 -20.545 -20.391  0.00  0.00    +0.037 C 
BRANCH  22  25
ATOM     25  O   UNL     1      34.509 -19.309 -22.059  0.00  0.00    -0.472 OA
BRANCH  25  26
ATOM     26  C   UNL     1      35.398 -18.194 -22.003  0.00  0.00    +0.221 C 
ATOM     27  C   UNL     1      35.081 -17.400 -20.740  0.00  0.00    +0.055 C 
ATOM     28  C   UNL     1      36.827 -18.729 -22.007  0.00  0.00    +0.055 C 
BRANCH  26  30
ATOM     29  O   UNL     1      34.439 -17.773 -24.201  0.00  0.00    -0.246 OA
ATOM     30  C   UNL     1      35.111 -17.378 -23.256  0.00  0.00    +0.350 C 
BRANCH  30  31
ATOM     31  O   UNL     1      35.677 -16.143 -23.236  0.00  0.00    -0.478 OA
ATOM     32  H   UNL     1      36.300 -15.925 -22.571  0.00  0.00    +0.295 HD
ENDBRANCH  30  31
ENDBRANCH  26  30
ENDBRANCH  25  26
ENDBRANCH  22  25
ENDBRANCH  18  19
ENDBRANCH   1  18
TORSDOF 10
ENDMDL
MODEL 9
REMARK VINA RESULT:     -10.9      5.648     13.328
REMARK  Name = 9909438
REMARK  10 active torsions:
REMARK  status: ('A' for Active; 'I' for Inactive)
REMARK    1  A    between atoms: C_1  and  C_2
REMARK    2  A    between atoms: C_1  and  C_18
REMARK    3  A    between atoms: C_2  and  C_7
REMARK    4  A    between atoms: N_4  and  C_10
REMARK    5  A    between atoms: C_10  and  C_11
REMARK    6  A    between atoms: C_18  and  C_19
REMARK    7  A    between atoms: C_22  and  O_25
REMARK    8  A    between atoms: O_25  and  C_26
REMARK    9  A    between atoms: C_26  and  C_30
REMARK   10  A    between atoms: C_30  and  O_31
REMARK                            x       y       z     vdW  Elec       q    Type
REMARK                         _______ _______ _______ _____ _____    ______ ____
ROOT
ATOM      1  C   UNL     1      32.608 -13.920 -21.004  0.00  0.00    +0.014 C 
ENDROOT
BRANCH   1   2
ATOM      2  C   UNL     1      33.961 -14.464 -20.553  0.00  0.00    +0.078 C 
BRANCH   2   7
ATOM      3  O   UNL     1      34.907 -17.042 -24.394  0.00  0.00    -0.191 OA
ATOM      4  N   UNL     1      35.411 -17.345 -22.143  0.00  0.00    -0.151 N 
ATOM      5  N   UNL     1      35.138 -16.621 -21.023  0.00  0.00    -0.229 N 
ATOM      6  N   UNL     1      34.246 -15.516 -22.764  0.00  0.00    -0.308 NA
ATOM      7  C   UNL     1      34.437 -15.541 -21.466  0.00  0.00    +0.187 C 
ATOM      8  C   UNL     1      34.863 -16.680 -23.225  0.00  0.00    +0.286 C 
ATOM      9  H   UNL     1      35.392 -16.832 -20.095  0.00  0.00    +0.173 HD
BRANCH   4  10
ATOM     10  C   UNL     1      36.141 -18.579 -22.065  0.00  0.00    +0.152 C 
BRANCH  10  11
ATOM     11  C   UNL     1      35.467 -19.575 -21.166  0.00  0.00    +0.000 C 
ATOM     12  C   UNL     1      34.084 -19.700 -21.194  0.00  0.00    -0.003 C 
ATOM     13  C   UNL     1      36.234 -20.362 -20.314  0.00  0.00    -0.003 C 
ATOM     14  C   UNL     1      34.219 -21.418 -19.502  0.00  0.00    -0.022 C 
ATOM     15  C   UNL     1      33.457 -20.626 -20.359  0.00  0.00    -0.005 C 
ATOM     16  C   UNL     1      35.608 -21.287 -19.480  0.00  0.00    -0.005 C 
ATOM     17  C   UNL     1      33.549 -22.407 -18.609  0.00  0.00    +0.031 C 
ENDBRANCH  10  11
ENDBRANCH   4  10
ENDBRANCH   2   7
ENDBRANCH   1   2
BRANCH   1  18
ATOM     18  C   UNL     1      32.167 -12.698 -20.189  0.00  0.00    +0.027 C 
BRANCH  18  19
ATOM     19  C   UNL     1      32.075 -11.462 -21.047  0.00  0.00    -0.022 C 
ATOM     20  C   UNL     1      31.665 -10.267 -20.476  0.00  0.00    -0.001 C 
ATOM     21  C   UNL     1      32.403 -11.541 -22.391  0.00  0.00    -0.001 C 
ATOM     22  C   UNL     1      31.908  -9.187 -22.623  0.00  0.00    +0.139 C 
ATOM     23  C   UNL     1      31.581  -9.122 -21.268  0.00  0.00    +0.037 C 
ATOM     24  C   UNL     1      32.318 -10.396 -23.185  0.00  0.00    +0.037 C 
BRANCH  22  25
ATOM     25  O   UNL     1      31.824  -8.071 -23.398  0.00  0.00    -0.472 OA
BRANCH  25  26
ATOM     26  C   UNL     1      32.778  -7.038 -23.153  0.00  0.00    +0.221 C 
ATOM     27  C   UNL     1      33.999  -7.670 -22.492  0.00  0.00    +0.055 C 
ATOM     28  C   UNL     1      33.117  -6.383 -24.489  0.00  0.00    +0.055 C 
BRANCH  26  30
ATOM     29  O   UNL     1      32.559  -5.663 -21.156  0.00  0.00    -0.246 OA
ATOM     30  C   UNL     1      32.088  -6.056 -22.217  0.00  0.00    +0.350 C 
BRANCH  30  31
ATOM     31  O   UNL     1      30.876  -5.643 -22.668  0.00  0.00    -0.478 OA
ATOM     32  H   UNL     1      30.593  -4.764 -22.512  0.00  0.00    +0.295 HD
ENDBRANCH  30  31
ENDBRANCH  26  30
ENDBRANCH  25  26
ENDBRANCH  22  25
ENDBRANCH  18  19
ENDBRANCH   1  18
TORSDOF 10
ENDMDL
