MODEL 1
REMARK VINA RESULT:     -12.6      0.000      0.000
REMARK  Name = 3815
REMARK  0 active torsions:
REMARK  status: ('A' for Active; 'I' for Inactive)
REMARK                            x       y       z     vdW  Elec       q    Type
REMARK                         _______ _______ _______ _____ _____    ______ ____
ROOT
ATOM      1  O   UNL     1      37.472 -22.995 -15.983  0.00  0.00    -0.270 OA
ATOM      2  N   UNL     1      30.986 -23.429 -16.844  0.00  0.00    -0.352 N 
ATOM      3  N   UNL     1      32.726 -22.128 -18.590  0.00  0.00    -0.352 N 
ATOM      4  N   UNL     1      36.383 -24.177 -14.273  0.00  0.00    -0.297 N 
ATOM      5  C   UNL     1      34.257 -24.002 -15.088  0.00  0.00    +0.003 A 
ATOM      6  C   UNL     1      32.909 -23.987 -15.444  0.00  0.00    +0.016 A 
ATOM      7  C   UNL     1      34.576 -22.743 -17.111  0.00  0.00    +0.022 A 
ATOM      8  C   UNL     1      32.316 -23.382 -16.598  0.00  0.00    +0.072 A 
ATOM      9  C   UNL     1      35.116 -23.345 -15.975  0.00  0.00    +0.053 A 
ATOM     10  C   UNL     1      33.188 -22.730 -17.472  0.00  0.00    +0.073 A 
ATOM     11  C   UNL     1      35.026 -24.573 -13.944  0.00  0.00    +0.117 C 
ATOM     12  C   UNL     1      31.647 -24.498 -14.898  0.00  0.00    +0.017 A 
ATOM     13  C   UNL     1      35.019 -21.974 -18.285  0.00  0.00    +0.017 A 
ATOM     14  C   UNL     1      30.542 -24.152 -15.745  0.00  0.00    +0.057 A 
ATOM     15  C   UNL     1      33.906 -21.633 -19.126  0.00  0.00    +0.057 A 
ATOM     16  C   UNL     1      36.476 -23.453 -15.460  0.00  0.00    +0.246 C 
ATOM     17  C   UNL     1      31.370 -25.240 -13.725  0.00  0.00    +0.001 C 
ATOM     18  C   UNL     1      36.300 -21.536 -18.702  0.00  0.00    +0.001 C 
ATOM     19  C   UNL     1      29.230 -24.533 -15.430  0.00  0.00    +0.017 C 
ATOM     20  C   UNL     1      34.072 -20.898 -20.309  0.00  0.00    +0.017 C 
ATOM     21  C   UNL     1      30.057 -25.614 -13.422  0.00  0.00    +0.000 C 
ATOM     22  C   UNL     1      36.454 -20.803 -19.884  0.00  0.00    +0.000 C 
ATOM     23  C   UNL     1      29.006 -25.265 -14.262  0.00  0.00    +0.001 C 
ATOM     24  C   UNL     1      35.355 -20.490 -20.674  0.00  0.00    +0.001 C 
ATOM     25  H   UNL     1      30.472 -23.054 -17.596  0.00  0.00    +0.166 HD
ATOM     26  H   UNL     1      31.806 -22.059 -18.932  0.00  0.00    +0.166 HD
ATOM     27  H   UNL     1      37.162 -24.398 -13.713  0.00  0.00    +0.150 HD
ENDROOT
TORSDOF 0
ENDMDL
MODEL 2
REMARK VINA RESULT:     -12.5      0.971      5.951
REMARK  Name = 3815
REMARK  0 active torsions:
REMARK  status: ('A' for Active; 'I' for Inactive)
REMARK                            x       y       z     vdW  Elec       q    Type
REMARK                         _______ _______ _______ _____ _____    ______ ____
ROOT
ATOM      1  O   UNL     1      35.223 -24.803 -13.524  0.00  0.00    -0.270 OA
ATOM      2  N   UNL     1      32.672 -21.904 -18.825  0.00  0.00    -0.352 N 
ATOM      3  N   UNL     1      31.184 -23.266 -16.901  0.00  0.00    -0.352 N 
ATOM      4  N   UNL     1      36.832 -23.770 -14.886  0.00  0.00    -0.297 N 
ATOM      5  C   UNL     1      35.411 -22.976 -16.487  0.00  0.00    +0.003 A 
ATOM      6  C   UNL     1      34.687 -22.425 -17.544  0.00  0.00    +0.016 A 
ATOM      7  C   UNL     1      33.267 -23.728 -15.702  0.00  0.00    +0.022 A 
ATOM      8  C   UNL     1      33.272 -22.478 -17.756  0.00  0.00    +0.072 A 
ATOM      9  C   UNL     1      34.649 -23.655 -15.531  0.00  0.00    +0.053 A 
ATOM     10  C   UNL     1      32.527 -23.160 -16.791  0.00  0.00    +0.073 A 
ATOM     11  C   UNL     1      36.857 -23.013 -16.124  0.00  0.00    +0.117 C 
ATOM     12  C   UNL     1      34.974 -21.652 -18.756  0.00  0.00    +0.017 A 
ATOM     13  C   UNL     1      32.087 -24.291 -15.027  0.00  0.00    +0.017 A 
ATOM     14  C   UNL     1      33.770 -21.365 -19.482  0.00  0.00    +0.057 A 
ATOM     15  C   UNL     1      30.887 -23.999 -15.761  0.00  0.00    +0.057 A 
ATOM     16  C   UNL     1      35.551 -24.165 -14.505  0.00  0.00    +0.246 C 
ATOM     17  C   UNL     1      36.193 -21.171 -19.291  0.00  0.00    +0.001 C 
ATOM     18  C   UNL     1      31.945 -25.037 -13.832  0.00  0.00    +0.001 C 
ATOM     19  C   UNL     1      33.791 -20.634 -20.678  0.00  0.00    +0.017 C 
ATOM     20  C   UNL     1      29.627 -24.430 -15.320  0.00  0.00    +0.017 C 
ATOM     21  C   UNL     1      36.202 -20.443 -20.485  0.00  0.00    +0.000 C 
ATOM     22  C   UNL     1      30.684 -25.463 -13.401  0.00  0.00    +0.000 C 
ATOM     23  C   UNL     1      35.019 -20.181 -21.165  0.00  0.00    +0.001 C 
ATOM     24  C   UNL     1      29.543 -25.163 -14.136  0.00  0.00    +0.001 C 
ATOM     25  H   UNL     1      31.719 -21.877 -19.071  0.00  0.00    +0.166 HD
ATOM     26  H   UNL     1      30.581 -22.918 -17.597  0.00  0.00    +0.166 HD
ATOM     27  H   UNL     1      37.640 -23.983 -14.365  0.00  0.00    +0.150 HD
ENDROOT
TORSDOF 0
ENDMDL
MODEL 3
REMARK VINA RESULT:     -12.4      2.162      4.723
REMARK  Name = 3815
REMARK  0 active torsions:
REMARK  status: ('A' for Active; 'I' for Inactive)
REMARK                            x       y       z     vdW  Elec       q    Type
REMARK                         _______ _______ _______ _____ _____    ______ ____
ROOT
ATOM      1  O   UNL     1      31.186 -22.891 -16.979  0.00  0.00    -0.270 OA
ATOM      2  N   UNL     1      37.508 -23.663 -15.418  0.00  0.00    -0.352 N 
ATOM      3  N   UNL     1      36.594 -22.317 -17.682  0.00  0.00    -0.352 N 
ATOM      4  N   UNL     1      31.514 -24.090 -14.988  0.00  0.00    -0.297 N 
ATOM      5  C   UNL     1      33.796 -24.036 -14.972  0.00  0.00    +0.003 A 
ATOM      6  C   UNL     1      35.180 -24.094 -14.812  0.00  0.00    +0.016 A 
ATOM      7  C   UNL     1      34.303 -22.808 -16.976  0.00  0.00    +0.022 A 
ATOM      8  C   UNL     1      36.184 -23.545 -15.673  0.00  0.00    +0.072 A 
ATOM      9  C   UNL     1      33.355 -23.357 -16.112  0.00  0.00    +0.053 A 
ATOM     10  C   UNL     1      35.726 -22.871 -16.807  0.00  0.00    +0.073 A 
ATOM     11  C   UNL     1      32.635 -24.545 -14.186  0.00  0.00    +0.117 C 
ATOM     12  C   UNL     1      36.128 -24.655 -13.844  0.00  0.00    +0.017 A 
ATOM     13  C   UNL     1      34.358 -22.046 -18.233  0.00  0.00    +0.017 A 
ATOM     14  C   UNL     1      37.482 -24.384 -14.231  0.00  0.00    +0.057 A 
ATOM     15  C   UNL     1      35.718 -21.779 -18.612  0.00  0.00    +0.057 A 
ATOM     16  C   UNL     1      31.898 -23.388 -16.128  0.00  0.00    +0.246 C 
ATOM     17  C   UNL     1      35.920 -25.385 -12.649  0.00  0.00    +0.001 C 
ATOM     18  C   UNL     1      33.343 -21.555 -19.090  0.00  0.00    +0.001 C 
ATOM     19  C   UNL     1      38.567 -24.821 -13.459  0.00  0.00    +0.017 C 
ATOM     20  C   UNL     1      36.033 -21.066 -19.778  0.00  0.00    +0.017 C 
ATOM     21  C   UNL     1      37.011 -25.817 -11.887  0.00  0.00    +0.000 C 
ATOM     22  C   UNL     1      33.669 -20.846 -20.251  0.00  0.00    +0.000 C 
ATOM     23  C   UNL     1      38.312 -25.539 -12.288  0.00  0.00    +0.001 C 
ATOM     24  C   UNL     1      34.995 -20.605 -20.588  0.00  0.00    +0.001 C 
ATOM     25  H   UNL     1      38.279 -23.331 -15.932  0.00  0.00    +0.166 HD
ATOM     26  H   UNL     1      37.578 -22.300 -17.664  0.00  0.00    +0.166 HD
ATOM     27  H   UNL     1      30.574 -24.260 -14.749  0.00  0.00    +0.150 HD
ENDROOT
TORSDOF 0
ENDMDL
MODEL 4
REMARK VINA RESULT:     -12.2      2.118      6.372
REMARK  Name = 3815
REMARK  0 active torsions:
REMARK  status: ('A' for Active; 'I' for Inactive)
REMARK                            x       y       z     vdW  Elec       q    Type
REMARK                         _______ _______ _______ _____ _____    ______ ____
ROOT
ATOM      1  O   UNL     1      32.616 -25.134 -13.142  0.00  0.00    -0.270 OA
ATOM      2  N   UNL     1      36.549 -22.359 -17.596  0.00  0.00    -0.352 N 
ATOM      3  N   UNL     1      37.439 -23.669 -15.302  0.00  0.00    -0.352 N 
ATOM      4  N   UNL     1      31.452 -24.136 -14.919  0.00  0.00    -0.297 N 
ATOM      5  C   UNL     1      33.265 -23.379 -16.084  0.00  0.00    +0.003 A 
ATOM      6  C   UNL     1      34.256 -22.854 -16.912  0.00  0.00    +0.016 A 
ATOM      7  C   UNL     1      35.104 -24.107 -14.717  0.00  0.00    +0.022 A 
ATOM      8  C   UNL     1      35.674 -22.908 -16.722  0.00  0.00    +0.072 A 
ATOM      9  C   UNL     1      33.729 -24.034 -14.939  0.00  0.00    +0.053 A 
ATOM     10  C   UNL     1      36.119 -23.564 -15.572  0.00  0.00    +0.073 A 
ATOM     11  C   UNL     1      31.774 -23.410 -16.134  0.00  0.00    +0.117 C 
ATOM     12  C   UNL     1      34.320 -22.109 -18.174  0.00  0.00    +0.017 A 
ATOM     13  C   UNL     1      36.048 -24.649 -13.727  0.00  0.00    +0.017 A 
ATOM     14  C   UNL     1      35.678 -21.837 -18.543  0.00  0.00    +0.057 A 
ATOM     15  C   UNL     1      37.405 -24.371 -14.106  0.00  0.00    +0.057 A 
ATOM     16  C   UNL     1      32.576 -24.519 -14.190  0.00  0.00    +0.246 C 
ATOM     17  C   UNL     1      33.298 -21.644 -19.036  0.00  0.00    +0.001 C 
ATOM     18  C   UNL     1      35.850 -25.365 -12.521  0.00  0.00    +0.001 C 
ATOM     19  C   UNL     1      35.993 -21.136 -19.716  0.00  0.00    +0.017 C 
ATOM     20  C   UNL     1      38.491 -24.786 -13.321  0.00  0.00    +0.017 C 
ATOM     21  C   UNL     1      33.624 -20.946 -20.203  0.00  0.00    +0.000 C 
ATOM     22  C   UNL     1      36.940 -25.773 -11.746  0.00  0.00    +0.000 C 
ATOM     23  C   UNL     1      34.950 -20.697 -20.535  0.00  0.00    +0.001 C 
ATOM     24  C   UNL     1      38.241 -25.487 -12.142  0.00  0.00    +0.001 C 
ATOM     25  H   UNL     1      37.533 -22.334 -17.568  0.00  0.00    +0.166 HD
ATOM     26  H   UNL     1      38.213 -23.338 -15.812  0.00  0.00    +0.166 HD
ATOM     27  H   UNL     1      30.531 -24.339 -14.638  0.00  0.00    +0.150 HD
ENDROOT
TORSDOF 0
ENDMDL
MODEL 5
REMARK VINA RESULT:     -11.0      2.120      6.024
REMARK  Name = 3815
REMARK  0 active torsions:
REMARK  status: ('A' for Active; 'I' for Inactive)
REMARK                            x       y       z     vdW  Elec       q    Type
REMARK                         _______ _______ _______ _____ _____    ______ ____
ROOT
ATOM      1  O   UNL     1      32.598 -22.121 -18.504  0.00  0.00    -0.270 OA
ATOM      2  N   UNL     1      34.573 -25.261 -13.096  0.00  0.00    -0.352 N 
ATOM      3  N   UNL     1      31.908 -24.903 -13.829  0.00  0.00    -0.352 N 
ATOM      4  N   UNL     1      34.933 -22.192 -18.268  0.00  0.00    -0.297 N 
ATOM      5  C   UNL     1      35.005 -23.353 -16.303  0.00  0.00    +0.003 A 
ATOM      6  C   UNL     1      35.225 -24.050 -15.116  0.00  0.00    +0.016 A 
ATOM      7  C   UNL     1      32.677 -23.705 -15.819  0.00  0.00    +0.022 A 
ATOM      8  C   UNL     1      34.244 -24.600 -14.230  0.00  0.00    +0.072 A 
ATOM      9  C   UNL     1      33.663 -23.183 -16.656  0.00  0.00    +0.053 A 
ATOM     10  C   UNL     1      32.909 -24.420 -14.598  0.00  0.00    +0.073 A 
ATOM     11  C   UNL     1      35.895 -22.724 -17.322  0.00  0.00    +0.117 C 
ATOM     12  C   UNL     1      36.379 -24.485 -14.322  0.00  0.00    +0.017 A 
ATOM     13  C   UNL     1      31.210 -23.791 -15.740  0.00  0.00    +0.017 A 
ATOM     14  C   UNL     1      35.959 -25.191 -13.147  0.00  0.00    +0.057 A 
ATOM     15  C   UNL     1      30.800 -24.500 -14.560  0.00  0.00    +0.057 A 
ATOM     16  C   UNL     1      33.610 -22.442 -17.910  0.00  0.00    +0.246 C 
ATOM     17  C   UNL     1      37.770 -24.322 -14.530  0.00  0.00    +0.001 C 
ATOM     18  C   UNL     1      30.186 -23.315 -16.594  0.00  0.00    +0.001 C 
ATOM     19  C   UNL     1      36.887 -25.707 -12.230  0.00  0.00    +0.017 C 
ATOM     20  C   UNL     1      29.447 -24.714 -14.260  0.00  0.00    +0.017 C 
ATOM     21  C   UNL     1      38.686 -24.841 -13.609  0.00  0.00    +0.000 C 
ATOM     22  C   UNL     1      28.839 -23.534 -16.284  0.00  0.00    +0.000 C 
ATOM     23  C   UNL     1      38.249 -25.521 -12.479  0.00  0.00    +0.001 C 
ATOM     24  C   UNL     1      28.477 -24.223 -15.134  0.00  0.00    +0.001 C 
ATOM     25  H   UNL     1      33.991 -25.677 -12.420  0.00  0.00    +0.166 HD
ATOM     26  H   UNL     1      31.951 -25.403 -12.982  0.00  0.00    +0.166 HD
ATOM     27  H   UNL     1      35.189 -21.703 -19.083  0.00  0.00    +0.150 HD
ENDROOT
TORSDOF 0
ENDMDL
MODEL 6
REMARK VINA RESULT:     -10.6      1.724      4.576
REMARK  Name = 3815
REMARK  0 active torsions:
REMARK  status: ('A' for Active; 'I' for Inactive)
REMARK                            x       y       z     vdW  Elec       q    Type
REMARK                         _______ _______ _______ _____ _____    ______ ____
ROOT
ATOM      1  O   UNL     1      36.801 -22.470 -17.617  0.00  0.00    -0.270 OA
ATOM      2  N   UNL     1      31.999 -24.997 -13.935  0.00  0.00    -0.352 N 
ATOM      3  N   UNL     1      34.718 -25.251 -13.374  0.00  0.00    -0.352 N 
ATOM      4  N   UNL     1      34.654 -22.023 -18.452  0.00  0.00    -0.297 N 
ATOM      5  C   UNL     1      33.465 -23.101 -16.828  0.00  0.00    +0.003 A 
ATOM      6  C   UNL     1      32.594 -23.709 -15.924  0.00  0.00    +0.016 A 
ATOM      7  C   UNL     1      35.195 -23.949 -15.390  0.00  0.00    +0.022 A 
ATOM      8  C   UNL     1      32.933 -24.446 -14.744  0.00  0.00    +0.072 A 
ATOM      9  C   UNL     1      34.824 -23.237 -16.531  0.00  0.00    +0.053 A 
ATOM     10  C   UNL     1      34.295 -24.573 -14.464  0.00  0.00    +0.073 A 
ATOM     11  C   UNL     1      33.281 -22.312 -18.080  0.00  0.00    +0.117 C 
ATOM     12  C   UNL     1      31.144 -23.865 -15.766  0.00  0.00    +0.017 A 
ATOM     13  C   UNL     1      36.415 -24.358 -14.677  0.00  0.00    +0.017 A 
ATOM     14  C   UNL     1      30.833 -24.625 -14.591  0.00  0.00    +0.057 A 
ATOM     15  C   UNL     1      36.092 -25.118 -13.502  0.00  0.00    +0.057 A 
ATOM     16  C   UNL     1      35.589 -22.551 -17.565  0.00  0.00    +0.246 C 
ATOM     17  C   UNL     1      30.064 -23.405 -16.556  0.00  0.00    +0.001 C 
ATOM     18  C   UNL     1      37.788 -24.136 -14.943  0.00  0.00    +0.001 C 
ATOM     19  C   UNL     1      29.508 -24.906 -14.229  0.00  0.00    +0.017 C 
ATOM     20  C   UNL     1      37.088 -25.622 -12.652  0.00  0.00    +0.017 C 
ATOM     21  C   UNL     1      28.747 -23.691 -16.185  0.00  0.00    +0.000 C 
ATOM     22  C   UNL     1      38.773 -24.644 -14.089  0.00  0.00    +0.000 C 
ATOM     23  C   UNL     1      28.476 -24.430 -15.040  0.00  0.00    +0.001 C 
ATOM     24  C   UNL     1      38.426 -25.376 -12.961  0.00  0.00    +0.001 C 
ATOM     25  H   UNL     1      32.113 -25.519 -13.108  0.00  0.00    +0.166 HD
ATOM     26  H   UNL     1      34.195 -25.712 -12.679  0.00  0.00    +0.166 HD
ATOM     27  H   UNL     1      34.900 -21.505 -19.252  0.00  0.00    +0.150 HD
ENDROOT
TORSDOF 0
ENDMDL
