MODEL 1
REMARK VINA RESULT:     -12.8      0.000      0.000
REMARK  Name = 11633167
REMARK  7 active torsions:
REMARK  status: ('A' for Active; 'I' for Inactive)
REMARK    1  A    between atoms: C_1  and  C_8
REMARK    2  A    between atoms: C_2  and  C_25
REMARK    3  A    between atoms: C_4  and  O_17
REMARK    4  A    between atoms: O_17  and  C_18
REMARK    5  A    between atoms: C_18  and  C_20
REMARK    6  A    between atoms: C_25  and  N_26
REMARK    7  A    between atoms: N_26  and  C_29
REMARK                            x       y       z     vdW  Elec       q    Type
REMARK                         _______ _______ _______ _____ _____    ______ ____
ROOT
ATOM      1  C   UNL     1      35.191 -20.497 -20.324  0.00  0.00    -0.000 C 
ATOM      2  C   UNL     1      34.273 -22.069 -18.737  0.00  0.00    +0.031 C 
ATOM      3  C   UNL     1      34.099 -21.195 -19.811  0.00  0.00    +0.000 C 
ATOM      4  C   UNL     1      35.539 -22.243 -18.179  0.00  0.00    +0.137 C 
ATOM      5  C   UNL     1      36.457 -20.671 -19.767  0.00  0.00    +0.003 C 
ATOM      6  C   UNL     1      36.631 -21.546 -18.694  0.00  0.00    +0.037 C 
ENDROOT
BRANCH   1   8
ATOM      7  N   UNL     1      35.276 -16.028 -22.489  0.00  0.00    -0.312 N 
ATOM      8  C   UNL     1      35.010 -19.590 -21.438  0.00  0.00    +0.001 C 
ATOM      9  C   UNL     1      35.092 -17.387 -22.367  0.00  0.00    +0.048 C 
ATOM     10  C   UNL     1      34.654 -17.856 -23.609  0.00  0.00    +0.015 C 
ATOM     11  C   UNL     1      35.280 -18.229 -21.265  0.00  0.00    +0.015 C 
ATOM     12  C   UNL     1      34.573 -20.086 -22.664  0.00  0.00    +0.000 C 
ATOM     13  C   UNL     1      34.389 -19.232 -23.758  0.00  0.00    +0.001 C 
ATOM     14  C   UNL     1      34.583 -16.732 -24.478  0.00  0.00    +0.017 C 
ATOM     15  C   UNL     1      34.969 -15.622 -23.761  0.00  0.00    +0.062 C 
ATOM     16  H   UNL     1      35.582 -15.434 -21.767  0.00  0.00    +0.152 HD
ENDBRANCH   1   8
BRANCH   4  17
ATOM     17  O   UNL     1      35.727 -23.092 -17.130  0.00  0.00    -0.469 OA
BRANCH  17  18
ATOM     18  C   UNL     1      36.633 -22.674 -16.111  0.00  0.00    +0.251 C 
BRANCH  18  20
ATOM     19  N   UNL     1      36.086 -24.906 -15.349  0.00  0.00    -0.244 NA
ATOM     20  C   UNL     1      36.783 -23.777 -15.105  0.00  0.00    +0.103 C 
ATOM     21  C   UNL     1      37.605 -23.583 -14.013  0.00  0.00    +0.018 C 
ATOM     22  C   UNL     1      37.722 -24.624 -13.100  0.00  0.00    +0.003 C 
ATOM     23  C   UNL     1      36.224 -25.896 -14.440  0.00  0.00    +0.099 C 
ATOM     24  C   UNL     1      37.022 -25.807 -13.310  0.00  0.00    +0.021 C 
ENDBRANCH  18  20
ENDBRANCH  17  18
ENDBRANCH   4  17
BRANCH   2  25
ATOM     25  C   UNL     1      33.094 -22.809 -18.198  0.00  0.00    +0.117 C 
BRANCH  25  26
ATOM     26  N   UNL     1      33.226 -23.101 -16.771  0.00  0.00    -0.327 N 
ATOM     27  H   UNL     1      34.128 -23.234 -16.399  0.00  0.00    +0.147 HD
BRANCH  26  29
ATOM     28  N   UNL     1      31.236 -23.467 -13.668  0.00  0.00    -0.228 NA
ATOM     29  C   UNL     1      32.148 -23.200 -15.922  0.00  0.00    +0.077 C 
ATOM     30  C   UNL     1      32.270 -23.366 -14.534  0.00  0.00    +0.139 C 
ATOM     31  C   UNL     1      30.832 -23.139 -16.415  0.00  0.00    +0.019 C 
ATOM     32  C   UNL     1      29.742 -23.239 -15.556  0.00  0.00    +0.022 C 
ATOM     33  C   UNL     1      29.997 -23.401 -14.203  0.00  0.00    +0.100 C 
ATOM     34  N   UNL     1      33.583 -23.432 -14.003  0.00  0.00    -0.342 N 
ATOM     35  H   UNL     1      33.716 -23.548 -13.034  0.00  0.00    +0.144 HD
ATOM     36  H   UNL     1      34.361 -23.363 -14.602  0.00  0.00    +0.144 HD
ENDBRANCH  26  29
ENDBRANCH  25  26
ENDBRANCH   2  25
TORSDOF 7
ENDMDL
MODEL 2
REMARK VINA RESULT:     -12.4      1.609      4.936
REMARK  Name = 11633167
REMARK  7 active torsions:
REMARK  status: ('A' for Active; 'I' for Inactive)
REMARK    1  A    between atoms: C_1  and  C_8
REMARK    2  A    between atoms: C_2  and  C_25
REMARK    3  A    between atoms: C_4  and  O_17
REMARK    4  A    between atoms: O_17  and  C_18
REMARK    5  A    between atoms: C_18  and  C_20
REMARK    6  A    between atoms: C_25  and  N_26
REMARK    7  A    between atoms: N_26  and  C_29
REMARK                            x       y       z     vdW  Elec       q    Type
REMARK                         _______ _______ _______ _____ _____    ______ ____
ROOT
ATOM      1  C   UNL     1      35.065 -21.805 -18.585  0.00  0.00    -0.000 C 
ATOM      2  C   UNL     1      35.770 -22.818 -16.510  0.00  0.00    +0.031 C 
ATOM      3  C   UNL     1      36.020 -21.960 -17.581  0.00  0.00    +0.000 C 
ATOM      4  C   UNL     1      34.568 -23.521 -16.444  0.00  0.00    +0.137 C 
ATOM      5  C   UNL     1      33.862 -22.507 -18.520  0.00  0.00    +0.003 C 
ATOM      6  C   UNL     1      33.613 -23.365 -17.449  0.00  0.00    +0.037 C 
ENDROOT
BRANCH   1   8
ATOM      7  N   UNL     1      33.821 -19.404 -22.751  0.00  0.00    -0.312 N 
ATOM      8  C   UNL     1      35.323 -20.914 -19.697  0.00  0.00    +0.001 C 
ATOM      9  C   UNL     1      34.605 -19.813 -21.696  0.00  0.00    +0.048 C 
ATOM     10  C   UNL     1      35.845 -19.186 -21.838  0.00  0.00    +0.015 C 
ATOM     11  C   UNL     1      34.315 -20.681 -20.637  0.00  0.00    +0.015 C 
ATOM     12  C   UNL     1      36.569 -20.303 -19.813  0.00  0.00    +0.000 C 
ATOM     13  C   UNL     1      36.846 -19.437 -20.878  0.00  0.00    +0.001 C 
ATOM     14  C   UNL     1      35.777 -18.387 -23.013  0.00  0.00    +0.017 C 
ATOM     15  C   UNL     1      34.521 -18.542 -23.553  0.00  0.00    +0.062 C 
ATOM     16  H   UNL     1      32.892 -19.689 -22.907  0.00  0.00    +0.152 HD
ENDBRANCH   1   8
BRANCH   4  17
ATOM     17  O   UNL     1      34.308 -24.364 -15.406  0.00  0.00    -0.469 OA
BRANCH  17  18
ATOM     18  C   UNL     1      33.660 -23.806 -14.265  0.00  0.00    +0.251 C 
BRANCH  18  20
ATOM     19  N   UNL     1      31.836 -25.361 -13.922  0.00  0.00    -0.244 NA
ATOM     20  C   UNL     1      32.196 -24.127 -14.328  0.00  0.00    +0.103 C 
ATOM     21  C   UNL     1      31.317 -23.165 -14.786  0.00  0.00    +0.018 C 
ATOM     22  C   UNL     1      29.967 -23.494 -14.832  0.00  0.00    +0.003 C 
ATOM     23  C   UNL     1      30.516 -25.645 -13.981  0.00  0.00    +0.099 C 
ATOM     24  C   UNL     1      29.550 -24.755 -14.424  0.00  0.00    +0.021 C 
ENDBRANCH  18  20
ENDBRANCH  17  18
ENDBRANCH   4  17
BRANCH   2  25
ATOM     25  C   UNL     1      36.803 -22.973 -15.442  0.00  0.00    +0.117 C 
BRANCH  25  26
ATOM     26  N   UNL     1      37.226 -24.364 -15.276  0.00  0.00    -0.327 N 
ATOM     27  H   UNL     1      37.465 -24.882 -16.078  0.00  0.00    +0.147 HD
BRANCH  26  29
ATOM     28  N   UNL     1      36.866 -26.910 -12.610  0.00  0.00    -0.228 NA
ATOM     29  C   UNL     1      37.306 -24.983 -14.050  0.00  0.00    +0.077 C 
ATOM     30  C   UNL     1      36.807 -26.270 -13.800  0.00  0.00    +0.139 C 
ATOM     31  C   UNL     1      37.908 -24.339 -12.954  0.00  0.00    +0.019 C 
ATOM     32  C   UNL     1      37.988 -24.965 -11.714  0.00  0.00    +0.022 C 
ATOM     33  C   UNL     1      37.456 -26.240 -11.596  0.00  0.00    +0.100 C 
ATOM     34  N   UNL     1      36.192 -26.948 -14.883  0.00  0.00    -0.342 N 
ATOM     35  H   UNL     1      35.828 -27.853 -14.753  0.00  0.00    +0.144 HD
ATOM     36  H   UNL     1      36.130 -26.513 -15.764  0.00  0.00    +0.144 HD
ENDBRANCH  26  29
ENDBRANCH  25  26
ENDBRANCH   2  25
TORSDOF 7
ENDMDL
MODEL 3
REMARK VINA RESULT:     -12.4      1.439      2.116
REMARK  Name = 11633167
REMARK  7 active torsions:
REMARK  status: ('A' for Active; 'I' for Inactive)
REMARK    1  A    between atoms: C_1  and  C_8
REMARK    2  A    between atoms: C_2  and  C_25
REMARK    3  A    between atoms: C_4  and  O_17
REMARK    4  A    between atoms: O_17  and  C_18
REMARK    5  A    between atoms: C_18  and  C_20
REMARK    6  A    between atoms: C_25  and  N_26
REMARK    7  A    between atoms: N_26  and  C_29
REMARK                            x       y       z     vdW  Elec       q    Type
REMARK                         _______ _______ _______ _____ _____    ______ ____
ROOT
ATOM      1  C   UNL     1      35.405 -21.023 -19.551  0.00  0.00    -0.000 C 
ATOM      2  C   UNL     1      34.295 -22.611 -18.110  0.00  0.00    +0.031 C 
ATOM      3  C   UNL     1      34.264 -21.745 -19.203  0.00  0.00    +0.000 C 
ATOM      4  C   UNL     1      35.465 -22.754 -17.366  0.00  0.00    +0.137 C 
ATOM      5  C   UNL     1      36.576 -21.165 -18.807  0.00  0.00    +0.003 C 
ATOM      6  C   UNL     1      36.606 -22.032 -17.714  0.00  0.00    +0.037 C 
ENDROOT
BRANCH   1   8
ATOM      7  N   UNL     1      33.475 -19.223 -23.758  0.00  0.00    -0.312 N 
ATOM      8  C   UNL     1      35.374 -20.123 -20.685  0.00  0.00    +0.001 C 
ATOM      9  C   UNL     1      34.349 -19.346 -22.702  0.00  0.00    +0.048 C 
ATOM     10  C   UNL     1      35.336 -18.372 -22.870  0.00  0.00    +0.015 C 
ATOM     11  C   UNL     1      34.342 -20.235 -21.621  0.00  0.00    +0.015 C 
ATOM     12  C   UNL     1      36.372 -19.162 -20.827  0.00  0.00    +0.000 C 
ATOM     13  C   UNL     1      36.367 -18.279 -21.914  0.00  0.00    +0.001 C 
ATOM     14  C   UNL     1      35.023 -17.661 -24.062  0.00  0.00    +0.017 C 
ATOM     15  C   UNL     1      33.874 -18.208 -24.586  0.00  0.00    +0.062 C 
ATOM     16  H   UNL     1      32.679 -19.785 -23.899  0.00  0.00    +0.152 HD
ENDBRANCH   1   8
BRANCH   4  17
ATOM     17  O   UNL     1      35.512 -23.595 -16.295  0.00  0.00    -0.469 OA
BRANCH  17  18
ATOM     18  C   UNL     1      36.164 -23.115 -15.121  0.00  0.00    +0.251 C 
BRANCH  18  20
ATOM     19  N   UNL     1      37.848 -23.970 -13.608  0.00  0.00    -0.244 NA
ATOM     20  C   UNL     1      36.808 -24.269 -14.412  0.00  0.00    +0.103 C 
ATOM     21  C   UNL     1      36.314 -25.543 -14.614  0.00  0.00    +0.018 C 
ATOM     22  C   UNL     1      36.934 -26.590 -13.942  0.00  0.00    +0.003 C 
ATOM     23  C   UNL     1      38.426 -25.013 -12.971  0.00  0.00    +0.099 C 
ATOM     24  C   UNL     1      38.011 -26.329 -13.102  0.00  0.00    +0.021 C 
ENDBRANCH  18  20
ENDBRANCH  17  18
ENDBRANCH   4  17
BRANCH   2  25
ATOM     25  C   UNL     1      33.065 -23.377 -17.751  0.00  0.00    +0.117 C 
BRANCH  25  26
ATOM     26  N   UNL     1      32.367 -22.801 -16.601  0.00  0.00    -0.327 N 
ATOM     27  H   UNL     1      32.331 -21.821 -16.516  0.00  0.00    +0.147 HD
BRANCH  26  29
ATOM     28  N   UNL     1      29.734 -24.475 -14.604  0.00  0.00    -0.228 NA
ATOM     29  C   UNL     1      31.758 -23.565 -15.632  0.00  0.00    +0.077 C 
ATOM     30  C   UNL     1      30.369 -23.734 -15.541  0.00  0.00    +0.139 C 
ATOM     31  C   UNL     1      32.519 -24.233 -14.656  0.00  0.00    +0.019 C 
ATOM     32  C   UNL     1      31.903 -25.005 -13.676  0.00  0.00    +0.022 C 
ATOM     33  C   UNL     1      30.520 -25.093 -13.695  0.00  0.00    +0.100 C 
ATOM     34  N   UNL     1      29.571 -23.073 -16.509  0.00  0.00    -0.342 N 
ATOM     35  H   UNL     1      28.591 -23.164 -16.484  0.00  0.00    +0.144 HD
ATOM     36  H   UNL     1      29.997 -22.524 -17.207  0.00  0.00    +0.144 HD
ENDBRANCH  26  29
ENDBRANCH  25  26
ENDBRANCH   2  25
TORSDOF 7
ENDMDL
MODEL 4
REMARK VINA RESULT:     -12.3      1.136      4.151
REMARK  Name = 11633167
REMARK  7 active torsions:
REMARK  status: ('A' for Active; 'I' for Inactive)
REMARK    1  A    between atoms: C_1  and  C_8
REMARK    2  A    between atoms: C_2  and  C_25
REMARK    3  A    between atoms: C_4  and  O_17
REMARK    4  A    between atoms: O_17  and  C_18
REMARK    5  A    between atoms: C_18  and  C_20
REMARK    6  A    between atoms: C_25  and  N_26
REMARK    7  A    between atoms: N_26  and  C_29
REMARK                            x       y       z     vdW  Elec       q    Type
REMARK                         _______ _______ _______ _____ _____    ______ ____
ROOT
ATOM      1  C   UNL     1      34.556 -20.531 -20.293  0.00  0.00    -0.000 C 
ATOM      2  C   UNL     1      35.634 -21.826 -18.564  0.00  0.00    +0.031 C 
ATOM      3  C   UNL     1      35.714 -20.918 -19.620  0.00  0.00    +0.000 C 
ATOM      4  C   UNL     1      34.398 -22.347 -18.184  0.00  0.00    +0.137 C 
ATOM      5  C   UNL     1      33.319 -21.051 -19.914  0.00  0.00    +0.003 C 
ATOM      6  C   UNL     1      33.240 -21.959 -18.857  0.00  0.00    +0.037 C 
ENDROOT
BRANCH   1   8
ATOM      7  N   UNL     1      35.044 -15.985 -22.232  0.00  0.00    -0.312 N 
ATOM      8  C   UNL     1      34.637 -19.588 -21.389  0.00  0.00    +0.001 C 
ATOM      9  C   UNL     1      34.881 -17.351 -22.201  0.00  0.00    +0.048 C 
ATOM     10  C   UNL     1      34.793 -17.784 -23.527  0.00  0.00    +0.015 C 
ATOM     11  C   UNL     1      34.807 -18.228 -21.113  0.00  0.00    +0.015 C 
ATOM     12  C   UNL     1      34.546 -20.049 -22.701  0.00  0.00    +0.000 C 
ATOM     13  C   UNL     1      34.622 -19.160 -23.780  0.00  0.00    +0.001 C 
ATOM     14  C   UNL     1      34.910 -16.632 -24.352  0.00  0.00    +0.017 C 
ATOM     15  C   UNL     1      35.062 -15.540 -23.528  0.00  0.00    +0.062 C 
ATOM     16  H   UNL     1      35.134 -15.409 -21.438  0.00  0.00    +0.152 HD
ENDBRANCH   1   8
BRANCH   4  17
ATOM     17  O   UNL     1      34.302 -23.235 -17.155  0.00  0.00    -0.469 OA
BRANCH  17  18
ATOM     18  C   UNL     1      33.195 -24.133 -17.175  0.00  0.00    +0.251 C 
BRANCH  18  20
ATOM     19  N   UNL     1      32.855 -24.410 -14.794  0.00  0.00    -0.244 NA
ATOM     20  C   UNL     1      32.363 -23.912 -15.946  0.00  0.00    +0.103 C 
ATOM     21  C   UNL     1      31.169 -23.227 -16.057  0.00  0.00    +0.018 C 
ATOM     22  C   UNL     1      30.422 -23.039 -14.900  0.00  0.00    +0.003 C 
ATOM     23  C   UNL     1      32.102 -24.209 -13.690  0.00  0.00    +0.099 C 
ATOM     24  C   UNL     1      30.891 -23.536 -13.689  0.00  0.00    +0.021 C 
ENDBRANCH  18  20
ENDBRANCH  17  18
ENDBRANCH   4  17
BRANCH   2  25
ATOM     25  C   UNL     1      36.883 -22.230 -17.853  0.00  0.00    +0.117 C 
BRANCH  25  26
ATOM     26  N   UNL     1      36.798 -22.005 -16.410  0.00  0.00    -0.327 N 
ATOM     27  H   UNL     1      36.489 -21.128 -16.088  0.00  0.00    +0.147 HD
BRANCH  26  29
ATOM     28  N   UNL     1      36.599 -24.240 -13.463  0.00  0.00    -0.228 NA
ATOM     29  C   UNL     1      37.130 -22.963 -15.480  0.00  0.00    +0.077 C 
ATOM     30  C   UNL     1      36.308 -23.307 -14.396  0.00  0.00    +0.139 C 
ATOM     31  C   UNL     1      38.345 -23.667 -15.570  0.00  0.00    +0.019 C 
ATOM     32  C   UNL     1      38.681 -24.635 -14.629  0.00  0.00    +0.022 C 
ATOM     33  C   UNL     1      37.781 -24.882 -13.604  0.00  0.00    +0.100 C 
ATOM     34  N   UNL     1      35.076 -22.616 -14.275  0.00  0.00    -0.342 N 
ATOM     35  H   UNL     1      34.467 -22.825 -13.530  0.00  0.00    +0.144 HD
ATOM     36  H   UNL     1      34.829 -21.929 -14.935  0.00  0.00    +0.144 HD
ENDBRANCH  26  29
ENDBRANCH  25  26
ENDBRANCH   2  25
TORSDOF 7
ENDMDL
MODEL 5
REMARK VINA RESULT:     -11.2      7.254     14.274
REMARK  Name = 11633167
REMARK  7 active torsions:
REMARK  status: ('A' for Active; 'I' for Inactive)
REMARK    1  A    between atoms: C_1  and  C_8
REMARK    2  A    between atoms: C_2  and  C_25
REMARK    3  A    between atoms: C_4  and  O_17
REMARK    4  A    between atoms: O_17  and  C_18
REMARK    5  A    between atoms: C_18  and  C_20
REMARK    6  A    between atoms: C_25  and  N_26
REMARK    7  A    between atoms: N_26  and  C_29
REMARK                            x       y       z     vdW  Elec       q    Type
REMARK                         _______ _______ _______ _____ _____    ______ ____
ROOT
ATOM      1  C   UNL     1      33.246 -13.696 -21.976  0.00  0.00    -0.000 C 
ATOM      2  C   UNL     1      32.618 -11.473 -22.677  0.00  0.00    +0.031 C 
ATOM      3  C   UNL     1      33.279 -12.676 -22.925  0.00  0.00    +0.000 C 
ATOM      4  C   UNL     1      31.926 -11.291 -21.480  0.00  0.00    +0.137 C 
ATOM      5  C   UNL     1      32.555 -13.516 -20.779  0.00  0.00    +0.003 C 
ATOM      6  C   UNL     1      31.894 -12.312 -20.531  0.00  0.00    +0.037 C 
ENDROOT
BRANCH   1   8
ATOM      7  N   UNL     1      35.644 -17.825 -20.608  0.00  0.00    -0.312 N 
ATOM      8  C   UNL     1      33.932 -14.945 -22.232  0.00  0.00    +0.001 C 
ATOM      9  C   UNL     1      35.073 -16.896 -21.449  0.00  0.00    +0.048 C 
ATOM     10  C   UNL     1      35.255 -17.359 -22.755  0.00  0.00    +0.015 C 
ATOM     11  C   UNL     1      34.417 -15.695 -21.157  0.00  0.00    +0.015 C 
ATOM     12  C   UNL     1      34.098 -15.381 -23.545  0.00  0.00    +0.000 C 
ATOM     13  C   UNL     1      34.757 -16.585 -23.822  0.00  0.00    +0.001 C 
ATOM     14  C   UNL     1      35.951 -18.596 -22.667  0.00  0.00    +0.017 C 
ATOM     15  C   UNL     1      36.178 -18.856 -21.335  0.00  0.00    +0.062 C 
ATOM     16  H   UNL     1      35.666 -17.759 -19.626  0.00  0.00    +0.152 HD
ENDBRANCH   1   8
BRANCH   4  17
ATOM     17  O   UNL     1      31.276 -10.123 -21.222  0.00  0.00    -0.469 OA
BRANCH  17  18
ATOM     18  C   UNL     1      31.797  -9.308 -20.173  0.00  0.00    +0.251 C 
BRANCH  18  20
ATOM     19  N   UNL     1      30.891  -7.481 -21.477  0.00  0.00    -0.244 NA
ATOM     20  C   UNL     1      31.874  -7.887 -20.649  0.00  0.00    +0.103 C 
ATOM     21  C   UNL     1      32.920  -7.092 -20.222  0.00  0.00    +0.018 C 
ATOM     22  C   UNL     1      32.962  -5.781 -20.681  0.00  0.00    +0.003 C 
ATOM     23  C   UNL     1      30.965  -6.200 -21.903  0.00  0.00    +0.099 C 
ATOM     24  C   UNL     1      31.969  -5.318 -21.538  0.00  0.00    +0.021 C 
ENDBRANCH  18  20
ENDBRANCH  17  18
ENDBRANCH   4  17
BRANCH   2  25
ATOM     25  C   UNL     1      32.662 -10.390 -23.704  0.00  0.00    +0.117 C 
BRANCH  25  26
ATOM     26  N   UNL     1      33.575  -9.308 -23.332  0.00  0.00    -0.327 N 
ATOM     27  H   UNL     1      34.252  -9.482 -22.639  0.00  0.00    +0.147 HD
BRANCH  26  29
ATOM     28  N   UNL     1      34.509  -5.844 -24.251  0.00  0.00    -0.228 NA
ATOM     29  C   UNL     1      33.531  -8.059 -23.905  0.00  0.00    +0.077 C 
ATOM     30  C   UNL     1      34.518  -7.082 -23.707  0.00  0.00    +0.139 C 
ATOM     31  C   UNL     1      32.464  -7.685 -24.743  0.00  0.00    +0.019 C 
ATOM     32  C   UNL     1      32.420  -6.421 -25.322  0.00  0.00    +0.022 C 
ATOM     33  C   UNL     1      33.459  -5.546 -25.047  0.00  0.00    +0.100 C 
ATOM     34  N   UNL     1      35.608  -7.424 -22.867  0.00  0.00    -0.342 N 
ATOM     35  H   UNL     1      36.324  -6.770 -22.699  0.00  0.00    +0.144 HD
ATOM     36  H   UNL     1      35.648  -8.317 -22.452  0.00  0.00    +0.144 HD
ENDBRANCH  26  29
ENDBRANCH  25  26
ENDBRANCH   2  25
TORSDOF 7
ENDMDL
MODEL 6
REMARK VINA RESULT:     -11.0      7.201     14.274
REMARK  Name = 11633167
REMARK  7 active torsions:
REMARK  status: ('A' for Active; 'I' for Inactive)
REMARK    1  A    between atoms: C_1  and  C_8
REMARK    2  A    between atoms: C_2  and  C_25
REMARK    3  A    between atoms: C_4  and  O_17
REMARK    4  A    between atoms: O_17  and  C_18
REMARK    5  A    between atoms: C_18  and  C_20
REMARK    6  A    between atoms: C_25  and  N_26
REMARK    7  A    between atoms: N_26  and  C_29
REMARK                            x       y       z     vdW  Elec       q    Type
REMARK                         _______ _______ _______ _____ _____    ______ ____
ROOT
ATOM      1  C   UNL     1      33.290 -13.779 -22.135  0.00  0.00    -0.000 C 
ATOM      2  C   UNL     1      32.797 -11.520 -22.832  0.00  0.00    +0.031 C 
ATOM      3  C   UNL     1      33.464 -12.728 -23.035  0.00  0.00    +0.000 C 
ATOM      4  C   UNL     1      31.958 -11.363 -21.729  0.00  0.00    +0.137 C 
ATOM      5  C   UNL     1      32.452 -13.623 -21.032  0.00  0.00    +0.003 C 
ATOM      6  C   UNL     1      31.784 -12.415 -20.830  0.00  0.00    +0.037 C 
ENDROOT
BRANCH   1   8
ATOM      7  N   UNL     1      35.702 -17.845 -20.614  0.00  0.00    -0.312 N 
ATOM      8  C   UNL     1      33.983 -15.033 -22.345  0.00  0.00    +0.001 C 
ATOM      9  C   UNL     1      35.130 -16.949 -21.488  0.00  0.00    +0.048 C 
ATOM     10  C   UNL     1      35.318 -17.457 -22.777  0.00  0.00    +0.015 C 
ATOM     11  C   UNL     1      34.467 -15.742 -21.242  0.00  0.00    +0.015 C 
ATOM     12  C   UNL     1      34.155 -15.514 -23.640  0.00  0.00    +0.000 C 
ATOM     13  C   UNL     1      34.821 -16.723 -23.873  0.00  0.00    +0.001 C 
ATOM     14  C   UNL     1      36.020 -18.686 -22.643  0.00  0.00    +0.017 C 
ATOM     15  C   UNL     1      36.243 -18.898 -21.302  0.00  0.00    +0.062 C 
ATOM     16  H   UNL     1      35.720 -17.743 -19.634  0.00  0.00    +0.152 HD
ENDBRANCH   1   8
BRANCH   4  17
ATOM     17  O   UNL     1      31.298 -10.191 -21.516  0.00  0.00    -0.469 OA
BRANCH  17  18
ATOM     18  C   UNL     1      31.584  -9.497 -20.303  0.00  0.00    +0.251 C 
BRANCH  18  20
ATOM     19  N   UNL     1      31.020  -7.454 -21.472  0.00  0.00    -0.244 NA
ATOM     20  C   UNL     1      31.869  -8.058 -20.617  0.00  0.00    +0.103 C 
ATOM     21  C   UNL     1      32.957  -7.445 -20.027  0.00  0.00    +0.018 C 
ATOM     22  C   UNL     1      33.193  -6.111 -20.340  0.00  0.00    +0.003 C 
ATOM     23  C   UNL     1      31.281  -6.158 -21.752  0.00  0.00    +0.099 C 
ATOM     24  C   UNL     1      32.343  -5.447 -21.217  0.00  0.00    +0.021 C 
ENDBRANCH  18  20
ENDBRANCH  17  18
ENDBRANCH   4  17
BRANCH   2  25
ATOM     25  C   UNL     1      32.993 -10.405 -23.804  0.00  0.00    +0.117 C 
BRANCH  25  26
ATOM     26  N   UNL     1      33.356  -9.150 -23.145  0.00  0.00    -0.327 N 
ATOM     27  H   UNL     1      33.360  -9.119 -22.161  0.00  0.00    +0.147 HD
BRANCH  26  29
ATOM     28  N   UNL     1      33.086  -6.183 -25.346  0.00  0.00    -0.228 NA
ATOM     29  C   UNL     1      33.692  -8.009 -23.836  0.00  0.00    +0.077 C 
ATOM     30  C   UNL     1      32.793  -7.305 -24.652  0.00  0.00    +0.139 C 
ATOM     31  C   UNL     1      34.991  -7.473 -23.759  0.00  0.00    +0.019 C 
ATOM     32  C   UNL     1      35.330  -6.319 -24.458  0.00  0.00    +0.022 C 
ATOM     33  C   UNL     1      34.349  -5.718 -25.230  0.00  0.00    +0.100 C 
ATOM     34  N   UNL     1      31.475  -7.818 -24.754  0.00  0.00    -0.342 N 
ATOM     35  H   UNL     1      30.810  -7.357 -25.315  0.00  0.00    +0.144 HD
ATOM     36  H   UNL     1      31.225  -8.634 -24.263  0.00  0.00    +0.144 HD
ENDBRANCH  26  29
ENDBRANCH  25  26
ENDBRANCH   2  25
TORSDOF 7
ENDMDL
MODEL 7
REMARK VINA RESULT:     -11.0      2.044      3.058
REMARK  Name = 11633167
REMARK  7 active torsions:
REMARK  status: ('A' for Active; 'I' for Inactive)
REMARK    1  A    between atoms: C_1  and  C_8
REMARK    2  A    between atoms: C_2  and  C_25
REMARK    3  A    between atoms: C_4  and  O_17
REMARK    4  A    between atoms: O_17  and  C_18
REMARK    5  A    between atoms: C_18  and  C_20
REMARK    6  A    between atoms: C_25  and  N_26
REMARK    7  A    between atoms: N_26  and  C_29
REMARK                            x       y       z     vdW  Elec       q    Type
REMARK                         _______ _______ _______ _____ _____    ______ ____
ROOT
ATOM      1  C   UNL     1      35.540 -21.923 -18.065  0.00  0.00    -0.000 C 
ATOM      2  C   UNL     1      34.975 -23.323 -16.180  0.00  0.00    +0.031 C 
ATOM      3  C   UNL     1      34.589 -22.624 -17.324  0.00  0.00    +0.000 C 
ATOM      4  C   UNL     1      36.310 -23.320 -15.778  0.00  0.00    +0.137 C 
ATOM      5  C   UNL     1      36.875 -21.921 -17.665  0.00  0.00    +0.003 C 
ATOM      6  C   UNL     1      37.261 -22.621 -16.521  0.00  0.00    +0.037 C 
ENDROOT
BRANCH   1   8
ATOM      7  N   UNL     1      36.379 -19.015 -22.002  0.00  0.00    -0.312 N 
ATOM      8  C   UNL     1      35.140 -21.197 -19.252  0.00  0.00    +0.001 C 
ATOM      9  C   UNL     1      35.671 -19.791 -21.113  0.00  0.00    +0.048 C 
ATOM     10  C   UNL     1      34.342 -19.802 -21.546  0.00  0.00    +0.015 C 
ATOM     11  C   UNL     1      36.099 -20.479 -19.972  0.00  0.00    +0.015 C 
ATOM     12  C   UNL     1      33.809 -21.226 -19.660  0.00  0.00    +0.000 C 
ATOM     13  C   UNL     1      33.394 -20.533 -20.804  0.00  0.00    +0.001 C 
ATOM     14  C   UNL     1      34.280 -19.007 -22.724  0.00  0.00    +0.017 C 
ATOM     15  C   UNL     1      35.547 -18.535 -22.979  0.00  0.00    +0.062 C 
ATOM     16  H   UNL     1      37.345 -18.830 -21.944  0.00  0.00    +0.152 HD
ENDBRANCH   1   8
BRANCH   4  17
ATOM     17  O   UNL     1      36.704 -23.998 -14.664  0.00  0.00    -0.469 OA
BRANCH  17  18
ATOM     18  C   UNL     1      37.305 -23.235 -13.620  0.00  0.00    +0.251 C 
BRANCH  18  20
ATOM     19  N   UNL     1      37.094 -22.955 -11.224  0.00  0.00    -0.244 NA
ATOM     20  C   UNL     1      36.761 -23.697 -12.300  0.00  0.00    +0.103 C 
ATOM     21  C   UNL     1      35.969 -24.827 -12.259  0.00  0.00    +0.018 C 
ATOM     22  C   UNL     1      35.482 -25.229 -11.020  0.00  0.00    +0.003 C 
ATOM     23  C   UNL     1      36.602 -23.376 -10.038  0.00  0.00    +0.099 C 
ATOM     24  C   UNL     1      35.799 -24.495  -9.883  0.00  0.00    +0.021 C 
ENDBRANCH  18  20
ENDBRANCH  17  18
ENDBRANCH   4  17
BRANCH   2  25
ATOM     25  C   UNL     1      33.944 -24.067 -15.397  0.00  0.00    +0.117 C 
BRANCH  25  26
ATOM     26  N   UNL     1      32.628 -23.432 -15.465  0.00  0.00    -0.327 N 
ATOM     27  H   UNL     1      32.571 -22.502 -15.784  0.00  0.00    +0.147 HD
BRANCH  26  29
ATOM     28  N   UNL     1      29.058 -24.416 -15.370  0.00  0.00    -0.228 NA
ATOM     29  C   UNL     1      31.465 -24.073 -15.105  0.00  0.00    +0.077 C 
ATOM     30  C   UNL     1      30.221 -23.809 -15.697  0.00  0.00    +0.139 C 
ATOM     31  C   UNL     1      31.464 -25.052 -14.095  0.00  0.00    +0.019 C 
ATOM     32  C   UNL     1      30.287 -25.700 -13.731  0.00  0.00    +0.022 C 
ATOM     33  C   UNL     1      29.122 -25.348 -14.394  0.00  0.00    +0.100 C 
ATOM     34  N   UNL     1      30.187 -22.826 -16.718  0.00  0.00    -0.342 N 
ATOM     35  H   UNL     1      29.336 -22.608 -17.163  0.00  0.00    +0.144 HD
ATOM     36  H   UNL     1      31.014 -22.361 -16.984  0.00  0.00    +0.144 HD
ENDBRANCH  26  29
ENDBRANCH  25  26
ENDBRANCH   2  25
TORSDOF 7
ENDMDL
MODEL 8
REMARK VINA RESULT:     -10.8      1.961      3.585
REMARK  Name = 11633167
REMARK  7 active torsions:
REMARK  status: ('A' for Active; 'I' for Inactive)
REMARK    1  A    between atoms: C_1  and  C_8
REMARK    2  A    between atoms: C_2  and  C_25
REMARK    3  A    between atoms: C_4  and  O_17
REMARK    4  A    between atoms: O_17  and  C_18
REMARK    5  A    between atoms: C_18  and  C_20
REMARK    6  A    between atoms: C_25  and  N_26
REMARK    7  A    between atoms: N_26  and  C_29
REMARK                            x       y       z     vdW  Elec       q    Type
REMARK                         _______ _______ _______ _____ _____    ______ ____
ROOT
ATOM      1  C   UNL     1      35.073 -22.710 -17.023  0.00  0.00    -0.000 C 
ATOM      2  C   UNL     1      34.274 -24.062 -15.188  0.00  0.00    +0.031 C 
ATOM      3  C   UNL     1      34.024 -23.345 -16.359  0.00  0.00    +0.000 C 
ATOM      4  C   UNL     1      35.571 -24.142 -14.683  0.00  0.00    +0.137 C 
ATOM      5  C   UNL     1      36.370 -22.790 -16.518  0.00  0.00    +0.003 C 
ATOM      6  C   UNL     1      36.620 -23.507 -15.347  0.00  0.00    +0.037 C 
ENDROOT
BRANCH   1   8
ATOM      7  N   UNL     1      36.379 -19.780 -20.815  0.00  0.00    -0.312 N 
ATOM      8  C   UNL     1      34.815 -21.965 -18.237  0.00  0.00    +0.001 C 
ATOM      9  C   UNL     1      35.566 -20.552 -20.015  0.00  0.00    +0.048 C 
ATOM     10  C   UNL     1      34.291 -20.534 -20.587  0.00  0.00    +0.015 C 
ATOM     11  C   UNL     1      35.858 -21.258 -18.843  0.00  0.00    +0.015 C 
ATOM     12  C   UNL     1      33.535 -21.966 -18.785  0.00  0.00    +0.000 C 
ATOM     13  C   UNL     1      33.257 -21.255 -19.959  0.00  0.00    +0.001 C 
ATOM     14  C   UNL     1      34.369 -19.727 -21.756  0.00  0.00    +0.017 C 
ATOM     15  C   UNL     1      35.664 -19.276 -21.869  0.00  0.00    +0.062 C 
ATOM     16  H   UNL     1      37.335 -19.613 -20.652  0.00  0.00    +0.152 HD
ENDBRANCH   1   8
BRANCH   4  17
ATOM     17  O   UNL     1      35.832 -24.837 -13.541  0.00  0.00    -0.469 OA
BRANCH  17  18
ATOM     18  C   UNL     1      36.418 -26.129 -13.688  0.00  0.00    +0.251 C 
BRANCH  18  20
ATOM     19  N   UNL     1      38.515 -26.644 -14.782  0.00  0.00    -0.244 NA
ATOM     20  C   UNL     1      37.909 -25.984 -13.775  0.00  0.00    +0.103 C 
ATOM     21  C   UNL     1      38.563 -25.200 -12.845  0.00  0.00    +0.018 C 
ATOM     22  C   UNL     1      39.944 -25.087 -12.954  0.00  0.00    +0.003 C 
ATOM     23  C   UNL     1      39.858 -26.510 -14.857  0.00  0.00    +0.099 C 
ATOM     24  C   UNL     1      40.612 -25.751 -13.977  0.00  0.00    +0.021 C 
ENDBRANCH  18  20
ENDBRANCH  17  18
ENDBRANCH   4  17
BRANCH   2  25
ATOM     25  C   UNL     1      33.140 -24.736 -14.490  0.00  0.00    +0.117 C 
BRANCH  25  26
ATOM     26  N   UNL     1      32.052 -23.810 -14.174  0.00  0.00    -0.327 N 
ATOM     27  H   UNL     1      32.217 -23.097 -13.515  0.00  0.00    +0.147 HD
BRANCH  26  29
ATOM     28  N   UNL     1      28.579 -24.887 -14.878  0.00  0.00    -0.228 NA
ATOM     29  C   UNL     1      30.808 -23.887 -14.755  0.00  0.00    +0.077 C 
ATOM     30  C   UNL     1      29.811 -24.781 -14.332  0.00  0.00    +0.139 C 
ATOM     31  C   UNL     1      30.460 -23.052 -15.832  0.00  0.00    +0.019 C 
ATOM     32  C   UNL     1      29.201 -23.131 -16.419  0.00  0.00    +0.022 C 
ATOM     33  C   UNL     1      28.305 -24.058 -15.909  0.00  0.00    +0.100 C 
ATOM     34  N   UNL     1      30.129 -25.638 -13.249  0.00  0.00    -0.342 N 
ATOM     35  H   UNL     1      29.460 -26.281 -12.919  0.00  0.00    +0.144 HD
ATOM     36  H   UNL     1      31.017 -25.590 -12.826  0.00  0.00    +0.144 HD
ENDBRANCH  26  29
ENDBRANCH  25  26
ENDBRANCH   2  25
TORSDOF 7
ENDMDL
MODEL 9
REMARK VINA RESULT:     -10.7      1.986      8.122
REMARK  Name = 11633167
REMARK  7 active torsions:
REMARK  status: ('A' for Active; 'I' for Inactive)
REMARK    1  A    between atoms: C_1  and  C_8
REMARK    2  A    between atoms: C_2  and  C_25
REMARK    3  A    between atoms: C_4  and  O_17
REMARK    4  A    between atoms: O_17  and  C_18
REMARK    5  A    between atoms: C_18  and  C_20
REMARK    6  A    between atoms: C_25  and  N_26
REMARK    7  A    between atoms: N_26  and  C_29
REMARK                            x       y       z     vdW  Elec       q    Type
REMARK                         _______ _______ _______ _____ _____    ______ ____
ROOT
ATOM      1  C   UNL     1      35.697 -23.044 -16.192  0.00  0.00    -0.000 C 
ATOM      2  C   UNL     1      33.745 -22.910 -17.607  0.00  0.00    +0.031 C 
ATOM      3  C   UNL     1      34.340 -23.286 -16.402  0.00  0.00    +0.000 C 
ATOM      4  C   UNL     1      34.506 -22.295 -18.599  0.00  0.00    +0.137 C 
ATOM      5  C   UNL     1      36.459 -22.429 -17.183  0.00  0.00    +0.003 C 
ATOM      6  C   UNL     1      35.864 -22.053 -18.388  0.00  0.00    +0.037 C 
ENDROOT
BRANCH   1   8
ATOM      7  N   UNL     1      35.747 -23.753 -11.277  0.00  0.00    -0.312 N 
ATOM      8  C   UNL     1      36.316 -23.434 -14.942  0.00  0.00    +0.001 C 
ATOM      9  C   UNL     1      36.216 -23.733 -12.571  0.00  0.00    +0.048 C 
ATOM     10  C   UNL     1      37.535 -24.193 -12.537  0.00  0.00    +0.015 C 
ATOM     11  C   UNL     1      35.581 -23.346 -13.756  0.00  0.00    +0.015 C 
ATOM     12  C   UNL     1      37.632 -23.889 -14.939  0.00  0.00    +0.000 C 
ATOM     13  C   UNL     1      38.255 -24.272 -13.746  0.00  0.00    +0.001 C 
ATOM     14  C   UNL     1      37.839 -24.492 -11.180  0.00  0.00    +0.017 C 
ATOM     15  C   UNL     1      36.721 -24.210 -10.428  0.00  0.00    +0.062 C 
ATOM     16  H   UNL     1      34.843 -23.479 -11.000  0.00  0.00    +0.152 HD
ENDBRANCH   1   8
BRANCH   4  17
ATOM     17  O   UNL     1      33.941 -21.922 -19.781  0.00  0.00    -0.469 OA
BRANCH  17  18
ATOM     18  C   UNL     1      33.535 -20.561 -19.905  0.00  0.00    +0.251 C 
BRANCH  18  20
ATOM     19  N   UNL     1      35.571 -19.347 -20.396  0.00  0.00    -0.244 NA
ATOM     20  C   UNL     1      34.430 -19.870 -20.890  0.00  0.00    +0.103 C 
ATOM     21  C   UNL     1      34.050 -19.809 -22.216  0.00  0.00    +0.018 C 
ATOM     22  C   UNL     1      34.902 -19.161 -23.103  0.00  0.00    +0.003 C 
ATOM     23  C   UNL     1      36.374 -18.725 -21.287  0.00  0.00    +0.099 C 
ATOM     24  C   UNL     1      36.089 -18.606 -22.638  0.00  0.00    +0.021 C 
ENDBRANCH  18  20
ENDBRANCH  17  18
ENDBRANCH   4  17
BRANCH   2  25
ATOM     25  C   UNL     1      32.291 -23.176 -17.816  0.00  0.00    +0.117 C 
BRANCH  25  26
ATOM     26  N   UNL     1      31.478 -22.743 -16.679  0.00  0.00    -0.327 N 
ATOM     27  H   UNL     1      31.393 -21.779 -16.501  0.00  0.00    +0.147 HD
BRANCH  26  29
ATOM     28  N   UNL     1      28.765 -24.706 -15.095  0.00  0.00    -0.228 NA
ATOM     29  C   UNL     1      30.825 -23.622 -15.846  0.00  0.00    +0.077 C 
ATOM     30  C   UNL     1      29.442 -23.853 -15.896  0.00  0.00    +0.139 C 
ATOM     31  C   UNL     1      31.530 -24.354 -14.873  0.00  0.00    +0.019 C 
ATOM     32  C   UNL     1      30.869 -25.243 -14.031  0.00  0.00    +0.022 C 
ATOM     33  C   UNL     1      29.498 -25.380 -14.181  0.00  0.00    +0.100 C 
ATOM     34  N   UNL     1      28.700 -23.130 -16.864  0.00  0.00    -0.342 N 
ATOM     35  H   UNL     1      27.727 -23.260 -16.936  0.00  0.00    +0.144 HD
ATOM     36  H   UNL     1      29.158 -22.499 -17.466  0.00  0.00    +0.144 HD
ENDBRANCH  26  29
ENDBRANCH  25  26
ENDBRANCH   2  25
TORSDOF 7
ENDMDL
