MODEL 1
REMARK VINA RESULT:     -11.0      0.000      0.000
REMARK  Name = 54682555
REMARK  3 active torsions:
REMARK  status: ('A' for Active; 'I' for Inactive)
REMARK    1  A    between atoms: C_4  and  C_19
REMARK    2  A    between atoms: C_5  and  C_9
REMARK    3  A    between atoms: C_6  and  O_25
REMARK                            x       y       z     vdW  Elec       q    Type
REMARK                         _______ _______ _______ _____ _____    ______ ____
ROOT
ATOM      1  O   UNL     1      34.017 -11.148 -23.468  0.00  0.00    -0.418 OA
ATOM      2  O   UNL     1      35.056  -9.113 -23.676  0.00  0.00    -0.244 OA
ATOM      3  C   UNL     1      32.759 -11.495 -22.989  0.00  0.00    +0.182 C 
ATOM      4  C   UNL     1      32.848  -9.243 -22.748  0.00  0.00    +0.113 C 
ATOM      5  C   UNL     1      32.342 -12.766 -22.976  0.00  0.00    +0.041 C 
ATOM      6  C   UNL     1      32.083 -10.317 -22.559  0.00  0.00    +0.175 C 
ATOM      7  C   UNL     1      34.092  -9.783 -23.336  0.00  0.00    +0.349 C 
ENDROOT
BRANCH   5   9
ATOM      8  C   UNL     1      33.787 -14.787 -22.570  0.00  0.00    +0.000 C 
ATOM      9  C   UNL     1      33.102 -13.925 -23.441  0.00  0.00    +0.003 C 
ATOM     10  C   UNL     1      34.499 -15.887 -23.103  0.00  0.00    +0.000 C 
ATOM     11  C   UNL     1      33.118 -14.145 -24.819  0.00  0.00    +0.000 C 
ATOM     12  C   UNL     1      33.782 -14.581 -21.181  0.00  0.00    +0.000 C 
ATOM     13  C   UNL     1      34.505 -16.093 -24.492  0.00  0.00    +0.000 C 
ATOM     14  C   UNL     1      35.186 -16.749 -22.232  0.00  0.00    +0.000 C 
ATOM     15  C   UNL     1      33.818 -15.227 -25.343  0.00  0.00    +0.000 C 
ATOM     16  C   UNL     1      34.468 -15.446 -20.330  0.00  0.00    +0.000 C 
ATOM     17  C   UNL     1      35.169 -16.528 -20.854  0.00  0.00    +0.000 C 
ENDBRANCH   5   9
BRANCH   4  19
ATOM     18 CL   UNL     1      31.708  -3.521 -21.471  0.00  0.00    -0.082 Cl
ATOM     19  C   UNL     1      32.569  -7.843 -22.435  0.00  0.00    +0.009 C 
ATOM     20  C   UNL     1      31.841  -7.059 -23.332  0.00  0.00    +0.001 C 
ATOM     21  C   UNL     1      33.030  -7.290 -21.241  0.00  0.00    +0.001 C 
ATOM     22  C   UNL     1      31.575  -5.723 -23.034  0.00  0.00    +0.011 C 
ATOM     23  C   UNL     1      32.764  -5.953 -20.943  0.00  0.00    +0.011 C 
ATOM     24  C   UNL     1      32.036  -5.170 -21.839  0.00  0.00    +0.058 C 
ENDBRANCH   4  19
BRANCH   6  25
ATOM     25  O   UNL     1      30.836 -10.334 -22.005  0.00  0.00    -0.503 OA
ATOM     26  H   UNL     1      30.304  -9.561 -22.024  0.00  0.00    +0.292 HD
ENDBRANCH   6  25
TORSDOF 3
ENDMDL
MODEL 2
REMARK VINA RESULT:     -10.8      3.575      6.059
REMARK  Name = 54682555
REMARK  3 active torsions:
REMARK  status: ('A' for Active; 'I' for Inactive)
REMARK    1  A    between atoms: C_4  and  C_19
REMARK    2  A    between atoms: C_5  and  C_9
REMARK    3  A    between atoms: C_6  and  O_25
REMARK                            x       y       z     vdW  Elec       q    Type
REMARK                         _______ _______ _______ _____ _____    ______ ____
ROOT
ATOM      1  O   UNL     1      34.913 -16.210 -20.663  0.00  0.00    -0.418 OA
ATOM      2  O   UNL     1      34.492 -14.153 -19.737  0.00  0.00    -0.244 OA
ATOM      3  C   UNL     1      34.784 -16.677 -21.966  0.00  0.00    +0.182 C 
ATOM      4  C   UNL     1      34.087 -14.523 -22.073  0.00  0.00    +0.113 C 
ATOM      5  C   UNL     1      35.111 -17.932 -22.293  0.00  0.00    +0.041 C 
ATOM      6  C   UNL     1      34.277 -15.630 -22.788  0.00  0.00    +0.175 C 
ATOM      7  C   UNL     1      34.500 -14.900 -20.704  0.00  0.00    +0.349 C 
ENDROOT
BRANCH   5   9
ATOM      8  C   UNL     1      34.804 -19.882 -20.730  0.00  0.00    +0.000 C 
ATOM      9  C   UNL     1      35.629 -18.952 -21.383  0.00  0.00    +0.003 C 
ATOM     10  C   UNL     1      35.389 -20.836 -19.864  0.00  0.00    +0.000 C 
ATOM     11  C   UNL     1      37.011 -18.962 -21.185  0.00  0.00    +0.000 C 
ATOM     12  C   UNL     1      33.413 -19.885 -20.917  0.00  0.00    +0.000 C 
ATOM     13  C   UNL     1      36.780 -20.833 -19.676  0.00  0.00    +0.000 C 
ATOM     14  C   UNL     1      34.564 -21.766 -19.210  0.00  0.00    +0.000 C 
ATOM     15  C   UNL     1      37.585 -19.901 -20.334  0.00  0.00    +0.000 C 
ATOM     16  C   UNL     1      32.608 -20.816 -20.260  0.00  0.00    +0.000 C 
ATOM     17  C   UNL     1      33.182 -21.755 -19.408  0.00  0.00    +0.000 C 
ENDBRANCH   5   9
BRANCH   4  19
ATOM     18 CL   UNL     1      31.958  -9.220 -23.810  0.00  0.00    -0.082 Cl
ATOM     19  C   UNL     1      33.566 -13.225 -22.498  0.00  0.00    +0.009 C 
ATOM     20  C   UNL     1      32.383 -12.733 -21.945  0.00  0.00    +0.001 C 
ATOM     21  C   UNL     1      34.251 -12.479 -23.457  0.00  0.00    +0.001 C 
ATOM     22  C   UNL     1      31.886 -11.495 -22.351  0.00  0.00    +0.011 C 
ATOM     23  C   UNL     1      33.754 -11.241 -23.862  0.00  0.00    +0.011 C 
ATOM     24  C   UNL     1      32.571 -10.748 -23.309  0.00  0.00    +0.058 C 
ENDBRANCH   4  19
BRANCH   6  25
ATOM     25  O   UNL     1      34.008 -15.791 -24.117  0.00  0.00    -0.503 OA
ATOM     26  H   UNL     1      33.285 -16.323 -24.387  0.00  0.00    +0.292 HD
ENDBRANCH   6  25
TORSDOF 3
ENDMDL
MODEL 3
REMARK VINA RESULT:     -10.5      3.241      8.797
REMARK  Name = 54682555
REMARK  3 active torsions:
REMARK  status: ('A' for Active; 'I' for Inactive)
REMARK    1  A    between atoms: C_4  and  C_19
REMARK    2  A    between atoms: C_5  and  C_9
REMARK    3  A    between atoms: C_6  and  O_25
REMARK                            x       y       z     vdW  Elec       q    Type
REMARK                         _______ _______ _______ _____ _____    ______ ____
ROOT
ATOM      1  O   UNL     1      32.379  -9.644 -22.561  0.00  0.00    -0.418 OA
ATOM      2  O   UNL     1      31.312 -11.650 -22.244  0.00  0.00    -0.244 OA
ATOM      3  C   UNL     1      33.601  -9.334 -23.146  0.00  0.00    +0.182 C 
ATOM      4  C   UNL     1      33.469 -11.592 -23.292  0.00  0.00    +0.113 C 
ATOM      5  C   UNL     1      34.027  -8.070 -23.244  0.00  0.00    +0.041 C 
ATOM      6  C   UNL     1      34.233 -10.537 -23.571  0.00  0.00    +0.175 C 
ATOM      7  C   UNL     1      32.273 -11.011 -22.643  0.00  0.00    +0.349 C 
ENDROOT
BRANCH   5   9
ATOM      8  C   UNL     1      32.940  -5.833 -23.637  0.00  0.00    +0.000 C 
ATOM      9  C   UNL     1      33.312  -6.882 -22.780  0.00  0.00    +0.003 C 
ATOM     10  C   UNL     1      32.250  -4.718 -23.105  0.00  0.00    +0.000 C 
ATOM     11  C   UNL     1      33.009  -6.832 -21.419  0.00  0.00    +0.000 C 
ATOM     12  C   UNL     1      33.237  -5.867 -25.008  0.00  0.00    +0.000 C 
ATOM     13  C   UNL     1      31.953  -4.684 -21.733  0.00  0.00    +0.000 C 
ATOM     14  C   UNL     1      31.878  -3.668 -23.961  0.00  0.00    +0.000 C 
ATOM     15  C   UNL     1      32.331  -5.735 -20.897  0.00  0.00    +0.000 C 
ATOM     16  C   UNL     1      32.860  -4.816 -25.845  0.00  0.00    +0.000 C 
ATOM     17  C   UNL     1      32.182  -3.719 -25.322  0.00  0.00    +0.000 C 
ENDBRANCH   5   9
BRANCH   4  19
ATOM     18 CL   UNL     1      34.526 -17.389 -24.265  0.00  0.00    -0.082 Cl
ATOM     19  C   UNL     1      33.728 -13.010 -23.530  0.00  0.00    +0.009 C 
ATOM     20  C   UNL     1      33.331 -13.600 -24.730  0.00  0.00    +0.001 C 
ATOM     21  C   UNL     1      34.371 -13.775 -22.557  0.00  0.00    +0.001 C 
ATOM     22  C   UNL     1      33.577 -14.954 -24.958  0.00  0.00    +0.011 C 
ATOM     23  C   UNL     1      34.618 -15.129 -22.784  0.00  0.00    +0.011 C 
ATOM     24  C   UNL     1      34.221 -15.718 -23.985  0.00  0.00    +0.058 C 
ENDBRANCH   4  19
BRANCH   6  25
ATOM     25  O   UNL     1      35.468 -10.565 -24.153  0.00  0.00    -0.503 OA
ATOM     26  H   UNL     1      36.011 -11.324 -24.063  0.00  0.00    +0.292 HD
ENDBRANCH   6  25
TORSDOF 3
ENDMDL
MODEL 4
REMARK VINA RESULT:     -10.5      8.362     12.103
REMARK  Name = 54682555
REMARK  3 active torsions:
REMARK  status: ('A' for Active; 'I' for Inactive)
REMARK    1  A    between atoms: C_4  and  C_19
REMARK    2  A    between atoms: C_5  and  C_9
REMARK    3  A    between atoms: C_6  and  O_25
REMARK                            x       y       z     vdW  Elec       q    Type
REMARK                         _______ _______ _______ _____ _____    ______ ____
ROOT
ATOM      1  O   UNL     1      35.127 -21.740 -18.396  0.00  0.00    -0.418 OA
ATOM      2  O   UNL     1      36.789 -20.640 -19.531  0.00  0.00    -0.244 OA
ATOM      3  C   UNL     1      33.755 -21.808 -18.610  0.00  0.00    +0.182 C 
ATOM      4  C   UNL     1      34.510 -20.443 -20.254  0.00  0.00    +0.113 C 
ATOM      5  C   UNL     1      32.960 -22.539 -17.821  0.00  0.00    +0.041 C 
ATOM      6  C   UNL     1      33.420 -21.008 -19.740  0.00  0.00    +0.175 C 
ATOM      7  C   UNL     1      35.609 -20.920 -19.387  0.00  0.00    +0.349 C 
ENDROOT
BRANCH   5   9
ATOM      8  C   UNL     1      32.502 -23.768 -15.672  0.00  0.00    +0.000 C 
ATOM      9  C   UNL     1      33.387 -23.340 -16.675  0.00  0.00    +0.003 C 
ATOM     10  C   UNL     1      32.998 -24.540 -14.595  0.00  0.00    +0.000 C 
ATOM     11  C   UNL     1      34.742 -23.667 -16.616  0.00  0.00    +0.000 C 
ATOM     12  C   UNL     1      31.136 -23.448 -15.715  0.00  0.00    +0.000 C 
ATOM     13  C   UNL     1      34.364 -24.861 -14.552  0.00  0.00    +0.000 C 
ATOM     14  C   UNL     1      32.113 -24.968 -13.591  0.00  0.00    +0.000 C 
ATOM     15  C   UNL     1      35.230 -24.426 -15.557  0.00  0.00    +0.000 C 
ATOM     16  C   UNL     1      30.270 -23.881 -14.711  0.00  0.00    +0.000 C 
ATOM     17  C   UNL     1      30.758 -24.640 -13.651  0.00  0.00    +0.000 C 
ENDBRANCH   5   9
BRANCH   4  19
ATOM     18 CL   UNL     1      35.009 -16.734 -24.909  0.00  0.00    -0.082 Cl
ATOM     19  C   UNL     1      34.632 -19.536 -21.394  0.00  0.00    +0.009 C 
ATOM     20  C   UNL     1      35.145 -18.251 -21.211  0.00  0.00    +0.001 C 
ATOM     21  C   UNL     1      34.236 -19.954 -22.664  0.00  0.00    +0.001 C 
ATOM     22  C   UNL     1      35.262 -17.385 -22.297  0.00  0.00    +0.011 C 
ATOM     23  C   UNL     1      34.353 -19.088 -23.751  0.00  0.00    +0.011 C 
ATOM     24  C   UNL     1      34.866 -17.803 -23.568  0.00  0.00    +0.058 C 
ENDBRANCH   4  19
BRANCH   6  25
ATOM     25  O   UNL     1      32.139 -20.843 -20.183  0.00  0.00    -0.503 OA
ATOM     26  H   UNL     1      31.457 -20.630 -19.575  0.00  0.00    +0.292 HD
ENDBRANCH   6  25
TORSDOF 3
ENDMDL
MODEL 5
REMARK VINA RESULT:     -10.2      7.692     12.185
REMARK  Name = 54682555
REMARK  3 active torsions:
REMARK  status: ('A' for Active; 'I' for Inactive)
REMARK    1  A    between atoms: C_4  and  C_19
REMARK    2  A    between atoms: C_5  and  C_9
REMARK    3  A    between atoms: C_6  and  O_25
REMARK                            x       y       z     vdW  Elec       q    Type
REMARK                         _______ _______ _______ _____ _____    ______ ____
ROOT
ATOM      1  O   UNL     1      33.914 -20.752 -20.548  0.00  0.00    -0.418 OA
ATOM      2  O   UNL     1      32.609 -22.163 -19.296  0.00  0.00    -0.244 OA
ATOM      3  C   UNL     1      35.241 -20.358 -20.410  0.00  0.00    +0.182 C 
ATOM      4  C   UNL     1      34.882 -21.745 -18.653  0.00  0.00    +0.113 C 
ATOM      5  C   UNL     1      35.817 -19.525 -21.283  0.00  0.00    +0.041 C 
ATOM      6  C   UNL     1      35.791 -20.976 -19.250  0.00  0.00    +0.175 C 
ATOM      7  C   UNL     1      33.675 -21.600 -19.494  0.00  0.00    +0.349 C 
ENDROOT
BRANCH   5   9
ATOM      8  C   UNL     1      34.893 -17.562 -22.560  0.00  0.00    +0.000 C 
ATOM      9  C   UNL     1      35.178 -18.933 -22.457  0.00  0.00    +0.003 C 
ATOM     10  C   UNL     1      34.272 -17.071 -23.733  0.00  0.00    +0.000 C 
ATOM     11  C   UNL     1      34.856 -19.808 -23.496  0.00  0.00    +0.000 C 
ATOM     12  C   UNL     1      35.210 -16.668 -21.525  0.00  0.00    +0.000 C 
ATOM     13  C   UNL     1      33.955 -17.965 -24.768  0.00  0.00    +0.000 C 
ATOM     14  C   UNL     1      33.985 -15.699 -23.835  0.00  0.00    +0.000 C 
ATOM     15  C   UNL     1      34.246 -19.324 -24.649  0.00  0.00    +0.000 C 
ATOM     16  C   UNL     1      34.918 -15.309 -21.643  0.00  0.00    +0.000 C 
ATOM     17  C   UNL     1      34.307 -14.826 -22.796  0.00  0.00    +0.000 C 
ENDBRANCH   5   9
BRANCH   4  19
ATOM     18 CL   UNL     1      35.375 -24.998 -13.668  0.00  0.00    -0.082 Cl
ATOM     19  C   UNL     1      35.003 -22.541 -17.433  0.00  0.00    +0.009 C 
ATOM     20  C   UNL     1      36.202 -22.549 -16.721  0.00  0.00    +0.001 C 
ATOM     21  C   UNL     1      33.918 -23.292 -16.981  0.00  0.00    +0.001 C 
ATOM     22  C   UNL     1      36.318 -23.308 -15.556  0.00  0.00    +0.011 C 
ATOM     23  C   UNL     1      34.033 -24.052 -15.816  0.00  0.00    +0.011 C 
ATOM     24  C   UNL     1      35.233 -24.060 -15.104  0.00  0.00    +0.058 C 
ENDBRANCH   4  19
BRANCH   6  25
ATOM     25  O   UNL     1      37.070 -20.757 -18.825  0.00  0.00    -0.503 OA
ATOM     26  H   UNL     1      37.320 -20.989 -17.952  0.00  0.00    +0.292 HD
ENDBRANCH   6  25
TORSDOF 3
ENDMDL
MODEL 6
REMARK VINA RESULT:     -10.0      9.605     13.746
REMARK  Name = 54682555
REMARK  3 active torsions:
REMARK  status: ('A' for Active; 'I' for Inactive)
REMARK    1  A    between atoms: C_4  and  C_19
REMARK    2  A    between atoms: C_5  and  C_9
REMARK    3  A    between atoms: C_6  and  O_25
REMARK                            x       y       z     vdW  Elec       q    Type
REMARK                         _______ _______ _______ _____ _____    ______ ____
ROOT
ATOM      1  O   UNL     1      35.619 -23.116 -17.172  0.00  0.00    -0.418 OA
ATOM      2  O   UNL     1      34.352 -23.150 -19.085  0.00  0.00    -0.244 OA
ATOM      3  C   UNL     1      36.553 -22.200 -16.702  0.00  0.00    +0.182 C 
ATOM      4  C   UNL     1      35.887 -21.348 -18.694  0.00  0.00    +0.113 C 
ATOM      5  C   UNL     1      37.170 -22.371 -15.528  0.00  0.00    +0.041 C 
ATOM      6  C   UNL     1      36.690 -21.147 -17.651  0.00  0.00    +0.175 C 
ATOM      7  C   UNL     1      35.196 -22.617 -18.380  0.00  0.00    +0.349 C 
ENDROOT
BRANCH   5   9
ATOM      8  C   UNL     1      37.947 -24.466 -14.369  0.00  0.00    +0.000 C 
ATOM      9  C   UNL     1      36.969 -23.486 -14.605  0.00  0.00    +0.003 C 
ATOM     10  C   UNL     1      37.670 -25.513 -13.458  0.00  0.00    +0.000 C 
ATOM     11  C   UNL     1      35.736 -23.538 -13.953  0.00  0.00    +0.000 C 
ATOM     12  C   UNL     1      39.192 -24.429 -15.015  0.00  0.00    +0.000 C 
ATOM     13  C   UNL     1      36.424 -25.551 -12.811  0.00  0.00    +0.000 C 
ATOM     14  C   UNL     1      38.648 -26.495 -13.222  0.00  0.00    +0.000 C 
ATOM     15  C   UNL     1      35.465 -24.569 -13.058  0.00  0.00    +0.000 C 
ATOM     16  C   UNL     1      40.152 -25.411 -14.769  0.00  0.00    +0.000 C 
ATOM     17  C   UNL     1      39.880 -26.442 -13.874  0.00  0.00    +0.000 C 
ENDBRANCH   5   9
BRANCH   4  19
ATOM     18 CL   UNL     1      35.193 -18.049 -23.624  0.00  0.00    -0.082 Cl
ATOM     19  C   UNL     1      35.717 -20.541 -19.901  0.00  0.00    +0.009 C 
ATOM     20  C   UNL     1      34.474 -20.481 -20.531  0.00  0.00    +0.001 C 
ATOM     21  C   UNL     1      36.798 -19.830 -20.422  0.00  0.00    +0.001 C 
ATOM     22  C   UNL     1      34.312 -19.711 -21.682  0.00  0.00    +0.011 C 
ATOM     23  C   UNL     1      36.636 -19.059 -21.573  0.00  0.00    +0.011 C 
ATOM     24  C   UNL     1      35.393 -19.000 -22.204  0.00  0.00    +0.058 C 
ENDBRANCH   4  19
BRANCH   6  25
ATOM     25  O   UNL     1      37.562 -20.109 -17.492  0.00  0.00    -0.503 OA
ATOM     26  H   UNL     1      37.739 -19.772 -16.634  0.00  0.00    +0.292 HD
ENDBRANCH   6  25
TORSDOF 3
ENDMDL
MODEL 7
REMARK VINA RESULT:      -9.7      8.351     12.333
REMARK  Name = 54682555
REMARK  3 active torsions:
REMARK  status: ('A' for Active; 'I' for Inactive)
REMARK    1  A    between atoms: C_4  and  C_19
REMARK    2  A    between atoms: C_5  and  C_9
REMARK    3  A    between atoms: C_6  and  O_25
REMARK                            x       y       z     vdW  Elec       q    Type
REMARK                         _______ _______ _______ _____ _____    ______ ____
ROOT
ATOM      1  O   UNL     1      34.114 -21.946 -18.507  0.00  0.00    -0.418 OA
ATOM      2  O   UNL     1      32.606 -21.180 -20.057  0.00  0.00    -0.244 OA
ATOM      3  C   UNL     1      35.463 -21.668 -18.319  0.00  0.00    +0.182 C 
ATOM      4  C   UNL     1      34.886 -20.437 -20.132  0.00  0.00    +0.113 C 
ATOM      5  C   UNL     1      36.158 -22.223 -17.320  0.00  0.00    +0.041 C 
ATOM      6  C   UNL     1      35.895 -20.755 -19.323  0.00  0.00    +0.175 C 
ATOM      7  C   UNL     1      33.740 -21.205 -19.601  0.00  0.00    +0.349 C 
ENDROOT
BRANCH   5   9
ATOM      8  C   UNL     1      36.462 -23.866 -15.437  0.00  0.00    +0.000 C 
ATOM      9  C   UNL     1      35.636 -23.156 -16.323  0.00  0.00    +0.003 C 
ATOM     10  C   UNL     1      35.874 -24.751 -14.502  0.00  0.00    +0.000 C 
ATOM     11  C   UNL     1      34.250 -23.316 -16.289  0.00  0.00    +0.000 C 
ATOM     12  C   UNL     1      37.858 -23.717 -15.457  0.00  0.00    +0.000 C 
ATOM     13  C   UNL     1      34.478 -24.900 -14.481  0.00  0.00    +0.000 C 
ATOM     14  C   UNL     1      36.700 -25.462 -13.616  0.00  0.00    +0.000 C 
ATOM     15  C   UNL     1      33.673 -24.187 -15.369  0.00  0.00    +0.000 C 
ATOM     16  C   UNL     1      38.663 -24.430 -14.570  0.00  0.00    +0.000 C 
ATOM     17  C   UNL     1      38.086 -25.301 -13.651  0.00  0.00    +0.000 C 
ENDBRANCH   5   9
BRANCH   4  19
ATOM     18 CL   UNL     1      34.858 -16.847 -24.905  0.00  0.00    -0.082 Cl
ATOM     19  C   UNL     1      34.879 -19.558 -21.301  0.00  0.00    +0.009 C 
ATOM     20  C   UNL     1      35.260 -18.223 -21.171  0.00  0.00    +0.001 C 
ATOM     21  C   UNL     1      34.491 -20.055 -22.544  0.00  0.00    +0.001 C 
ATOM     22  C   UNL     1      35.254 -17.384 -22.285  0.00  0.00    +0.011 C 
ATOM     23  C   UNL     1      34.485 -19.217 -23.659  0.00  0.00    +0.011 C 
ATOM     24  C   UNL     1      34.866 -17.881 -23.530  0.00  0.00    +0.058 C 
ENDBRANCH   4  19
BRANCH   6  25
ATOM     25  O   UNL     1      37.184 -20.315 -19.426  0.00  0.00    -0.503 OA
ATOM     26  H   UNL     1      37.357 -19.419 -19.642  0.00  0.00    +0.292 HD
ENDBRANCH   6  25
TORSDOF 3
ENDMDL
MODEL 8
REMARK VINA RESULT:      -9.7     10.387     14.492
REMARK  Name = 54682555
REMARK  3 active torsions:
REMARK  status: ('A' for Active; 'I' for Inactive)
REMARK    1  A    between atoms: C_4  and  C_19
REMARK    2  A    between atoms: C_5  and  C_9
REMARK    3  A    between atoms: C_6  and  O_25
REMARK                            x       y       z     vdW  Elec       q    Type
REMARK                         _______ _______ _______ _____ _____    ______ ____
ROOT
ATOM      1  O   UNL     1      36.280 -22.558 -15.683  0.00  0.00    -0.418 OA
ATOM      2  O   UNL     1      37.195 -20.830 -16.883  0.00  0.00    -0.244 OA
ATOM      3  C   UNL     1      35.241 -23.433 -15.976  0.00  0.00    +0.182 C 
ATOM      4  C   UNL     1      35.355 -22.075 -17.787  0.00  0.00    +0.113 C 
ATOM      5  C   UNL     1      34.879 -24.397 -15.123  0.00  0.00    +0.041 C 
ATOM      6  C   UNL     1      34.704 -23.107 -17.254  0.00  0.00    +0.175 C 
ATOM      7  C   UNL     1      36.372 -21.725 -16.772  0.00  0.00    +0.349 C 
ENDROOT
BRANCH   5   9
ATOM      8  C   UNL     1      36.792 -25.168 -13.679  0.00  0.00    +0.000 C 
ATOM      9  C   UNL     1      35.488 -24.669 -13.822  0.00  0.00    +0.003 C 
ATOM     10  C   UNL     1      37.304 -25.403 -12.381  0.00  0.00    +0.000 C 
ATOM     11  C   UNL     1      34.698 -24.406 -12.701  0.00  0.00    +0.000 C 
ATOM     12  C   UNL     1      37.599 -25.438 -14.795  0.00  0.00    +0.000 C 
ATOM     13  C   UNL     1      36.497 -25.133 -11.264  0.00  0.00    +0.000 C 
ATOM     14  C   UNL     1      38.610 -25.903 -12.238  0.00  0.00    +0.000 C 
ATOM     15  C   UNL     1      35.203 -24.637 -11.425  0.00  0.00    +0.000 C 
ATOM     16  C   UNL     1      38.893 -25.933 -14.635  0.00  0.00    +0.000 C 
ATOM     17  C   UNL     1      39.397 -26.166 -13.359  0.00  0.00    +0.000 C 
ENDBRANCH   5   9
BRANCH   4  19
ATOM     18 CL   UNL     1      34.432 -19.309 -22.999  0.00  0.00    -0.082 Cl
ATOM     19  C   UNL     1      35.129 -21.398 -19.062  0.00  0.00    +0.009 C 
ATOM     20  C   UNL     1      33.828 -21.165 -19.508  0.00  0.00    +0.001 C 
ATOM     21  C   UNL     1      36.215 -20.986 -19.834  0.00  0.00    +0.001 C 
ATOM     22  C   UNL     1      33.612 -20.519 -20.725  0.00  0.00    +0.011 C 
ATOM     23  C   UNL     1      36.000 -20.339 -21.052  0.00  0.00    +0.011 C 
ATOM     24  C   UNL     1      34.698 -20.106 -21.497  0.00  0.00    +0.058 C 
ENDBRANCH   4  19
BRANCH   6  25
ATOM     25  O   UNL     1      33.644 -23.768 -17.807  0.00  0.00    -0.503 OA
ATOM     26  H   UNL     1      33.046 -23.309 -18.366  0.00  0.00    +0.292 HD
ENDBRANCH   6  25
TORSDOF 3
ENDMDL
MODEL 9
REMARK VINA RESULT:      -9.6      1.275      2.667
REMARK  Name = 54682555
REMARK  3 active torsions:
REMARK  status: ('A' for Active; 'I' for Inactive)
REMARK    1  A    between atoms: C_4  and  C_19
REMARK    2  A    between atoms: C_5  and  C_9
REMARK    3  A    between atoms: C_6  and  O_25
REMARK                            x       y       z     vdW  Elec       q    Type
REMARK                         _______ _______ _______ _____ _____    ______ ____
ROOT
ATOM      1  O   UNL     1      34.208 -10.822 -22.998  0.00  0.00    -0.418 OA
ATOM      2  O   UNL     1      35.402  -9.018 -23.760  0.00  0.00    -0.244 OA
ATOM      3  C   UNL     1      32.852 -10.985 -22.735  0.00  0.00    +0.182 C 
ATOM      4  C   UNL     1      33.035  -8.831 -23.417  0.00  0.00    +0.113 C 
ATOM      5  C   UNL     1      32.359 -12.152 -22.307  0.00  0.00    +0.041 C 
ATOM      6  C   UNL     1      32.177  -9.759 -22.996  0.00  0.00    +0.175 C 
ATOM      7  C   UNL     1      34.343  -9.522 -23.419  0.00  0.00    +0.349 C 
ENDROOT
BRANCH   5   9
ATOM      8  C   UNL     1      33.491 -14.261 -23.090  0.00  0.00    +0.000 C 
ATOM      9  C   UNL     1      33.125 -13.373 -22.065  0.00  0.00    +0.003 C 
ATOM     10  C   UNL     1      34.233 -15.422 -22.767  0.00  0.00    +0.000 C 
ATOM     11  C   UNL     1      33.486 -13.627 -20.740  0.00  0.00    +0.000 C 
ATOM     12  C   UNL     1      33.136 -14.022 -24.427  0.00  0.00    +0.000 C 
ATOM     13  C   UNL     1      34.588 -15.661 -21.430  0.00  0.00    +0.000 C 
ATOM     14  C   UNL     1      34.598 -16.310 -23.792  0.00  0.00    +0.000 C 
ATOM     15  C   UNL     1      34.216 -14.768 -20.424  0.00  0.00    +0.000 C 
ATOM     16  C   UNL     1      33.507 -14.914 -25.433  0.00  0.00    +0.000 C 
ATOM     17  C   UNL     1      34.237 -16.056 -25.116  0.00  0.00    +0.000 C 
ENDBRANCH   5   9
BRANCH   4  19
ATOM     18 CL   UNL     1      32.021  -3.131 -24.883  0.00  0.00    -0.082 Cl
ATOM     19  C   UNL     1      32.787  -7.436 -23.776  0.00  0.00    +0.009 C 
ATOM     20  C   UNL     1      32.524  -6.496 -22.780  0.00  0.00    +0.001 C 
ATOM     21  C   UNL     1      32.813  -7.045 -25.114  0.00  0.00    +0.001 C 
ATOM     22  C   UNL     1      32.287  -5.164 -23.122  0.00  0.00    +0.011 C 
ATOM     23  C   UNL     1      32.577  -5.714 -25.457  0.00  0.00    +0.011 C 
ATOM     24  C   UNL     1      32.313  -4.774 -24.461  0.00  0.00    +0.058 C 
ENDBRANCH   4  19
BRANCH   6  25
ATOM     25  O   UNL     1      30.837  -9.589 -22.798  0.00  0.00    -0.503 OA
ATOM     26  H   UNL     1      30.453  -8.738 -22.889  0.00  0.00    +0.292 HD
ENDBRANCH   6  25
TORSDOF 3
ENDMDL
