MODEL 1
REMARK VINA RESULT:     -11.8      0.000      0.000
REMARK  Name = 9963057
REMARK  12 active torsions:
REMARK  status: ('A' for Active; 'I' for Inactive)
REMARK    1  A    between atoms: N_1  and  C_4
REMARK    2  A    between atoms: N_1  and  C_21
REMARK    3  A    between atoms: C_12  and  O_14
REMARK    4  A    between atoms: O_14  and  C_15
REMARK    5  A    between atoms: C_15  and  C_18
REMARK    6  A    between atoms: C_21  and  C_22
REMARK    7  A    between atoms: C_22  and  C_23
REMARK    8  A    between atoms: C_22  and  O_35
REMARK    9  A    between atoms: C_26  and  C_31
REMARK   10  A    between atoms: C_28  and  O_29
REMARK   11  A    between atoms: C_31  and  C_32
REMARK   12  A    between atoms: C_32  and  O_33
REMARK                            x       y       z     vdW  Elec       q    Type
REMARK                         _______ _______ _______ _____ _____    ______ ____
ROOT
ATOM      1  N   UNL     1      32.914 -22.796 -18.369  0.00  0.00    +0.387 N 
ATOM      2  H   UNL     1      32.727 -23.367 -19.192  0.00  0.00    -0.084 HD
ATOM      3  H   UNL     1      32.061 -22.327 -18.061  0.00  0.00    -0.084 HD
ENDROOT
BRANCH   1   4
ATOM      4  C   UNL     1      33.911 -21.780 -18.706  0.00  0.00    -0.057 C 
ATOM      5  C   UNL     1      35.315 -22.384 -18.649  0.00  0.00    -0.016 C 
ATOM      6  C   UNL     1      33.642 -21.209 -20.104  0.00  0.00    +0.005 C 
ATOM      7  C   UNL     1      36.369 -21.303 -18.889  0.00  0.00    +0.024 C 
ATOM      8  C   UNL     1      34.767 -20.341 -20.615  0.00  0.00    -0.025 C 
ATOM      9  C   UNL     1      36.061 -20.416 -20.069  0.00  0.00    -0.026 C 
ATOM     10  C   UNL     1      34.525 -19.483 -21.699  0.00  0.00    +0.032 C 
ATOM     11  C   UNL     1      37.078 -19.606 -20.595  0.00  0.00    -0.001 C 
ATOM     12  C   UNL     1      35.548 -18.690 -22.220  0.00  0.00    +0.139 C 
ATOM     13  C   UNL     1      36.823 -18.750 -21.665  0.00  0.00    +0.037 C 
BRANCH  12  14
ATOM     14  O   UNL     1      35.300 -17.860 -23.268  0.00  0.00    -0.466 OA
BRANCH  14  15
ATOM     15  C   UNL     1      34.934 -16.516 -22.960  0.00  0.00    +0.290 C 
BRANCH  15  18
ATOM     16  O   UNL     1      34.284 -16.499 -25.239  0.00  0.00    -0.271 OA
ATOM     17  N   UNL     1      33.848 -14.557 -24.043  0.00  0.00    -0.273 N 
ATOM     18  C   UNL     1      34.330 -15.859 -24.184  0.00  0.00    +0.270 C 
ATOM     19  C   UNL     1      33.250 -13.886 -25.190  0.00  0.00    +0.115 C 
ATOM     20  C   UNL     1      33.871 -13.774 -22.810  0.00  0.00    +0.115 C 
ENDBRANCH  15  18
ENDBRANCH  14  15
ENDBRANCH  12  14
ENDBRANCH   1   4
BRANCH   1  21
ATOM     21  C   UNL     1      33.392 -23.650 -17.293  0.00  0.00    -0.047 C 
BRANCH  21  22
ATOM     22  C   UNL     1      32.968 -23.096 -15.927  0.00  0.00    +0.112 C 
BRANCH  22  23
ATOM     23  C   UNL     1      31.784 -23.852 -15.365  0.00  0.00    +0.002 C 
ATOM     24  C   UNL     1      30.514 -23.661 -15.908  0.00  0.00    -0.003 C 
ATOM     25  C   UNL     1      31.964 -24.740 -14.305  0.00  0.00    +0.001 C 
ATOM     26  C   UNL     1      29.423 -24.359 -15.390  0.00  0.00    +0.014 C 
ATOM     27  C   UNL     1      30.872 -25.436 -13.786  0.00  0.00    +0.036 C 
ATOM     28  C   UNL     1      29.602 -25.245 -14.329  0.00  0.00    +0.130 C 
BRANCH  28  29
ATOM     29  O   UNL     1      28.547 -25.935 -13.811  0.00  0.00    -0.506 OA
ATOM     30  H   UNL     1      28.375 -26.812 -14.095  0.00  0.00    +0.292 HD
ENDBRANCH  28  29
BRANCH  26  31
ATOM     31  C   UNL     1      28.070 -24.143 -15.983  0.00  0.00    +0.061 C 
BRANCH  31  32
ATOM     32  C   UNL     1      27.446 -22.806 -15.574  0.00  0.00    +0.142 C 
BRANCH  32  33
ATOM     33  O   UNL     1      27.345 -21.959 -16.711  0.00  0.00    -0.382 OA
ATOM     34  H   UNL     1      28.235 -21.735 -17.028  0.00  0.00    +0.210 HD
ENDBRANCH  32  33
ENDBRANCH  31  32
ENDBRANCH  26  31
ENDBRANCH  22  23
BRANCH  22  35
ATOM     35  O   UNL     1      34.045 -23.196 -14.996  0.00  0.00    -0.382 OA
ATOM     36  H   UNL     1      34.067 -22.399 -14.442  0.00  0.00    +0.211 HD
ENDBRANCH  22  35
ENDBRANCH  21  22
ENDBRANCH   1  21
TORSDOF 12
ENDMDL
MODEL 2
REMARK VINA RESULT:     -11.2      3.653     10.923
REMARK  Name = 9963057
REMARK  12 active torsions:
REMARK  status: ('A' for Active; 'I' for Inactive)
REMARK    1  A    between atoms: N_1  and  C_4
REMARK    2  A    between atoms: N_1  and  C_21
REMARK    3  A    between atoms: C_12  and  O_14
REMARK    4  A    between atoms: O_14  and  C_15
REMARK    5  A    between atoms: C_15  and  C_18
REMARK    6  A    between atoms: C_21  and  C_22
REMARK    7  A    between atoms: C_22  and  C_23
REMARK    8  A    between atoms: C_22  and  O_35
REMARK    9  A    between atoms: C_26  and  C_31
REMARK   10  A    between atoms: C_28  and  O_29
REMARK   11  A    between atoms: C_31  and  C_32
REMARK   12  A    between atoms: C_32  and  O_33
REMARK                            x       y       z     vdW  Elec       q    Type
REMARK                         _______ _______ _______ _____ _____    ______ ____
ROOT
ATOM      1  N   UNL     1      35.625 -21.576 -19.836  0.00  0.00    +0.387 N 
ATOM      2  H   UNL     1      35.614 -22.398 -20.439  0.00  0.00    -0.084 HD
ATOM      3  H   UNL     1      36.586 -21.301 -19.628  0.00  0.00    -0.084 HD
ENDROOT
BRANCH   1   4
ATOM      4  C   UNL     1      34.947 -21.894 -18.580  0.00  0.00    -0.057 C 
ATOM      5  C   UNL     1      33.936 -23.020 -18.799  0.00  0.00    -0.016 C 
ATOM      6  C   UNL     1      35.967 -22.307 -17.510  0.00  0.00    +0.005 C 
ATOM      7  C   UNL     1      33.143 -23.281 -17.518  0.00  0.00    +0.024 C 
ATOM      8  C   UNL     1      35.325 -22.883 -16.272  0.00  0.00    -0.025 C 
ATOM      9  C   UNL     1      34.009 -23.379 -16.287  0.00  0.00    -0.026 C 
ATOM     10  C   UNL     1      36.082 -22.978 -15.094  0.00  0.00    +0.032 C 
ATOM     11  C   UNL     1      33.465 -23.927 -15.116  0.00  0.00    -0.001 C 
ATOM     12  C   UNL     1      35.534 -23.535 -13.938  0.00  0.00    +0.139 C 
ATOM     13  C   UNL     1      34.224 -24.006 -13.950  0.00  0.00    +0.037 C 
BRANCH  12  14
ATOM     14  O   UNL     1      36.278 -23.616 -12.803  0.00  0.00    -0.466 OA
BRANCH  14  15
ATOM     15  C   UNL     1      36.783 -24.902 -12.448  0.00  0.00    +0.290 C 
BRANCH  15  18
ATOM     16  O   UNL     1      39.061 -24.267 -12.296  0.00  0.00    -0.271 OA
ATOM     17  N   UNL     1      38.574 -25.947 -13.823  0.00  0.00    -0.273 N 
ATOM     18  C   UNL     1      38.240 -25.006 -12.848  0.00  0.00    +0.270 C 
ATOM     19  C   UNL     1      39.964 -26.090 -14.235  0.00  0.00    +0.115 C 
ATOM     20  C   UNL     1      37.634 -26.846 -14.488  0.00  0.00    +0.115 C 
ENDBRANCH  15  18
ENDBRANCH  14  15
ENDBRANCH  12  14
ENDBRANCH   1   4
BRANCH   1  21
ATOM     21  C   UNL     1      34.961 -20.475 -20.516  0.00  0.00    -0.047 C 
BRANCH  21  22
ATOM     22  C   UNL     1      35.980 -19.583 -21.235  0.00  0.00    +0.112 C 
BRANCH  22  23
ATOM     23  C   UNL     1      35.332 -18.784 -22.345  0.00  0.00    +0.002 C 
ATOM     24  C   UNL     1      35.378 -17.391 -22.319  0.00  0.00    -0.003 C 
ATOM     25  C   UNL     1      34.688 -19.442 -23.393  0.00  0.00    +0.001 C 
ATOM     26  C   UNL     1      34.781 -16.654 -23.342  0.00  0.00    +0.014 C 
ATOM     27  C   UNL     1      34.090 -18.706 -24.415  0.00  0.00    +0.036 C 
ATOM     28  C   UNL     1      34.136 -17.312 -24.389  0.00  0.00    +0.130 C 
BRANCH  28  29
ATOM     29  O   UNL     1      33.548 -16.608 -25.397  0.00  0.00    -0.506 OA
ATOM     30  H   UNL     1      32.870 -17.001 -25.910  0.00  0.00    +0.292 HD
ENDBRANCH  28  29
BRANCH  26  31
ATOM     31  C   UNL     1      34.840 -15.163 -23.299  0.00  0.00    +0.061 C 
BRANCH  31  32
ATOM     32  C   UNL     1      33.555 -14.532 -22.757  0.00  0.00    +0.142 C 
BRANCH  32  33
ATOM     33  O   UNL     1      32.694 -14.200 -23.839  0.00  0.00    -0.382 OA
ATOM     34  H   UNL     1      31.773 -14.371 -23.583  0.00  0.00    +0.210 HD
ENDBRANCH  32  33
ENDBRANCH  31  32
ENDBRANCH  26  31
ENDBRANCH  22  23
BRANCH  22  35
ATOM     35  O   UNL     1      36.575 -18.668 -20.315  0.00  0.00    -0.382 OA
ATOM     36  H   UNL     1      36.449 -18.993 -19.410  0.00  0.00    +0.211 HD
ENDBRANCH  22  35
ENDBRANCH  21  22
ENDBRANCH   1  21
TORSDOF 12
ENDMDL
MODEL 3
REMARK VINA RESULT:     -10.8      2.810     10.544
REMARK  Name = 9963057
REMARK  12 active torsions:
REMARK  status: ('A' for Active; 'I' for Inactive)
REMARK    1  A    between atoms: N_1  and  C_4
REMARK    2  A    between atoms: N_1  and  C_21
REMARK    3  A    between atoms: C_12  and  O_14
REMARK    4  A    between atoms: O_14  and  C_15
REMARK    5  A    between atoms: C_15  and  C_18
REMARK    6  A    between atoms: C_21  and  C_22
REMARK    7  A    between atoms: C_22  and  C_23
REMARK    8  A    between atoms: C_22  and  O_35
REMARK    9  A    between atoms: C_26  and  C_31
REMARK   10  A    between atoms: C_28  and  O_29
REMARK   11  A    between atoms: C_31  and  C_32
REMARK   12  A    between atoms: C_32  and  O_33
REMARK                            x       y       z     vdW  Elec       q    Type
REMARK                         _______ _______ _______ _____ _____    ______ ____
ROOT
ATOM      1  N   UNL     1      35.464 -17.777 -23.054  0.00  0.00    +0.387 N 
ATOM      2  H   UNL     1      34.771 -17.997 -23.769  0.00  0.00    -0.084 HD
ATOM      3  H   UNL     1      36.348 -17.508 -23.487  0.00  0.00    -0.084 HD
ENDROOT
BRANCH   1   4
ATOM      4  C   UNL     1      35.689 -18.960 -22.225  0.00  0.00    -0.057 C 
ATOM      5  C   UNL     1      36.820 -18.697 -21.230  0.00  0.00    -0.016 C 
ATOM      6  C   UNL     1      34.407 -19.339 -21.472  0.00  0.00    +0.005 C 
ATOM      7  C   UNL     1      37.138 -19.965 -20.437  0.00  0.00    +0.024 C 
ATOM      8  C   UNL     1      34.630 -20.394 -20.416  0.00  0.00    -0.025 C 
ATOM      9  C   UNL     1      35.912 -20.659 -19.900  0.00  0.00    -0.026 C 
ATOM     10  C   UNL     1      33.523 -21.083 -19.897  0.00  0.00    +0.032 C 
ATOM     11  C   UNL     1      36.064 -21.633 -18.902  0.00  0.00    -0.001 C 
ATOM     12  C   UNL     1      33.687 -22.041 -18.897  0.00  0.00    +0.139 C 
ATOM     13  C   UNL     1      34.958 -22.317 -18.402  0.00  0.00    +0.037 C 
BRANCH  12  14
ATOM     14  O   UNL     1      32.605 -22.705 -18.406  0.00  0.00    -0.466 OA
BRANCH  14  15
ATOM     15  C   UNL     1      32.756 -23.348 -17.142  0.00  0.00    +0.290 C 
BRANCH  15  18
ATOM     16  O   UNL     1      30.506 -22.663 -16.857  0.00  0.00    -0.271 OA
ATOM     17  N   UNL     1      31.552 -23.525 -14.972  0.00  0.00    -0.273 N 
ATOM     18  C   UNL     1      31.505 -23.144 -16.314  0.00  0.00    +0.270 C 
ATOM     19  C   UNL     1      30.370 -23.357 -14.137  0.00  0.00    +0.115 C 
ATOM     20  C   UNL     1      32.709 -24.111 -14.299  0.00  0.00    +0.115 C 
ENDBRANCH  15  18
ENDBRANCH  14  15
ENDBRANCH  12  14
ENDBRANCH   1   4
BRANCH   1  21
ATOM     21  C   UNL     1      34.982 -16.667 -22.247  0.00  0.00    -0.047 C 
BRANCH  21  22
ATOM     22  C   UNL     1      34.373 -15.573 -23.133  0.00  0.00    +0.112 C 
BRANCH  22  23
ATOM     23  C   UNL     1      33.655 -14.528 -22.307  0.00  0.00    +0.002 C 
ATOM     24  C   UNL     1      33.141 -13.386 -22.923  0.00  0.00    -0.003 C 
ATOM     25  C   UNL     1      33.508 -14.705 -20.932  0.00  0.00    +0.001 C 
ATOM     26  C   UNL     1      32.479 -12.422 -22.162  0.00  0.00    +0.014 C 
ATOM     27  C   UNL     1      32.848 -13.741 -20.171  0.00  0.00    +0.036 C 
ATOM     28  C   UNL     1      32.334 -12.599 -20.786  0.00  0.00    +0.130 C 
BRANCH  28  29
ATOM     29  O   UNL     1      31.690 -11.668 -20.028  0.00  0.00    -0.506 OA
ATOM     30  H   UNL     1      31.036 -11.935 -19.412  0.00  0.00    +0.292 HD
ENDBRANCH  28  29
BRANCH  26  31
ATOM     31  C   UNL     1      31.934 -11.207 -22.836  0.00  0.00    +0.061 C 
BRANCH  31  32
ATOM     32  C   UNL     1      32.910 -10.027 -22.816  0.00  0.00    +0.142 C 
BRANCH  32  33
ATOM     33  O   UNL     1      32.587  -9.159 -21.737  0.00  0.00    -0.382 OA
ATOM     34  H   UNL     1      31.944  -8.496 -22.037  0.00  0.00    +0.210 HD
ENDBRANCH  32  33
ENDBRANCH  31  32
ENDBRANCH  26  31
ENDBRANCH  22  23
BRANCH  22  35
ATOM     35  O   UNL     1      35.392 -14.922 -23.889  0.00  0.00    -0.382 OA
ATOM     36  H   UNL     1      35.003 -14.192 -24.395  0.00  0.00    +0.211 HD
ENDBRANCH  22  35
ENDBRANCH  21  22
ENDBRANCH   1  21
TORSDOF 12
ENDMDL
MODEL 4
REMARK VINA RESULT:     -10.6      2.089      4.174
REMARK  Name = 9963057
REMARK  12 active torsions:
REMARK  status: ('A' for Active; 'I' for Inactive)
REMARK    1  A    between atoms: N_1  and  C_4
REMARK    2  A    between atoms: N_1  and  C_21
REMARK    3  A    between atoms: C_12  and  O_14
REMARK    4  A    between atoms: O_14  and  C_15
REMARK    5  A    between atoms: C_15  and  C_18
REMARK    6  A    between atoms: C_21  and  C_22
REMARK    7  A    between atoms: C_22  and  C_23
REMARK    8  A    between atoms: C_22  and  O_35
REMARK    9  A    between atoms: C_26  and  C_31
REMARK   10  A    between atoms: C_28  and  O_29
REMARK   11  A    between atoms: C_31  and  C_32
REMARK   12  A    between atoms: C_32  and  O_33
REMARK                            x       y       z     vdW  Elec       q    Type
REMARK                         _______ _______ _______ _____ _____    ______ ____
ROOT
ATOM      1  N   UNL     1      32.845 -22.900 -18.339  0.00  0.00    +0.387 N 
ATOM      2  H   UNL     1      33.327 -23.798 -18.378  0.00  0.00    -0.084 HD
ATOM      3  H   UNL     1      32.049 -22.896 -18.979  0.00  0.00    -0.084 HD
ENDROOT
BRANCH   1   4
ATOM      4  C   UNL     1      33.772 -21.841 -18.738  0.00  0.00    -0.057 C 
ATOM      5  C   UNL     1      35.206 -22.373 -18.743  0.00  0.00    -0.016 C 
ATOM      6  C   UNL     1      33.407 -21.307 -20.129  0.00  0.00    +0.005 C 
ATOM      7  C   UNL     1      36.190 -21.244 -19.048  0.00  0.00    +0.024 C 
ATOM      8  C   UNL     1      34.460 -20.391 -20.706  0.00  0.00    -0.025 C 
ATOM      9  C   UNL     1      35.781 -20.392 -20.223  0.00  0.00    -0.026 C 
ATOM     10  C   UNL     1      34.123 -19.563 -21.788  0.00  0.00    +0.032 C 
ATOM     11  C   UNL     1      36.729 -19.540 -20.808  0.00  0.00    -0.001 C 
ATOM     12  C   UNL     1      35.078 -18.728 -22.369  0.00  0.00    +0.139 C 
ATOM     13  C   UNL     1      36.380 -18.716 -21.876  0.00  0.00    +0.037 C 
BRANCH  12  14
ATOM     14  O   UNL     1      34.737 -17.928 -23.414  0.00  0.00    -0.466 OA
BRANCH  14  15
ATOM     15  C   UNL     1      34.977 -16.530 -23.268  0.00  0.00    +0.290 C 
BRANCH  15  18
ATOM     16  O   UNL     1      33.882 -16.352 -25.361  0.00  0.00    -0.271 OA
ATOM     17  N   UNL     1      33.891 -14.433 -24.053  0.00  0.00    -0.273 N 
ATOM     18  C   UNL     1      34.204 -15.766 -24.323  0.00  0.00    +0.270 C 
ATOM     19  C   UNL     1      33.141 -13.660 -25.034  0.00  0.00    +0.115 C 
ATOM     20  C   UNL     1      34.243 -13.712 -22.832  0.00  0.00    +0.115 C 
ENDBRANCH  15  18
ENDBRANCH  14  15
ENDBRANCH  12  14
ENDBRANCH   1   4
BRANCH   1  21
ATOM     21  C   UNL     1      32.358 -22.676 -16.987  0.00  0.00    -0.047 C 
BRANCH  21  22
ATOM     22  C   UNL     1      32.371 -23.980 -16.180  0.00  0.00    +0.112 C 
BRANCH  22  23
ATOM     23  C   UNL     1      33.424 -23.950 -15.094  0.00  0.00    +0.002 C 
ATOM     24  C   UNL     1      34.728 -23.562 -15.399  0.00  0.00    -0.003 C 
ATOM     25  C   UNL     1      33.090 -24.309 -13.788  0.00  0.00    +0.001 C 
ATOM     26  C   UNL     1      35.699 -23.534 -14.397  0.00  0.00    +0.014 C 
ATOM     27  C   UNL     1      34.061 -24.282 -12.787  0.00  0.00    +0.036 C 
ATOM     28  C   UNL     1      35.365 -23.894 -13.092  0.00  0.00    +0.130 C 
BRANCH  28  29
ATOM     29  O   UNL     1      36.301 -23.871 -12.102  0.00  0.00    -0.506 OA
ATOM     30  H   UNL     1      37.041 -24.446 -12.143  0.00  0.00    +0.292 HD
ENDBRANCH  28  29
BRANCH  26  31
ATOM     31  C   UNL     1      37.091 -23.116 -14.741  0.00  0.00    +0.061 C 
BRANCH  31  32
ATOM     32  C   UNL     1      38.039 -24.304 -14.932  0.00  0.00    +0.142 C 
BRANCH  32  33
ATOM     33  O   UNL     1      38.755 -24.540 -13.726  0.00  0.00    -0.382 OA
ATOM     34  H   UNL     1      38.193 -24.316 -12.967  0.00  0.00    +0.210 HD
ENDBRANCH  32  33
ENDBRANCH  31  32
ENDBRANCH  26  31
ENDBRANCH  22  23
BRANCH  22  35
ATOM     35  O   UNL     1      31.101 -24.195 -15.565  0.00  0.00    -0.382 OA
ATOM     36  H   UNL     1      30.399 -23.880 -16.155  0.00  0.00    +0.211 HD
ENDBRANCH  22  35
ENDBRANCH  21  22
ENDBRANCH   1  21
TORSDOF 12
ENDMDL
MODEL 5
REMARK VINA RESULT:     -10.4      2.377      4.356
REMARK  Name = 9963057
REMARK  12 active torsions:
REMARK  status: ('A' for Active; 'I' for Inactive)
REMARK    1  A    between atoms: N_1  and  C_4
REMARK    2  A    between atoms: N_1  and  C_21
REMARK    3  A    between atoms: C_12  and  O_14
REMARK    4  A    between atoms: O_14  and  C_15
REMARK    5  A    between atoms: C_15  and  C_18
REMARK    6  A    between atoms: C_21  and  C_22
REMARK    7  A    between atoms: C_22  and  C_23
REMARK    8  A    between atoms: C_22  and  O_35
REMARK    9  A    between atoms: C_26  and  C_31
REMARK   10  A    between atoms: C_28  and  O_29
REMARK   11  A    between atoms: C_31  and  C_32
REMARK   12  A    between atoms: C_32  and  O_33
REMARK                            x       y       z     vdW  Elec       q    Type
REMARK                         _______ _______ _______ _____ _____    ______ ____
ROOT
ATOM      1  N   UNL     1      32.872 -22.831 -18.323  0.00  0.00    +0.387 N 
ATOM      2  H   UNL     1      33.288 -23.746 -18.495  0.00  0.00    -0.084 HD
ATOM      3  H   UNL     1      32.010 -22.727 -18.860  0.00  0.00    -0.084 HD
ENDROOT
BRANCH   1   4
ATOM      4  C   UNL     1      33.811 -21.791 -18.739  0.00  0.00    -0.057 C 
ATOM      5  C   UNL     1      35.219 -22.376 -18.868  0.00  0.00    -0.016 C 
ATOM      6  C   UNL     1      33.374 -21.178 -20.076  0.00  0.00    +0.005 C 
ATOM      7  C   UNL     1      36.226 -21.272 -19.192  0.00  0.00    +0.024 C 
ATOM      8  C   UNL     1      34.421 -20.277 -20.684  0.00  0.00    -0.025 C 
ATOM      9  C   UNL     1      35.772 -20.351 -20.297  0.00  0.00    -0.026 C 
ATOM     10  C   UNL     1      34.045 -19.387 -21.703  0.00  0.00    +0.032 C 
ATOM     11  C   UNL     1      36.712 -19.509 -20.909  0.00  0.00    -0.001 C 
ATOM     12  C   UNL     1      34.991 -18.562 -22.311  0.00  0.00    +0.139 C 
ATOM     13  C   UNL     1      36.323 -18.622 -21.912  0.00  0.00    +0.037 C 
BRANCH  12  14
ATOM     14  O   UNL     1      34.612 -17.702 -23.294  0.00  0.00    -0.466 OA
BRANCH  14  15
ATOM     15  C   UNL     1      35.316 -16.464 -23.381  0.00  0.00    +0.290 C 
BRANCH  15  18
ATOM     16  O   UNL     1      34.618 -15.154 -21.534  0.00  0.00    -0.271 OA
ATOM     17  N   UNL     1      33.638 -14.637 -23.574  0.00  0.00    -0.273 N 
ATOM     18  C   UNL     1      34.493 -15.363 -22.744  0.00  0.00    +0.270 C 
ATOM     19  C   UNL     1      32.832 -13.563 -23.009  0.00  0.00    +0.115 C 
ATOM     20  C   UNL     1      33.474 -14.846 -25.010  0.00  0.00    +0.115 C 
ENDBRANCH  15  18
ENDBRANCH  14  15
ENDBRANCH  12  14
ENDBRANCH   1   4
BRANCH   1  21
ATOM     21  C   UNL     1      32.558 -22.707 -16.908  0.00  0.00    -0.047 C 
BRANCH  21  22
ATOM     22  C   UNL     1      32.941 -23.984 -16.151  0.00  0.00    +0.112 C 
BRANCH  22  23
ATOM     23  C   UNL     1      34.205 -23.792 -15.343  0.00  0.00    +0.002 C 
ATOM     24  C   UNL     1      34.173 -23.930 -13.955  0.00  0.00    -0.003 C 
ATOM     25  C   UNL     1      35.403 -23.476 -15.985  0.00  0.00    +0.001 C 
ATOM     26  C   UNL     1      35.340 -23.753 -13.210  0.00  0.00    +0.014 C 
ATOM     27  C   UNL     1      36.568 -23.298 -15.240  0.00  0.00    +0.036 C 
ATOM     28  C   UNL     1      36.536 -23.436 -13.853  0.00  0.00    +0.130 C 
BRANCH  28  29
ATOM     29  O   UNL     1      37.684 -23.260 -13.140  0.00  0.00    -0.506 OA
ATOM     30  H   UNL     1      37.907 -22.410 -12.813  0.00  0.00    +0.292 HD
ENDBRANCH  28  29
BRANCH  26  31
ATOM     31  C   UNL     1      35.288 -23.904 -11.726  0.00  0.00    +0.061 C 
BRANCH  31  32
ATOM     32  C   UNL     1      35.733 -25.291 -11.253  0.00  0.00    +0.142 C 
BRANCH  32  33
ATOM     33  O   UNL     1      35.334 -25.484  -9.902  0.00  0.00    -0.382 OA
ATOM     34  H   UNL     1      34.376 -25.348  -9.825  0.00  0.00    +0.210 HD
ENDBRANCH  32  33
ENDBRANCH  31  32
ENDBRANCH  26  31
ENDBRANCH  22  23
BRANCH  22  35
ATOM     35  O   UNL     1      31.894 -24.364 -15.258  0.00  0.00    -0.382 OA
ATOM     36  H   UNL     1      32.145 -24.132 -14.350  0.00  0.00    +0.211 HD
ENDBRANCH  22  35
ENDBRANCH  21  22
ENDBRANCH   1  21
TORSDOF 12
ENDMDL
MODEL 6
REMARK VINA RESULT:     -10.4      4.237      7.893
REMARK  Name = 9963057
REMARK  12 active torsions:
REMARK  status: ('A' for Active; 'I' for Inactive)
REMARK    1  A    between atoms: N_1  and  C_4
REMARK    2  A    between atoms: N_1  and  C_21
REMARK    3  A    between atoms: C_12  and  O_14
REMARK    4  A    between atoms: O_14  and  C_15
REMARK    5  A    between atoms: C_15  and  C_18
REMARK    6  A    between atoms: C_21  and  C_22
REMARK    7  A    between atoms: C_22  and  C_23
REMARK    8  A    between atoms: C_22  and  O_35
REMARK    9  A    between atoms: C_26  and  C_31
REMARK   10  A    between atoms: C_28  and  O_29
REMARK   11  A    between atoms: C_31  and  C_32
REMARK   12  A    between atoms: C_32  and  O_33
REMARK                            x       y       z     vdW  Elec       q    Type
REMARK                         _______ _______ _______ _____ _____    ______ ____
ROOT
ATOM      1  N   UNL     1      35.607 -16.823 -22.452  0.00  0.00    +0.387 N 
ATOM      2  H   UNL     1      36.454 -16.265 -22.556  0.00  0.00    -0.084 HD
ATOM      3  H   UNL     1      35.371 -17.279 -23.334  0.00  0.00    -0.084 HD
ENDROOT
BRANCH   1   4
ATOM      4  C   UNL     1      34.500 -15.947 -22.068  0.00  0.00    -0.057 C 
ATOM      5  C   UNL     1      34.541 -15.679 -20.562  0.00  0.00    -0.016 C 
ATOM      6  C   UNL     1      34.573 -14.623 -22.838  0.00  0.00    +0.005 C 
ATOM      7  C   UNL     1      33.324 -14.858 -20.135  0.00  0.00    +0.024 C 
ATOM      8  C   UNL     1      33.614 -13.581 -22.316  0.00  0.00    -0.025 C 
ATOM      9  C   UNL     1      33.058 -13.671 -21.027  0.00  0.00    -0.026 C 
ATOM     10  C   UNL     1      33.317 -12.467 -23.117  0.00  0.00    +0.032 C 
ATOM     11  C   UNL     1      32.190 -12.665 -20.579  0.00  0.00    -0.001 C 
ATOM     12  C   UNL     1      32.460 -11.467 -22.656  0.00  0.00    +0.139 C 
ATOM     13  C   UNL     1      31.895 -11.569 -21.388  0.00  0.00    +0.037 C 
BRANCH  12  14
ATOM     14  O   UNL     1      32.178 -10.395 -23.444  0.00  0.00    -0.466 OA
BRANCH  14  15
ATOM     15  C   UNL     1      32.086  -9.124 -22.803  0.00  0.00    +0.290 C 
BRANCH  15  18
ATOM     16  O   UNL     1      34.387  -8.742 -23.221  0.00  0.00    -0.271 OA
ATOM     17  N   UNL     1      32.971  -6.943 -23.609  0.00  0.00    -0.273 N 
ATOM     18  C   UNL     1      33.253  -8.255 -23.226  0.00  0.00    +0.270 C 
ATOM     19  C   UNL     1      34.059  -6.071 -24.033  0.00  0.00    +0.115 C 
ATOM     20  C   UNL     1      31.642  -6.337 -23.642  0.00  0.00    +0.115 C 
ENDBRANCH  15  18
ENDBRANCH  14  15
ENDBRANCH  12  14
ENDBRANCH   1   4
BRANCH   1  21
ATOM     21  C   UNL     1      35.829 -17.846 -21.441  0.00  0.00    -0.047 C 
BRANCH  21  22
ATOM     22  C   UNL     1      35.450 -19.232 -21.976  0.00  0.00    +0.112 C 
BRANCH  22  23
ATOM     23  C   UNL     1      35.037 -20.163 -20.857  0.00  0.00    +0.002 C 
ATOM     24  C   UNL     1      36.004 -20.724 -20.024  0.00  0.00    -0.003 C 
ATOM     25  C   UNL     1      33.688 -20.461 -20.660  0.00  0.00    +0.001 C 
ATOM     26  C   UNL     1      35.623 -21.582 -18.992  0.00  0.00    +0.014 C 
ATOM     27  C   UNL     1      33.307 -21.321 -19.630  0.00  0.00    +0.036 C 
ATOM     28  C   UNL     1      34.275 -21.881 -18.796  0.00  0.00    +0.130 C 
BRANCH  28  29
ATOM     29  O   UNL     1      33.886 -22.717 -17.793  0.00  0.00    -0.506 OA
ATOM     30  H   UNL     1      34.284 -22.652 -16.947  0.00  0.00    +0.292 HD
ENDBRANCH  28  29
BRANCH  26  31
ATOM     31  C   UNL     1      36.672 -22.173 -18.109  0.00  0.00    +0.061 C 
BRANCH  31  32
ATOM     32  C   UNL     1      36.782 -21.463 -16.757  0.00  0.00    +0.142 C 
BRANCH  32  33
ATOM     33  O   UNL     1      37.568 -20.286 -16.900  0.00  0.00    -0.382 OA
ATOM     34  H   UNL     1      37.788 -19.936 -16.022  0.00  0.00    +0.210 HD
ENDBRANCH  32  33
ENDBRANCH  31  32
ENDBRANCH  26  31
ENDBRANCH  22  23
BRANCH  22  35
ATOM     35  O   UNL     1      34.364 -19.129 -22.895  0.00  0.00    -0.382 OA
ATOM     36  H   UNL     1      33.529 -19.073 -22.404  0.00  0.00    +0.211 HD
ENDBRANCH  22  35
ENDBRANCH  21  22
ENDBRANCH   1  21
TORSDOF 12
ENDMDL
MODEL 7
REMARK VINA RESULT:     -10.4      4.025     11.378
REMARK  Name = 9963057
REMARK  12 active torsions:
REMARK  status: ('A' for Active; 'I' for Inactive)
REMARK    1  A    between atoms: N_1  and  C_4
REMARK    2  A    between atoms: N_1  and  C_21
REMARK    3  A    between atoms: C_12  and  O_14
REMARK    4  A    between atoms: O_14  and  C_15
REMARK    5  A    between atoms: C_15  and  C_18
REMARK    6  A    between atoms: C_21  and  C_22
REMARK    7  A    between atoms: C_22  and  C_23
REMARK    8  A    between atoms: C_22  and  O_35
REMARK    9  A    between atoms: C_26  and  C_31
REMARK   10  A    between atoms: C_28  and  O_29
REMARK   11  A    between atoms: C_31  and  C_32
REMARK   12  A    between atoms: C_32  and  O_33
REMARK                            x       y       z     vdW  Elec       q    Type
REMARK                         _______ _______ _______ _____ _____    ______ ____
ROOT
ATOM      1  N   UNL     1      34.331 -13.869 -23.544  0.00  0.00    +0.387 N 
ATOM      2  H   UNL     1      35.018 -13.697 -24.278  0.00  0.00    -0.084 HD
ATOM      3  H   UNL     1      34.663 -13.498 -22.653  0.00  0.00    -0.084 HD
ENDROOT
BRANCH   1   4
ATOM      4  C   UNL     1      34.128 -15.311 -23.405  0.00  0.00    -0.057 C 
ATOM      5  C   UNL     1      34.495 -16.021 -24.710  0.00  0.00    -0.016 C 
ATOM      6  C   UNL     1      34.978 -15.862 -22.252  0.00  0.00    +0.005 C 
ATOM      7  C   UNL     1      34.179 -17.513 -24.610  0.00  0.00    +0.024 C 
ATOM      8  C   UNL     1      35.008 -17.371 -22.209  0.00  0.00    -0.025 C 
ATOM      9  C   UNL     1      34.671 -18.147 -23.333  0.00  0.00    -0.026 C 
ATOM     10  C   UNL     1      35.440 -18.009 -21.036  0.00  0.00    +0.032 C 
ATOM     11  C   UNL     1      34.739 -19.545 -23.250  0.00  0.00    -0.001 C 
ATOM     12  C   UNL     1      35.514 -19.401 -20.970  0.00  0.00    +0.139 C 
ATOM     13  C   UNL     1      35.160 -20.168 -22.076  0.00  0.00    +0.037 C 
BRANCH  12  14
ATOM     14  O   UNL     1      35.930 -20.007 -19.825  0.00  0.00    -0.466 OA
BRANCH  14  15
ATOM     15  C   UNL     1      36.145 -21.416 -19.877  0.00  0.00    +0.290 C 
BRANCH  15  18
ATOM     16  O   UNL     1      36.812 -22.106 -17.711  0.00  0.00    -0.271 OA
ATOM     17  N   UNL     1      34.578 -22.449 -18.244  0.00  0.00    -0.273 N 
ATOM     18  C   UNL     1      35.879 -22.023 -18.515  0.00  0.00    +0.270 C 
ATOM     19  C   UNL     1      34.271 -23.032 -16.944  0.00  0.00    +0.115 C 
ATOM     20  C   UNL     1      33.447 -22.355 -19.164  0.00  0.00    +0.115 C 
ENDBRANCH  15  18
ENDBRANCH  14  15
ENDBRANCH  12  14
ENDBRANCH   1   4
BRANCH   1  21
ATOM     21  C   UNL     1      33.084 -13.205 -23.892  0.00  0.00    -0.047 C 
BRANCH  21  22
ATOM     22  C   UNL     1      33.193 -11.691 -23.672  0.00  0.00    +0.112 C 
BRANCH  22  23
ATOM     23  C   UNL     1      32.552 -11.273 -22.367  0.00  0.00    +0.002 C 
ATOM     24  C   UNL     1      32.451  -9.921 -22.042  0.00  0.00    -0.003 C 
ATOM     25  C   UNL     1      32.063 -12.240 -21.489  0.00  0.00    +0.001 C 
ATOM     26  C   UNL     1      31.859  -9.535 -20.839  0.00  0.00    +0.014 C 
ATOM     27  C   UNL     1      31.473 -11.855 -20.285  0.00  0.00    +0.036 C 
ATOM     28  C   UNL     1      31.371 -10.503 -19.961  0.00  0.00    +0.130 C 
BRANCH  28  29
ATOM     29  O   UNL     1      30.790 -10.143 -18.782  0.00  0.00    -0.506 OA
ATOM     30  H   UNL     1      31.302  -9.729 -18.114  0.00  0.00    +0.292 HD
ENDBRANCH  28  29
BRANCH  26  31
ATOM     31  C   UNL     1      31.758  -8.083 -20.507  0.00  0.00    +0.061 C 
BRANCH  31  32
ATOM     32  C   UNL     1      33.120  -7.384 -20.474  0.00  0.00    +0.142 C 
BRANCH  32  33
ATOM     33  O   UNL     1      33.495  -7.135 -19.125  0.00  0.00    -0.382 OA
ATOM     34  H   UNL     1      34.436  -6.898 -19.090  0.00  0.00    +0.210 HD
ENDBRANCH  32  33
ENDBRANCH  31  32
ENDBRANCH  26  31
ENDBRANCH  22  23
BRANCH  22  35
ATOM     35  O   UNL     1      34.563 -11.292 -23.644  0.00  0.00    -0.382 OA
ATOM     36  H   UNL     1      34.976 -11.495 -24.498  0.00  0.00    +0.211 HD
ENDBRANCH  22  35
ENDBRANCH  21  22
ENDBRANCH   1  21
TORSDOF 12
ENDMDL
MODEL 8
REMARK VINA RESULT:     -10.4      8.664     14.830
REMARK  Name = 9963057
REMARK  12 active torsions:
REMARK  status: ('A' for Active; 'I' for Inactive)
REMARK    1  A    between atoms: N_1  and  C_4
REMARK    2  A    between atoms: N_1  and  C_21
REMARK    3  A    between atoms: C_12  and  O_14
REMARK    4  A    between atoms: O_14  and  C_15
REMARK    5  A    between atoms: C_15  and  C_18
REMARK    6  A    between atoms: C_21  and  C_22
REMARK    7  A    between atoms: C_22  and  C_23
REMARK    8  A    between atoms: C_22  and  O_35
REMARK    9  A    between atoms: C_26  and  C_31
REMARK   10  A    between atoms: C_28  and  O_29
REMARK   11  A    between atoms: C_31  and  C_32
REMARK   12  A    between atoms: C_32  and  O_33
REMARK                            x       y       z     vdW  Elec       q    Type
REMARK                         _______ _______ _______ _____ _____    ______ ____
ROOT
ATOM      1  N   UNL     1      31.985  -7.257 -19.942  0.00  0.00    +0.387 N 
ATOM      2  H   UNL     1      32.842  -6.715 -19.834  0.00  0.00    -0.084 HD
ATOM      3  H   UNL     1      31.338  -7.054 -19.179  0.00  0.00    -0.084 HD
ENDROOT
BRANCH   1   4
ATOM      4  C   UNL     1      32.313  -8.682 -19.910  0.00  0.00    -0.057 C 
ATOM      5  C   UNL     1      31.476  -9.390 -18.842  0.00  0.00    -0.016 C 
ATOM      6  C   UNL     1      32.061  -9.321 -21.281  0.00  0.00    +0.005 C 
ATOM      7  C   UNL     1      31.894 -10.856 -18.725  0.00  0.00    +0.024 C 
ATOM      8  C   UNL     1      32.141 -10.828 -21.256  0.00  0.00    -0.025 C 
ATOM      9  C   UNL     1      32.021 -11.552 -20.056  0.00  0.00    -0.026 C 
ATOM     10  C   UNL     1      32.280 -11.522 -22.468  0.00  0.00    +0.032 C 
ATOM     11  C   UNL     1      32.078 -12.953 -20.088  0.00  0.00    -0.001 C 
ATOM     12  C   UNL     1      32.324 -12.917 -22.488  0.00  0.00    +0.139 C 
ATOM     13  C   UNL     1      32.226 -13.631 -21.297  0.00  0.00    +0.037 C 
BRANCH  12  14
ATOM     14  O   UNL     1      32.464 -13.577 -23.669  0.00  0.00    -0.466 OA
BRANCH  14  15
ATOM     15  C   UNL     1      33.792 -13.869 -24.097  0.00  0.00    +0.290 C 
BRANCH  15  18
ATOM     16  O   UNL     1      33.430 -15.523 -25.755  0.00  0.00    -0.271 OA
ATOM     17  N   UNL     1      34.414 -16.258 -23.784  0.00  0.00    -0.273 N 
ATOM     18  C   UNL     1      33.858 -15.289 -24.621  0.00  0.00    +0.270 C 
ATOM     19  C   UNL     1      34.507 -17.636 -24.247  0.00  0.00    +0.115 C 
ATOM     20  C   UNL     1      34.943 -16.016 -22.444  0.00  0.00    +0.115 C 
ENDBRANCH  15  18
ENDBRANCH  14  15
ENDBRANCH  12  14
ENDBRANCH   1   4
BRANCH   1  21
ATOM     21  C   UNL     1      31.350  -6.903 -21.201  0.00  0.00    -0.047 C 
BRANCH  21  22
ATOM     22  C   UNL     1      31.700  -5.464 -21.602  0.00  0.00    +0.112 C 
BRANCH  22  23
ATOM     23  C   UNL     1      32.568  -5.430 -22.841  0.00  0.00    +0.002 C 
ATOM     24  C   UNL     1      33.527  -6.421 -23.048  0.00  0.00    -0.003 C 
ATOM     25  C   UNL     1      32.409  -4.407 -23.776  0.00  0.00    +0.001 C 
ATOM     26  C   UNL     1      34.327  -6.389 -24.190  0.00  0.00    +0.014 C 
ATOM     27  C   UNL     1      33.209  -4.374 -24.917  0.00  0.00    +0.036 C 
ATOM     28  C   UNL     1      34.169  -5.365 -25.124  0.00  0.00    +0.130 C 
BRANCH  28  29
ATOM     29  O   UNL     1      34.942  -5.319 -26.245  0.00  0.00    -0.506 OA
ATOM     30  H   UNL     1      34.655  -5.745 -27.030  0.00  0.00    +0.292 HD
ENDBRANCH  28  29
BRANCH  26  31
ATOM     31  C   UNL     1      35.349  -7.457 -24.396  0.00  0.00    +0.061 C 
BRANCH  31  32
ATOM     32  C   UNL     1      35.034  -8.740 -23.622  0.00  0.00    +0.142 C 
BRANCH  32  33
ATOM     33  O   UNL     1      36.030  -9.718 -23.894  0.00  0.00    -0.382 OA
ATOM     34  H   UNL     1      36.905  -9.296 -23.893  0.00  0.00    +0.210 HD
ENDBRANCH  32  33
ENDBRANCH  31  32
ENDBRANCH  26  31
ENDBRANCH  22  23
BRANCH  22  35
ATOM     35  O   UNL     1      30.511  -4.721 -21.869  0.00  0.00    -0.382 OA
ATOM     36  H   UNL     1      29.760  -5.330 -21.944  0.00  0.00    +0.211 HD
ENDBRANCH  22  35
ENDBRANCH  21  22
ENDBRANCH   1  21
TORSDOF 12
ENDMDL
MODEL 9
REMARK VINA RESULT:     -10.3      3.320     10.882
REMARK  Name = 9963057
REMARK  12 active torsions:
REMARK  status: ('A' for Active; 'I' for Inactive)
REMARK    1  A    between atoms: N_1  and  C_4
REMARK    2  A    between atoms: N_1  and  C_21
REMARK    3  A    between atoms: C_12  and  O_14
REMARK    4  A    between atoms: O_14  and  C_15
REMARK    5  A    between atoms: C_15  and  C_18
REMARK    6  A    between atoms: C_21  and  C_22
REMARK    7  A    between atoms: C_22  and  C_23
REMARK    8  A    between atoms: C_22  and  O_35
REMARK    9  A    between atoms: C_26  and  C_31
REMARK   10  A    between atoms: C_28  and  O_29
REMARK   11  A    between atoms: C_31  and  C_32
REMARK   12  A    between atoms: C_32  and  O_33
REMARK                            x       y       z     vdW  Elec       q    Type
REMARK                         _______ _______ _______ _____ _____    ______ ____
ROOT
ATOM      1  N   UNL     1      36.174 -19.556 -21.268  0.00  0.00    +0.387 N 
ATOM      2  H   UNL     1      36.618 -20.361 -21.709  0.00  0.00    -0.084 HD
ATOM      3  H   UNL     1      36.871 -18.982 -20.793  0.00  0.00    -0.084 HD
ENDROOT
BRANCH   1   4
ATOM      4  C   UNL     1      35.203 -20.026 -20.280  0.00  0.00    -0.057 C 
ATOM      5  C   UNL     1      33.895 -20.413 -20.972  0.00  0.00    -0.016 C 
ATOM      6  C   UNL     1      35.763 -21.228 -19.509  0.00  0.00    +0.005 C 
ATOM      7  C   UNL     1      32.839 -20.796 -19.935  0.00  0.00    +0.024 C 
ATOM      8  C   UNL     1      34.728 -21.915 -18.651  0.00  0.00    -0.025 C 
ATOM      9  C   UNL     1      33.351 -21.743 -18.879  0.00  0.00    -0.026 C 
ATOM     10  C   UNL     1      35.154 -22.790 -17.640  0.00  0.00    +0.032 C 
ATOM     11  C   UNL     1      32.428 -22.422 -18.069  0.00  0.00    -0.001 C 
ATOM     12  C   UNL     1      34.227 -23.468 -16.848  0.00  0.00    +0.139 C 
ATOM     13  C   UNL     1      32.864 -23.281 -17.062  0.00  0.00    +0.037 C 
BRANCH  12  14
ATOM     14  O   UNL     1      34.654 -24.310 -15.869  0.00  0.00    -0.466 OA
BRANCH  14  15
ATOM     15  C   UNL     1      35.813 -23.920 -15.136  0.00  0.00    +0.290 C 
BRANCH  15  18
ATOM     16  O   UNL     1      36.485 -26.192 -15.133  0.00  0.00    -0.271 OA
ATOM     17  N   UNL     1      36.953 -24.991 -13.201  0.00  0.00    -0.273 N 
ATOM     18  C   UNL     1      36.443 -25.137 -14.492  0.00  0.00    +0.270 C 
ATOM     19  C   UNL     1      37.577 -26.132 -12.544  0.00  0.00    +0.115 C 
ATOM     20  C   UNL     1      36.934 -23.758 -12.418  0.00  0.00    +0.115 C 
ENDBRANCH  15  18
ENDBRANCH  14  15
ENDBRANCH  12  14
ENDBRANCH   1   4
BRANCH   1  21
ATOM     21  C   UNL     1      35.521 -18.751 -22.289  0.00  0.00    -0.047 C 
BRANCH  21  22
ATOM     22  C   UNL     1      35.625 -17.258 -21.954  0.00  0.00    +0.112 C 
BRANCH  22  23
ATOM     23  C   UNL     1      34.828 -16.415 -22.926  0.00  0.00    +0.002 C 
ATOM     24  C   UNL     1      34.247 -15.221 -22.499  0.00  0.00    -0.003 C 
ATOM     25  C   UNL     1      34.674 -16.833 -24.247  0.00  0.00    +0.001 C 
ATOM     26  C   UNL     1      33.513 -14.444 -23.396  0.00  0.00    +0.014 C 
ATOM     27  C   UNL     1      33.938 -16.058 -25.143  0.00  0.00    +0.036 C 
ATOM     28  C   UNL     1      33.358 -14.863 -24.717  0.00  0.00    +0.130 C 
BRANCH  28  29
ATOM     29  O   UNL     1      32.644 -14.116 -25.605  0.00  0.00    -0.506 OA
ATOM     30  H   UNL     1      31.827 -14.436 -25.937  0.00  0.00    +0.292 HD
ENDBRANCH  28  29
BRANCH  26  31
ATOM     31  C   UNL     1      32.898 -13.168 -22.923  0.00  0.00    +0.061 C 
BRANCH  31  32
ATOM     32  C   UNL     1      32.207 -13.308 -21.564  0.00  0.00    +0.142 C 
BRANCH  32  33
ATOM     33  O   UNL     1      32.227 -12.056 -20.889  0.00  0.00    -0.382 OA
ATOM     34  H   UNL     1      32.583 -11.375 -21.482  0.00  0.00    +0.210 HD
ENDBRANCH  32  33
ENDBRANCH  31  32
ENDBRANCH  26  31
ENDBRANCH  22  23
BRANCH  22  35
ATOM     35  O   UNL     1      35.130 -17.009 -20.638  0.00  0.00    -0.382 OA
ATOM     36  H   UNL     1      34.204 -17.291 -20.583  0.00  0.00    +0.211 HD
ENDBRANCH  22  35
ENDBRANCH  21  22
ENDBRANCH   1  21
TORSDOF 12
ENDMDL
