MODEL 1
REMARK VINA RESULT:     -11.8      0.000      0.000
REMARK  Name = 24875320
REMARK  6 active torsions:
REMARK  status: ('A' for Active; 'I' for Inactive)
REMARK    1  A    between atoms: C_1  and  N_22
REMARK    2  A    between atoms: C_3  and  C_10
REMARK    3  A    between atoms: N_9  and  C_12
REMARK    4  A    between atoms: C_14  and  C_21
REMARK    5  A    between atoms: N_22  and  C_25
REMARK    6  A    between atoms: C_28  and  C_32
REMARK                            x       y       z     vdW  Elec       q    Type
REMARK                         _______ _______ _______ _____ _____    ______ ____
ROOT
ATOM      1  C   UNL     1      34.711 -23.162 -16.880  0.00  0.00    +0.044 C 
ATOM      2  C   UNL     1      36.038 -22.948 -16.504  0.00  0.00    -0.008 C 
ATOM      3  C   UNL     1      34.985 -21.621 -18.721  0.00  0.00    +0.055 C 
ATOM      4  C   UNL     1      34.185 -22.497 -17.988  0.00  0.00    +0.019 C 
ATOM      5  C   UNL     1      36.838 -22.072 -17.237  0.00  0.00    -0.003 C 
ATOM      6  C   UNL     1      36.312 -21.408 -18.345  0.00  0.00    +0.004 C 
ATOM      7  C   UNL     1      36.628 -23.646 -15.322  0.00  0.00    +0.032 C 
ENDROOT
BRANCH   3  10
ATOM      8  O   UNL     1      33.275 -21.181 -20.235  0.00  0.00    -0.270 OA
ATOM      9  N   UNL     1      35.299 -20.026 -20.514  0.00  0.00    -0.280 N 
ATOM     10  C   UNL     1      34.437 -20.929 -19.876  0.00  0.00    +0.250 C 
ATOM     11  H   UNL     1      36.193 -19.930 -20.113  0.00  0.00    +0.155 HD
BRANCH   9  12
ATOM     12  C   UNL     1      35.052 -19.235 -21.663  0.00  0.00    +0.050 C 
ATOM     13  C   UNL     1      34.989 -17.845 -21.554  0.00  0.00    +0.019 C 
ATOM     14  C   UNL     1      34.747 -17.066 -22.685  0.00  0.00    +0.073 C 
ATOM     15  C   UNL     1      34.873 -19.845 -22.905  0.00  0.00    +0.015 C 
ATOM     16  C   UNL     1      34.567 -17.677 -23.927  0.00  0.00    +0.004 C 
ATOM     17  C   UNL     1      34.631 -19.066 -24.036  0.00  0.00    +0.001 C 
BRANCH  14  21
ATOM     18  F   UNL     1      35.443 -14.924 -23.489  0.00  0.00    -0.166 F 
ATOM     19  F   UNL     1      33.418 -15.078 -22.727  0.00  0.00    -0.166 F 
ATOM     20  F   UNL     1      35.102 -15.131 -21.351  0.00  0.00    -0.166 F 
ATOM     21  C   UNL     1      34.679 -15.582 -22.568  0.00  0.00    +0.419 C 
ENDBRANCH  14  21
ENDBRANCH   9  12
ENDBRANCH   3  10
BRANCH   1  22
ATOM     22  N   UNL     1      33.887 -24.046 -16.150  0.00  0.00    -0.312 N 
ATOM     23  H   UNL     1      34.141 -24.993 -16.244  0.00  0.00    +0.152 HD
BRANCH  22  25
ATOM     24  N   UNL     1      31.849 -23.790 -13.081  0.00  0.00    -0.241 NA
ATOM     25  C   UNL     1      32.774 -23.839 -15.314  0.00  0.00    +0.068 C 
ATOM     26  C   UNL     1      31.536 -23.490 -15.843  0.00  0.00    +0.022 C 
ATOM     27  C   UNL     1      32.877 -23.975 -13.939  0.00  0.00    +0.113 C 
ATOM     28  C   UNL     1      30.454 -23.291 -14.992  0.00  0.00    +0.073 C 
ATOM     29  C   UNL     1      30.660 -23.452 -13.631  0.00  0.00    +0.103 C 
BRANCH  28  32
ATOM     30  O   UNL     1      28.386 -22.169 -14.886  0.00  0.00    -0.270 OA
ATOM     31  N   UNL     1      28.778 -23.439 -16.754  0.00  0.00    -0.325 N 
ATOM     32  C   UNL     1      29.148 -22.926 -15.513  0.00  0.00    +0.244 C 
ATOM     33  H   UNL     1      27.900 -23.213 -17.138  0.00  0.00    +0.145 HD
ATOM     34  H   UNL     1      29.395 -24.027 -17.248  0.00  0.00    +0.145 HD
ENDBRANCH  28  32
ENDBRANCH  22  25
ENDBRANCH   1  22
TORSDOF 6
ENDMDL
MODEL 2
REMARK VINA RESULT:     -11.7      5.780     10.996
REMARK  Name = 24875320
REMARK  6 active torsions:
REMARK  status: ('A' for Active; 'I' for Inactive)
REMARK    1  A    between atoms: C_1  and  N_22
REMARK    2  A    between atoms: C_3  and  C_10
REMARK    3  A    between atoms: N_9  and  C_12
REMARK    4  A    between atoms: C_14  and  C_21
REMARK    5  A    between atoms: N_22  and  C_25
REMARK    6  A    between atoms: C_28  and  C_32
REMARK                            x       y       z     vdW  Elec       q    Type
REMARK                         _______ _______ _______ _____ _____    ______ ____
ROOT
ATOM      1  C   UNL     1      34.173 -14.177 -23.561  0.00  0.00    +0.044 C 
ATOM      2  C   UNL     1      33.862 -14.773 -24.782  0.00  0.00    -0.008 C 
ATOM      3  C   UNL     1      34.605 -16.355 -22.608  0.00  0.00    +0.055 C 
ATOM      4  C   UNL     1      34.544 -14.968 -22.473  0.00  0.00    +0.019 C 
ATOM      5  C   UNL     1      33.923 -16.160 -24.918  0.00  0.00    -0.003 C 
ATOM      6  C   UNL     1      34.294 -16.951 -23.830  0.00  0.00    +0.004 C 
ATOM      7  C   UNL     1      33.463 -13.950 -25.964  0.00  0.00    +0.032 C 
ENDROOT
BRANCH   3  10
ATOM      8  O   UNL     1      35.186 -16.639 -20.374  0.00  0.00    -0.270 OA
ATOM      9  N   UNL     1      35.133 -18.549 -21.735  0.00  0.00    -0.280 N 
ATOM     10  C   UNL     1      34.991 -17.179 -21.474  0.00  0.00    +0.250 C 
ATOM     11  H   UNL     1      34.942 -18.832 -22.658  0.00  0.00    +0.155 HD
BRANCH   9  12
ATOM     12  C   UNL     1      35.517 -19.581 -20.843  0.00  0.00    +0.050 C 
ATOM     13  C   UNL     1      34.555 -20.447 -20.321  0.00  0.00    +0.019 C 
ATOM     14  C   UNL     1      34.934 -21.463 -19.443  0.00  0.00    +0.073 C 
ATOM     15  C   UNL     1      36.857 -19.731 -20.485  0.00  0.00    +0.015 C 
ATOM     16  C   UNL     1      36.274 -21.612 -19.086  0.00  0.00    +0.004 C 
ATOM     17  C   UNL     1      37.235 -20.746 -19.607  0.00  0.00    +0.001 C 
BRANCH  14  21
ATOM     18  F   UNL     1      33.877 -23.608 -19.498  0.00  0.00    -0.166 F 
ATOM     19  F   UNL     1      34.080 -22.661 -17.558  0.00  0.00    -0.166 F 
ATOM     20  F   UNL     1      32.639 -21.893 -18.994  0.00  0.00    -0.166 F 
ATOM     21  C   UNL     1      33.907 -22.388 -18.885  0.00  0.00    +0.419 C 
ENDBRANCH  14  21
ENDBRANCH   9  12
ENDBRANCH   3  10
BRANCH   1  22
ATOM     22  N   UNL     1      34.117 -12.774 -23.406  0.00  0.00    -0.312 N 
ATOM     23  H   UNL     1      34.952 -12.315 -23.655  0.00  0.00    +0.152 HD
BRANCH  22  25
ATOM     24  N   UNL     1      31.098 -11.564 -21.658  0.00  0.00    -0.241 NA
ATOM     25  C   UNL     1      33.102 -11.904 -22.965  0.00  0.00    +0.068 C 
ATOM     26  C   UNL     1      33.076 -10.573 -23.366  0.00  0.00    +0.022 C 
ATOM     27  C   UNL     1      32.100 -12.347 -22.118  0.00  0.00    +0.113 C 
ATOM     28  C   UNL     1      32.061  -9.736 -22.913  0.00  0.00    +0.073 C 
ATOM     29  C   UNL     1      31.104 -10.276 -22.069  0.00  0.00    +0.103 C 
BRANCH  28  32
ATOM     30  O   UNL     1      32.235  -7.423 -22.506  0.00  0.00    -0.270 OA
ATOM     31  N   UNL     1      31.703  -8.060 -24.644  0.00  0.00    -0.325 N 
ATOM     32  C   UNL     1      32.005  -8.342 -23.314  0.00  0.00    +0.244 C 
ATOM     33  H   UNL     1      31.656  -7.126 -24.951  0.00  0.00    +0.145 HD
ATOM     34  H   UNL     1      31.536  -8.795 -25.278  0.00  0.00    +0.145 HD
ENDBRANCH  28  32
ENDBRANCH  22  25
ENDBRANCH   1  22
TORSDOF 6
ENDMDL
MODEL 3
REMARK VINA RESULT:     -11.6      3.429      5.368
REMARK  Name = 24875320
REMARK  6 active torsions:
REMARK  status: ('A' for Active; 'I' for Inactive)
REMARK    1  A    between atoms: C_1  and  N_22
REMARK    2  A    between atoms: C_3  and  C_10
REMARK    3  A    between atoms: N_9  and  C_12
REMARK    4  A    between atoms: C_14  and  C_21
REMARK    5  A    between atoms: N_22  and  C_25
REMARK    6  A    between atoms: C_28  and  C_32
REMARK                            x       y       z     vdW  Elec       q    Type
REMARK                         _______ _______ _______ _____ _____    ______ ____
ROOT
ATOM      1  C   UNL     1      34.510 -23.217 -15.225  0.00  0.00    +0.044 C 
ATOM      2  C   UNL     1      33.161 -23.565 -15.153  0.00  0.00    -0.008 C 
ATOM      3  C   UNL     1      34.268 -22.774 -17.588  0.00  0.00    +0.055 C 
ATOM      4  C   UNL     1      35.063 -22.822 -16.443  0.00  0.00    +0.019 C 
ATOM      5  C   UNL     1      32.366 -23.517 -16.297  0.00  0.00    -0.003 C 
ATOM      6  C   UNL     1      32.919 -23.122 -17.515  0.00  0.00    +0.004 C 
ATOM      7  C   UNL     1      32.542 -23.991 -13.861  0.00  0.00    +0.032 C 
ENDROOT
BRANCH   3  10
ATOM      8  O   UNL     1      35.218 -23.233 -19.661  0.00  0.00    -0.270 OA
ATOM      9  N   UNL     1      34.953 -20.980 -19.061  0.00  0.00    -0.280 N 
ATOM     10  C   UNL     1      34.845 -22.363 -18.858  0.00  0.00    +0.250 C 
ATOM     11  H   UNL     1      34.613 -20.412 -18.333  0.00  0.00    +0.155 HD
BRANCH   9  12
ATOM     12  C   UNL     1      35.490 -20.293 -20.178  0.00  0.00    +0.050 C 
ATOM     13  C   UNL     1      34.735 -20.157 -21.344  0.00  0.00    +0.019 C 
ATOM     14  C   UNL     1      35.264 -19.481 -22.443  0.00  0.00    +0.073 C 
ATOM     15  C   UNL     1      36.774 -19.751 -20.112  0.00  0.00    +0.015 C 
ATOM     16  C   UNL     1      36.549 -18.939 -22.376  0.00  0.00    +0.004 C 
ATOM     17  C   UNL     1      37.302 -19.075 -21.211  0.00  0.00    +0.001 C 
BRANCH  14  21
ATOM     18  F   UNL     1      33.110 -19.380 -23.478  0.00  0.00    -0.166 F 
ATOM     19  F   UNL     1      34.677 -18.159 -24.347  0.00  0.00    -0.166 F 
ATOM     20  F   UNL     1      34.718 -20.319 -24.599  0.00  0.00    -0.166 F 
ATOM     21  C   UNL     1      34.458 -19.336 -23.688  0.00  0.00    +0.419 C 
ENDBRANCH  14  21
ENDBRANCH   9  12
ENDBRANCH   3  10
BRANCH   1  22
ATOM     22  N   UNL     1      35.329 -23.258 -14.076  0.00  0.00    -0.312 N 
ATOM     23  H   UNL     1      35.333 -22.419 -13.561  0.00  0.00    +0.152 HD
BRANCH  22  25
ATOM     24  N   UNL     1      36.469 -25.953 -11.823  0.00  0.00    -0.241 NA
ATOM     25  C   UNL     1      36.142 -24.265 -13.522  0.00  0.00    +0.068 C 
ATOM     26  C   UNL     1      37.377 -24.578 -14.081  0.00  0.00    +0.022 C 
ATOM     27  C   UNL     1      35.738 -24.976 -12.404  0.00  0.00    +0.113 C 
ATOM     28  C   UNL     1      38.157 -25.579 -13.513  0.00  0.00    +0.073 C 
ATOM     29  C   UNL     1      37.663 -26.230 -12.394  0.00  0.00    +0.103 C 
BRANCH  28  32
ATOM     30  O   UNL     1      40.228 -26.700 -13.481  0.00  0.00    -0.270 OA
ATOM     31  N   UNL     1      39.791 -25.386 -15.309  0.00  0.00    -0.325 N 
ATOM     32  C   UNL     1      39.451 -25.928 -14.072  0.00  0.00    +0.244 C 
ATOM     33  H   UNL     1      40.660 -25.602 -15.719  0.00  0.00    +0.145 HD
ATOM     34  H   UNL     1      39.163 -24.788 -15.775  0.00  0.00    +0.145 HD
ENDBRANCH  28  32
ENDBRANCH  22  25
ENDBRANCH   1  22
TORSDOF 6
ENDMDL
MODEL 4
REMARK VINA RESULT:     -11.6      4.442      8.173
REMARK  Name = 24875320
REMARK  6 active torsions:
REMARK  status: ('A' for Active; 'I' for Inactive)
REMARK    1  A    between atoms: C_1  and  N_22
REMARK    2  A    between atoms: C_3  and  C_10
REMARK    3  A    between atoms: N_9  and  C_12
REMARK    4  A    between atoms: C_14  and  C_21
REMARK    5  A    between atoms: N_22  and  C_25
REMARK    6  A    between atoms: C_28  and  C_32
REMARK                            x       y       z     vdW  Elec       q    Type
REMARK                         _______ _______ _______ _____ _____    ______ ____
ROOT
ATOM      1  C   UNL     1      35.154 -17.167 -22.909  0.00  0.00    +0.044 C 
ATOM      2  C   UNL     1      34.532 -17.735 -24.021  0.00  0.00    -0.008 C 
ATOM      3  C   UNL     1      34.031 -15.073 -23.352  0.00  0.00    +0.055 C 
ATOM      4  C   UNL     1      34.904 -15.836 -22.576  0.00  0.00    +0.019 C 
ATOM      5  C   UNL     1      33.660 -16.974 -24.798  0.00  0.00    -0.003 C 
ATOM      6  C   UNL     1      33.410 -15.643 -24.464  0.00  0.00    +0.004 C 
ATOM      7  C   UNL     1      34.781 -19.159 -24.401  0.00  0.00    +0.032 C 
ENDROOT
BRANCH   3  10
ATOM      8  O   UNL     1      34.451 -12.793 -23.537  0.00  0.00    -0.270 OA
ATOM      9  N   UNL     1      32.761 -13.472 -22.057  0.00  0.00    -0.280 N 
ATOM     10  C   UNL     1      33.771 -13.686 -23.005  0.00  0.00    +0.250 C 
ATOM     11  H   UNL     1      32.308 -14.280 -21.724  0.00  0.00    +0.155 HD
BRANCH   9  12
ATOM     12  C   UNL     1      32.309 -12.244 -21.513  0.00  0.00    +0.050 C 
ATOM     13  C   UNL     1      32.134 -11.135 -22.341  0.00  0.00    +0.019 C 
ATOM     14  C   UNL     1      31.689  -9.927 -21.805  0.00  0.00    +0.073 C 
ATOM     15  C   UNL     1      32.038 -12.144 -20.148  0.00  0.00    +0.015 C 
ATOM     16  C   UNL     1      31.418  -9.828 -20.440  0.00  0.00    +0.004 C 
ATOM     17  C   UNL     1      31.593 -10.936 -19.612  0.00  0.00    +0.001 C 
BRANCH  14  21
ATOM     18  F   UNL     1      31.708  -7.549 -22.059  0.00  0.00    -0.166 F 
ATOM     19  F   UNL     1      32.343  -8.726 -23.767  0.00  0.00    -0.166 F 
ATOM     20  F   UNL     1      30.241  -8.668 -23.209  0.00  0.00    -0.166 F 
ATOM     21  C   UNL     1      31.502  -8.742 -22.690  0.00  0.00    +0.419 C 
ENDBRANCH  14  21
ENDBRANCH   9  12
ENDBRANCH   3  10
BRANCH   1  22
ATOM     22  N   UNL     1      36.039 -17.924 -22.111  0.00  0.00    -0.312 N 
ATOM     23  H   UNL     1      36.980 -17.646 -22.190  0.00  0.00    +0.152 HD
BRANCH  22  25
ATOM     24  N   UNL     1      36.776 -20.586 -19.660  0.00  0.00    -0.241 NA
ATOM     25  C   UNL     1      35.839 -18.997 -21.222  0.00  0.00    +0.068 C 
ATOM     26  C   UNL     1      34.572 -19.530 -21.016  0.00  0.00    +0.022 C 
ATOM     27  C   UNL     1      36.899 -19.556 -20.526  0.00  0.00    +0.113 C 
ATOM     28  C   UNL     1      34.405 -20.590 -20.131  0.00  0.00    +0.073 C 
ATOM     29  C   UNL     1      35.529 -21.078 -19.485  0.00  0.00    +0.103 C 
BRANCH  28  32
ATOM     30  O   UNL     1      32.060 -20.645 -20.347  0.00  0.00    -0.270 OA
ATOM     31  N   UNL     1      33.029 -22.347 -19.155  0.00  0.00    -0.325 N 
ATOM     32  C   UNL     1      33.094 -21.169 -19.894  0.00  0.00    +0.244 C 
ATOM     33  H   UNL     1      32.157 -22.768 -18.974  0.00  0.00    +0.145 HD
ATOM     34  H   UNL     1      33.855 -22.761 -18.813  0.00  0.00    +0.145 HD
ENDBRANCH  28  32
ENDBRANCH  22  25
ENDBRANCH   1  22
TORSDOF 6
ENDMDL
MODEL 5
REMARK VINA RESULT:     -11.5      2.275      3.275
REMARK  Name = 24875320
REMARK  6 active torsions:
REMARK  status: ('A' for Active; 'I' for Inactive)
REMARK    1  A    between atoms: C_1  and  N_22
REMARK    2  A    between atoms: C_3  and  C_10
REMARK    3  A    between atoms: N_9  and  C_12
REMARK    4  A    between atoms: C_14  and  C_21
REMARK    5  A    between atoms: N_22  and  C_25
REMARK    6  A    between atoms: C_28  and  C_32
REMARK                            x       y       z     vdW  Elec       q    Type
REMARK                         _______ _______ _______ _____ _____    ______ ____
ROOT
ATOM      1  C   UNL     1      35.673 -24.522 -14.453  0.00  0.00    +0.044 C 
ATOM      2  C   UNL     1      36.956 -24.892 -14.052  0.00  0.00    -0.008 C 
ATOM      3  C   UNL     1      36.618 -22.951 -16.027  0.00  0.00    +0.055 C 
ATOM      4  C   UNL     1      35.504 -23.551 -15.440  0.00  0.00    +0.019 C 
ATOM      5  C   UNL     1      38.071 -24.292 -14.639  0.00  0.00    -0.003 C 
ATOM      6  C   UNL     1      37.902 -23.321 -15.626  0.00  0.00    +0.004 C 
ATOM      7  C   UNL     1      37.167 -25.930 -12.998  0.00  0.00    +0.032 C 
ENDROOT
BRANCH   3  10
ATOM      8  O   UNL     1      37.145 -20.916 -17.023  0.00  0.00    -0.270 OA
ATOM      9  N   UNL     1      35.448 -22.202 -18.009  0.00  0.00    -0.280 N 
ATOM     10  C   UNL     1      36.441 -21.938 -17.055  0.00  0.00    +0.250 C 
ATOM     11  H   UNL     1      34.972 -23.057 -17.906  0.00  0.00    +0.155 HD
BRANCH   9  12
ATOM     12  C   UNL     1      35.040 -21.397 -19.101  0.00  0.00    +0.050 C 
ATOM     13  C   UNL     1      35.971 -20.602 -19.770  0.00  0.00    +0.019 C 
ATOM     14  C   UNL     1      35.568 -19.810 -20.845  0.00  0.00    +0.073 C 
ATOM     15  C   UNL     1      33.705 -21.400 -19.509  0.00  0.00    +0.015 C 
ATOM     16  C   UNL     1      34.233 -19.813 -21.252  0.00  0.00    +0.004 C 
ATOM     17  C   UNL     1      33.303 -20.608 -20.584  0.00  0.00    +0.001 C 
BRANCH  14  21
ATOM     18  F   UNL     1      37.835 -19.086 -21.083  0.00  0.00    -0.166 F 
ATOM     19  F   UNL     1      36.654 -19.233 -22.896  0.00  0.00    -0.166 F 
ATOM     20  F   UNL     1      36.270 -17.629 -21.477  0.00  0.00    -0.166 F 
ATOM     21  C   UNL     1      36.562 -18.960 -21.560  0.00  0.00    +0.419 C 
ENDBRANCH  14  21
ENDBRANCH   9  12
ENDBRANCH   3  10
BRANCH   1  22
ATOM     22  N   UNL     1      34.534 -25.120 -13.871  0.00  0.00    -0.312 N 
ATOM     23  H   UNL     1      34.740 -25.900 -13.307  0.00  0.00    +0.152 HD
BRANCH  22  25
ATOM     24  N   UNL     1      30.969 -24.933 -12.927  0.00  0.00    -0.241 NA
ATOM     25  C   UNL     1      33.160 -24.819 -13.939  0.00  0.00    +0.068 C 
ATOM     26  C   UNL     1      32.630 -24.137 -15.029  0.00  0.00    +0.022 C 
ATOM     27  C   UNL     1      32.295 -25.191 -12.923  0.00  0.00    +0.113 C 
ATOM     28  C   UNL     1      31.269 -23.852 -15.068  0.00  0.00    +0.073 C 
ATOM     29  C   UNL     1      30.488 -24.269 -14.002  0.00  0.00    +0.103 C 
BRANCH  28  32
ATOM     30  O   UNL     1      31.392 -22.638 -17.083  0.00  0.00    -0.270 OA
ATOM     31  N   UNL     1      29.295 -23.057 -16.254  0.00  0.00    -0.325 N 
ATOM     32  C   UNL     1      30.684 -23.142 -16.192  0.00  0.00    +0.244 C 
ATOM     33  H   UNL     1      28.864 -22.584 -17.002  0.00  0.00    +0.145 HD
ATOM     34  H   UNL     1      28.744 -23.472 -15.551  0.00  0.00    +0.145 HD
ENDBRANCH  28  32
ENDBRANCH  22  25
ENDBRANCH   1  22
TORSDOF 6
ENDMDL
MODEL 6
REMARK VINA RESULT:     -11.5      4.410      8.177
REMARK  Name = 24875320
REMARK  6 active torsions:
REMARK  status: ('A' for Active; 'I' for Inactive)
REMARK    1  A    between atoms: C_1  and  N_22
REMARK    2  A    between atoms: C_3  and  C_10
REMARK    3  A    between atoms: N_9  and  C_12
REMARK    4  A    between atoms: C_14  and  C_21
REMARK    5  A    between atoms: N_22  and  C_25
REMARK    6  A    between atoms: C_28  and  C_32
REMARK                            x       y       z     vdW  Elec       q    Type
REMARK                         _______ _______ _______ _____ _____    ______ ____
ROOT
ATOM      1  C   UNL     1      35.152 -17.267 -22.958  0.00  0.00    +0.044 C 
ATOM      2  C   UNL     1      34.442 -17.579 -24.117  0.00  0.00    -0.008 C 
ATOM      3  C   UNL     1      34.139 -15.073 -22.930  0.00  0.00    +0.055 C 
ATOM      4  C   UNL     1      35.001 -16.013 -22.365  0.00  0.00    +0.019 C 
ATOM      5  C   UNL     1      33.581 -16.640 -24.683  0.00  0.00    -0.003 C 
ATOM      6  C   UNL     1      33.429 -15.387 -24.090  0.00  0.00    +0.004 C 
ATOM      7  C   UNL     1      34.585 -18.915 -24.773  0.00  0.00    +0.032 C 
ENDROOT
BRANCH   3  10
ATOM      8  O   UNL     1      34.809 -13.397 -21.463  0.00  0.00    -0.270 OA
ATOM      9  N   UNL     1      32.866 -13.025 -22.725  0.00  0.00    -0.280 N 
ATOM     10  C   UNL     1      33.982 -13.767 -22.312  0.00  0.00    +0.250 C 
ATOM     11  H   UNL     1      32.299 -13.449 -23.409  0.00  0.00    +0.155 HD
BRANCH   9  12
ATOM     12  C   UNL     1      32.447 -11.745 -22.286  0.00  0.00    +0.050 C 
ATOM     13  C   UNL     1      32.083 -11.548 -20.953  0.00  0.00    +0.019 C 
ATOM     14  C   UNL     1      31.670 -10.288 -20.521  0.00  0.00    +0.073 C 
ATOM     15  C   UNL     1      32.397 -10.681 -23.186  0.00  0.00    +0.015 C 
ATOM     16  C   UNL     1      31.621  -9.224 -21.423  0.00  0.00    +0.004 C 
ATOM     17  C   UNL     1      31.984  -9.421 -22.754  0.00  0.00    +0.001 C 
BRANCH  14  21
ATOM     18  F   UNL     1      29.949 -10.252 -18.861  0.00  0.00    -0.166 F 
ATOM     19  F   UNL     1      31.912 -10.922 -18.228  0.00  0.00    -0.166 F 
ATOM     20  F   UNL     1      31.569  -8.817 -18.656  0.00  0.00    -0.166 F 
ATOM     21  C   UNL     1      31.282 -10.077 -19.098  0.00  0.00    +0.419 C 
ENDBRANCH  14  21
ENDBRANCH   9  12
ENDBRANCH   3  10
BRANCH   1  22
ATOM     22  N   UNL     1      36.028 -18.206 -22.371  0.00  0.00    -0.312 N 
ATOM     23  H   UNL     1      36.942 -18.177 -22.736  0.00  0.00    +0.152 HD
BRANCH  22  25
ATOM     24  N   UNL     1      36.813 -20.535 -19.615  0.00  0.00    -0.241 NA
ATOM     25  C   UNL     1      35.850 -19.176 -21.367  0.00  0.00    +0.068 C 
ATOM     26  C   UNL     1      34.599 -19.729 -21.119  0.00  0.00    +0.022 C 
ATOM     27  C   UNL     1      36.915 -19.609 -20.594  0.00  0.00    +0.113 C 
ATOM     28  C   UNL     1      34.453 -20.685 -20.119  0.00  0.00    +0.073 C 
ATOM     29  C   UNL     1      35.581 -21.051 -19.402  0.00  0.00    +0.103 C 
BRANCH  28  32
ATOM     30  O   UNL     1      32.103 -20.772 -20.249  0.00  0.00    -0.270 OA
ATOM     31  N   UNL     1      33.138 -22.462 -19.095  0.00  0.00    -0.325 N 
ATOM     32  C   UNL     1      33.160 -21.282 -19.835  0.00  0.00    +0.244 C 
ATOM     33  H   UNL     1      32.279 -22.895 -18.885  0.00  0.00    +0.145 HD
ATOM     34  H   UNL     1      33.981 -22.864 -18.784  0.00  0.00    +0.145 HD
ENDBRANCH  28  32
ENDBRANCH  22  25
ENDBRANCH   1  22
TORSDOF 6
ENDMDL
MODEL 7
REMARK VINA RESULT:     -11.5      5.000      9.408
REMARK  Name = 24875320
REMARK  6 active torsions:
REMARK  status: ('A' for Active; 'I' for Inactive)
REMARK    1  A    between atoms: C_1  and  N_22
REMARK    2  A    between atoms: C_3  and  C_10
REMARK    3  A    between atoms: N_9  and  C_12
REMARK    4  A    between atoms: C_14  and  C_21
REMARK    5  A    between atoms: N_22  and  C_25
REMARK    6  A    between atoms: C_28  and  C_32
REMARK                            x       y       z     vdW  Elec       q    Type
REMARK                         _______ _______ _______ _____ _____    ______ ____
ROOT
ATOM      1  C   UNL     1      31.667 -23.142 -16.244  0.00  0.00    +0.044 C 
ATOM      2  C   UNL     1      30.373 -23.233 -15.734  0.00  0.00    -0.008 C 
ATOM      3  C   UNL     1      32.549 -23.971 -14.153  0.00  0.00    +0.055 C 
ATOM      4  C   UNL     1      32.756 -23.511 -15.453  0.00  0.00    +0.019 C 
ATOM      5  C   UNL     1      30.166 -23.693 -14.434  0.00  0.00    -0.003 C 
ATOM      6  C   UNL     1      31.254 -24.062 -13.643  0.00  0.00    +0.004 C 
ATOM      7  C   UNL     1      29.188 -22.846 -16.559  0.00  0.00    +0.032 C 
ENDROOT
BRANCH   3  10
ATOM      8  O   UNL     1      33.489 -25.056 -12.322  0.00  0.00    -0.270 OA
ATOM      9  N   UNL     1      34.932 -23.869 -13.742  0.00  0.00    -0.280 N 
ATOM     10  C   UNL     1      33.684 -24.355 -13.329  0.00  0.00    +0.250 C 
ATOM     11  H   UNL     1      34.930 -23.325 -14.563  0.00  0.00    +0.155 HD
BRANCH   9  12
ATOM     12  C   UNL     1      36.197 -24.056 -13.131  0.00  0.00    +0.050 C 
ATOM     13  C   UNL     1      37.184 -24.797 -13.782  0.00  0.00    +0.019 C 
ATOM     14  C   UNL     1      38.429 -24.981 -13.181  0.00  0.00    +0.073 C 
ATOM     15  C   UNL     1      36.456 -23.499 -11.879  0.00  0.00    +0.015 C 
ATOM     16  C   UNL     1      38.687 -24.424 -11.928  0.00  0.00    +0.004 C 
ATOM     17  C   UNL     1      37.701 -23.683 -11.278  0.00  0.00    +0.001 C 
BRANCH  14  21
ATOM     18  F   UNL     1      40.126 -25.082 -14.863  0.00  0.00    -0.166 F 
ATOM     19  F   UNL     1      40.475 -26.211 -13.044  0.00  0.00    -0.166 F 
ATOM     20  F   UNL     1      38.988 -26.894 -14.477  0.00  0.00    -0.166 F 
ATOM     21  C   UNL     1      39.483 -25.773 -13.876  0.00  0.00    +0.419 C 
ENDBRANCH  14  21
ENDBRANCH   9  12
ENDBRANCH   3  10
BRANCH   1  22
ATOM     22  N   UNL     1      31.895 -22.679 -17.559  0.00  0.00    -0.312 N 
ATOM     23  H   UNL     1      31.076 -22.603 -18.100  0.00  0.00    +0.152 HD
BRANCH  22  25
ATOM     24  N   UNL     1      35.440 -22.592 -18.589  0.00  0.00    -0.241 NA
ATOM     25  C   UNL     1      33.065 -22.305 -18.247  0.00  0.00    +0.068 C 
ATOM     26  C   UNL     1      33.034 -21.324 -19.232  0.00  0.00    +0.022 C 
ATOM     27  C   UNL     1      34.282 -22.903 -17.966  0.00  0.00    +0.113 C 
ATOM     28  C   UNL     1      34.205 -20.977 -19.897  0.00  0.00    +0.073 C 
ATOM     29  C   UNL     1      35.372 -21.633 -19.541  0.00  0.00    +0.103 C 
BRANCH  28  32
ATOM     30  O   UNL     1      33.409 -19.997 -21.885  0.00  0.00    -0.270 OA
ATOM     31  N   UNL     1      35.119 -18.912 -20.810  0.00  0.00    -0.325 N 
ATOM     32  C   UNL     1      34.206 -19.956 -20.930  0.00  0.00    +0.244 C 
ATOM     33  H   UNL     1      35.148 -18.202 -21.492  0.00  0.00    +0.145 HD
ATOM     34  H   UNL     1      35.736 -18.882 -20.043  0.00  0.00    +0.145 HD
ENDBRANCH  28  32
ENDBRANCH  22  25
ENDBRANCH   1  22
TORSDOF 6
ENDMDL
MODEL 8
REMARK VINA RESULT:     -11.4      4.528      9.462
REMARK  Name = 24875320
REMARK  6 active torsions:
REMARK  status: ('A' for Active; 'I' for Inactive)
REMARK    1  A    between atoms: C_1  and  N_22
REMARK    2  A    between atoms: C_3  and  C_10
REMARK    3  A    between atoms: N_9  and  C_12
REMARK    4  A    between atoms: C_14  and  C_21
REMARK    5  A    between atoms: N_22  and  C_25
REMARK    6  A    between atoms: C_28  and  C_32
REMARK                            x       y       z     vdW  Elec       q    Type
REMARK                         _______ _______ _______ _____ _____    ______ ____
ROOT
ATOM      1  C   UNL     1      35.318 -19.809 -21.108  0.00  0.00    +0.044 C 
ATOM      2  C   UNL     1      36.641 -19.893 -20.676  0.00  0.00    -0.008 C 
ATOM      3  C   UNL     1      34.660 -21.382 -19.396  0.00  0.00    +0.055 C 
ATOM      4  C   UNL     1      34.327 -20.555 -20.469  0.00  0.00    +0.019 C 
ATOM      5  C   UNL     1      36.974 -20.720 -19.604  0.00  0.00    -0.003 C 
ATOM      6  C   UNL     1      35.984 -21.466 -18.964  0.00  0.00    +0.004 C 
ATOM      7  C   UNL     1      37.722 -19.105 -21.342  0.00  0.00    +0.032 C 
ENDROOT
BRANCH   3  10
ATOM      8  O   UNL     1      32.634 -22.526 -19.380  0.00  0.00    -0.270 OA
ATOM      9  N   UNL     1      33.839 -22.418 -17.369  0.00  0.00    -0.280 N 
ATOM     10  C   UNL     1      33.627 -22.160 -18.730  0.00  0.00    +0.250 C 
ATOM     11  H   UNL     1      34.676 -22.064 -16.991  0.00  0.00    +0.155 HD
BRANCH   9  12
ATOM     12  C   UNL     1      33.004 -23.121 -16.465  0.00  0.00    +0.050 C 
ATOM     13  C   UNL     1      31.620 -22.953 -16.517  0.00  0.00    +0.019 C 
ATOM     14  C   UNL     1      30.799 -23.646 -15.627  0.00  0.00    +0.073 C 
ATOM     15  C   UNL     1      33.567 -23.982 -15.522  0.00  0.00    +0.015 C 
ATOM     16  C   UNL     1      31.363 -24.506 -14.684  0.00  0.00    +0.004 C 
ATOM     17  C   UNL     1      32.746 -24.674 -14.632  0.00  0.00    +0.001 C 
BRANCH  14  21
ATOM     18  F   UNL     1      28.868 -22.412 -14.942  0.00  0.00    -0.166 F 
ATOM     19  F   UNL     1      28.843 -23.248 -16.944  0.00  0.00    -0.166 F 
ATOM     20  F   UNL     1      28.642 -24.557 -15.219  0.00  0.00    -0.166 F 
ATOM     21  C   UNL     1      29.320 -23.467 -15.682  0.00  0.00    +0.419 C 
ENDBRANCH  14  21
ENDBRANCH   9  12
ENDBRANCH   3  10
BRANCH   1  22
ATOM     22  N   UNL     1      34.963 -18.976 -22.191  0.00  0.00    -0.312 N 
ATOM     23  H   UNL     1      34.834 -19.460 -23.039  0.00  0.00    +0.152 HD
BRANCH  22  25
ATOM     24  N   UNL     1      34.764 -15.413 -21.242  0.00  0.00    -0.241 NA
ATOM     25  C   UNL     1      34.756 -17.587 -22.297  0.00  0.00    +0.068 C 
ATOM     26  C   UNL     1      34.356 -17.012 -23.498  0.00  0.00    +0.022 C 
ATOM     27  C   UNL     1      34.945 -16.752 -21.208  0.00  0.00    +0.113 C 
ATOM     28  C   UNL     1      34.161 -15.637 -23.572  0.00  0.00    +0.073 C 
ATOM     29  C   UNL     1      34.375 -14.888 -22.426  0.00  0.00    +0.103 C 
BRANCH  28  32
ATOM     30  O   UNL     1      33.586 -15.663 -25.856  0.00  0.00    -0.270 OA
ATOM     31  N   UNL     1      33.503 -13.633 -24.792  0.00  0.00    -0.325 N 
ATOM     32  C   UNL     1      33.743 -15.005 -24.811  0.00  0.00    +0.244 C 
ATOM     33  H   UNL     1      33.218 -13.172 -25.614  0.00  0.00    +0.145 HD
ATOM     34  H   UNL     1      33.617 -13.125 -23.957  0.00  0.00    +0.145 HD
ENDBRANCH  28  32
ENDBRANCH  22  25
ENDBRANCH   1  22
TORSDOF 6
ENDMDL
MODEL 9
REMARK VINA RESULT:     -11.2      4.132      7.649
REMARK  Name = 24875320
REMARK  6 active torsions:
REMARK  status: ('A' for Active; 'I' for Inactive)
REMARK    1  A    between atoms: C_1  and  N_22
REMARK    2  A    between atoms: C_3  and  C_10
REMARK    3  A    between atoms: N_9  and  C_12
REMARK    4  A    between atoms: C_14  and  C_21
REMARK    5  A    between atoms: N_22  and  C_25
REMARK    6  A    between atoms: C_28  and  C_32
REMARK                            x       y       z     vdW  Elec       q    Type
REMARK                         _______ _______ _______ _____ _____    ______ ____
ROOT
ATOM      1  C   UNL     1      34.977 -18.066 -22.573  0.00  0.00    +0.044 C 
ATOM      2  C   UNL     1      34.616 -18.380 -23.882  0.00  0.00    -0.008 C 
ATOM      3  C   UNL     1      34.476 -15.740 -22.994  0.00  0.00    +0.055 C 
ATOM      4  C   UNL     1      34.908 -16.745 -22.129  0.00  0.00    +0.019 C 
ATOM      5  C   UNL     1      34.184 -17.376 -24.748  0.00  0.00    -0.003 C 
ATOM      6  C   UNL     1      34.115 -16.055 -24.304  0.00  0.00    +0.004 C 
ATOM      7  C   UNL     1      34.680 -19.787 -24.385  0.00  0.00    +0.032 C 
ENDROOT
BRANCH   3  10
ATOM      8  O   UNL     1      35.038 -14.035 -21.515  0.00  0.00    -0.270 OA
ATOM      9  N   UNL     1      33.586 -13.507 -23.282  0.00  0.00    -0.280 N 
ATOM     10  C   UNL     1      34.405 -14.363 -22.531  0.00  0.00    +0.250 C 
ATOM     11  H   UNL     1      33.147 -13.912 -24.065  0.00  0.00    +0.155 HD
BRANCH   9  12
ATOM     12  C   UNL     1      33.307 -12.136 -23.061  0.00  0.00    +0.050 C 
ATOM     13  C   UNL     1      34.211 -11.162 -23.485  0.00  0.00    +0.019 C 
ATOM     14  C   UNL     1      33.936  -9.812 -23.267  0.00  0.00    +0.073 C 
ATOM     15  C   UNL     1      32.128 -11.760 -22.418  0.00  0.00    +0.015 C 
ATOM     16  C   UNL     1      32.756  -9.436 -22.624  0.00  0.00    +0.004 C 
ATOM     17  C   UNL     1      31.853 -10.410 -22.200  0.00  0.00    +0.001 C 
BRANCH  14  21
ATOM     18  F   UNL     1      35.275  -7.903 -22.735  0.00  0.00    -0.166 F 
ATOM     19  F   UNL     1      36.072  -9.284 -24.205  0.00  0.00    -0.166 F 
ATOM     20  F   UNL     1      34.401  -7.992 -24.724  0.00  0.00    -0.166 F 
ATOM     21  C   UNL     1      34.902  -8.771 -23.720  0.00  0.00    +0.419 C 
ENDBRANCH  14  21
ENDBRANCH   9  12
ENDBRANCH   3  10
BRANCH   1  22
ATOM     22  N   UNL     1      35.415 -19.071 -21.683  0.00  0.00    -0.312 N 
ATOM     23  H   UNL     1      36.394 -19.173 -21.652  0.00  0.00    +0.152 HD
BRANCH  22  25
ATOM     24  N   UNL     1      32.630 -20.925 -20.121  0.00  0.00    -0.241 NA
ATOM     25  C   UNL     1      34.727 -19.954 -20.830  0.00  0.00    +0.068 C 
ATOM     26  C   UNL     1      35.407 -20.714 -19.885  0.00  0.00    +0.022 C 
ATOM     27  C   UNL     1      33.351 -20.095 -20.908  0.00  0.00    +0.113 C 
ATOM     28  C   UNL     1      34.700 -21.580 -19.058  0.00  0.00    +0.073 C 
ATOM     29  C   UNL     1      33.325 -21.647 -19.213  0.00  0.00    +0.103 C 
BRANCH  28  32
ATOM     30  O   UNL     1      34.806 -23.325 -17.480  0.00  0.00    -0.270 OA
ATOM     31  N   UNL     1      36.713 -22.089 -17.784  0.00  0.00    -0.325 N 
ATOM     32  C   UNL     1      35.380 -22.386 -18.061  0.00  0.00    +0.244 C 
ATOM     33  H   UNL     1      37.206 -22.615 -17.113  0.00  0.00    +0.145 HD
ATOM     34  H   UNL     1      37.162 -21.353 -18.259  0.00  0.00    +0.145 HD
ENDBRANCH  28  32
ENDBRANCH  22  25
ENDBRANCH   1  22
TORSDOF 6
ENDMDL
