MODEL 1
REMARK VINA RESULT:     -12.0      0.000      0.000
REMARK  Name = 10409068
REMARK  6 active torsions:
REMARK  status: ('A' for Active; 'I' for Inactive)
REMARK    1  A    between atoms: N_1  and  C_16
REMARK    2  A    between atoms: C_8  and  C_29
REMARK    3  A    between atoms: C_13  and  C_22
REMARK    4  A    between atoms: N_21  and  C_24
REMARK    5  A    between atoms: N_28  and  C_31
REMARK    6  A    between atoms: C_31  and  C_32
REMARK                            x       y       z     vdW  Elec       q    Type
REMARK                         _______ _______ _______ _____ _____    ______ ____
ROOT
ATOM      1  N   UNL     1      33.752 -12.950 -22.535  0.00  0.00    -0.297 N 
ATOM      2  N   UNL     1      34.173 -16.059 -24.499  0.00  0.00    -0.185 N 
ATOM      3  N   UNL     1      33.371 -13.501 -24.759  0.00  0.00    -0.206 NA
ATOM      4  N   UNL     1      33.765 -15.672 -25.732  0.00  0.00    -0.151 NA
ATOM      5  C   UNL     1      34.198 -15.230 -23.407  0.00  0.00    +0.102 C 
ATOM      6  C   UNL     1      34.666 -15.953 -22.333  0.00  0.00    +0.002 C 
ATOM      7  C   UNL     1      33.765 -13.862 -23.563  0.00  0.00    +0.149 C 
ATOM      8  C   UNL     1      34.933 -17.266 -22.797  0.00  0.00    +0.067 C 
ATOM      9  C   UNL     1      34.619 -17.303 -24.138  0.00  0.00    +0.094 C 
ATOM     10  C   UNL     1      34.864 -15.481 -20.946  0.00  0.00    +0.033 C 
ATOM     11  C   UNL     1      33.390 -14.424 -25.790  0.00  0.00    +0.219 C 
ATOM     12  H   UNL     1      34.427 -13.070 -21.830  0.00  0.00    +0.154 HD
ENDROOT
BRANCH   1  16
ATOM     13  C   UNL     1      32.168  -9.671 -23.079  0.00  0.00    +0.055 C 
ATOM     14  C   UNL     1      33.031 -10.759 -23.212  0.00  0.00    +0.019 C 
ATOM     15  C   UNL     1      31.153  -9.699 -22.121  0.00  0.00    +0.004 C 
ATOM     16  C   UNL     1      32.880 -11.874 -22.388  0.00  0.00    +0.045 C 
ATOM     17  C   UNL     1      31.866 -11.903 -21.431  0.00  0.00    -0.008 C 
ATOM     18  C   UNL     1      31.002 -10.815 -21.298  0.00  0.00    -0.003 C 
ATOM     19  C   UNL     1      31.682 -13.084 -20.535  0.00  0.00    +0.032 C 
BRANCH  13  22
ATOM     20  O   UNL     1      31.382  -8.114 -24.649  0.00  0.00    -0.270 OA
ATOM     21  N   UNL     1      33.575  -7.879 -23.937  0.00  0.00    -0.302 N 
ATOM     22  C   UNL     1      32.323  -8.508 -23.937  0.00  0.00    +0.246 C 
ATOM     23  H   UNL     1      34.279  -8.240 -23.351  0.00  0.00    +0.150 HD
BRANCH  21  24
ATOM     24  C   UNL     1      33.882  -6.734 -24.748  0.00  0.00    +0.072 C 
ATOM     25  C   UNL     1      34.803  -6.841 -25.927  0.00  0.00    +0.021 C 
ATOM     26  C   UNL     1      35.238  -6.092 -24.701  0.00  0.00    +0.021 C 
ENDBRANCH  21  24
ENDBRANCH  13  22
ENDBRANCH   1  16
BRANCH   8  29
ATOM     27  O   UNL     1      36.660 -18.657 -22.030  0.00  0.00    -0.270 OA
ATOM     28  N   UNL     1      34.505 -19.190 -21.368  0.00  0.00    -0.301 N 
ATOM     29  C   UNL     1      35.436 -18.388 -22.055  0.00  0.00    +0.247 C 
ATOM     30  H   UNL     1      33.554 -18.940 -21.416  0.00  0.00    +0.150 HD
BRANCH  28  31
ATOM     31  C   UNL     1      34.857 -20.354 -20.602  0.00  0.00    +0.090 C 
BRANCH  31  32
ATOM     32  C   UNL     1      33.659 -20.957 -19.879  0.00  0.00    +0.021 C 
ATOM     33  C   UNL     1      34.030 -22.169 -19.037  0.00  0.00    +0.002 C 
ENDBRANCH  31  32
ENDBRANCH  28  31
ENDBRANCH   8  29
TORSDOF 6
ENDMDL
MODEL 2
REMARK VINA RESULT:     -10.8      1.467      9.856
REMARK  Name = 10409068
REMARK  6 active torsions:
REMARK  status: ('A' for Active; 'I' for Inactive)
REMARK    1  A    between atoms: N_1  and  C_16
REMARK    2  A    between atoms: C_8  and  C_29
REMARK    3  A    between atoms: C_13  and  C_22
REMARK    4  A    between atoms: N_21  and  C_24
REMARK    5  A    between atoms: N_28  and  C_31
REMARK    6  A    between atoms: C_31  and  C_32
REMARK                            x       y       z     vdW  Elec       q    Type
REMARK                         _______ _______ _______ _____ _____    ______ ____
ROOT
ATOM      1  N   UNL     1      34.519 -14.520 -22.615  0.00  0.00    -0.297 N 
ATOM      2  N   UNL     1      32.094 -12.104 -21.209  0.00  0.00    -0.185 N 
ATOM      3  N   UNL     1      33.071 -14.580 -20.800  0.00  0.00    -0.206 NA
ATOM      4  N   UNL     1      31.595 -12.787 -20.151  0.00  0.00    -0.151 NA
ATOM      5  C   UNL     1      33.049 -12.601 -22.059  0.00  0.00    +0.102 C 
ATOM      6  C   UNL     1      33.315 -11.642 -23.011  0.00  0.00    +0.002 C 
ATOM      7  C   UNL     1      33.563 -13.929 -21.826  0.00  0.00    +0.149 C 
ATOM      8  C   UNL     1      32.489 -10.526 -22.722  0.00  0.00    +0.067 C 
ATOM      9  C   UNL     1      31.745 -10.839 -21.605  0.00  0.00    +0.094 C 
ATOM     10  C   UNL     1      34.273 -11.727 -24.133  0.00  0.00    +0.033 C 
ATOM     11  C   UNL     1      32.109 -13.977 -20.009  0.00  0.00    +0.219 C 
ATOM     12  H   UNL     1      35.168 -13.920 -23.048  0.00  0.00    +0.154 HD
ENDROOT
BRANCH   1  16
ATOM     13  C   UNL     1      35.349 -18.071 -22.103  0.00  0.00    +0.055 C 
ATOM     14  C   UNL     1      35.193 -16.705 -21.869  0.00  0.00    +0.019 C 
ATOM     15  C   UNL     1      34.978 -18.615 -23.334  0.00  0.00    +0.004 C 
ATOM     16  C   UNL     1      34.667 -15.882 -22.866  0.00  0.00    +0.045 C 
ATOM     17  C   UNL     1      34.296 -16.425 -24.096  0.00  0.00    -0.008 C 
ATOM     18  C   UNL     1      34.451 -17.792 -24.330  0.00  0.00    -0.003 C 
ATOM     19  C   UNL     1      33.730 -15.568 -25.181  0.00  0.00    +0.032 C 
BRANCH  13  22
ATOM     20  O   UNL     1      37.055 -18.757 -20.646  0.00  0.00    -0.270 OA
ATOM     21  N   UNL     1      35.074 -19.958 -20.589  0.00  0.00    -0.302 N 
ATOM     22  C   UNL     1      35.897 -18.930 -21.066  0.00  0.00    +0.246 C 
ATOM     23  H   UNL     1      34.167 -20.042 -20.962  0.00  0.00    +0.150 HD
BRANCH  21  24
ATOM     24  C   UNL     1      35.487 -20.896 -19.582  0.00  0.00    +0.072 C 
ATOM     25  C   UNL     1      35.777 -22.327 -19.925  0.00  0.00    +0.021 C 
ATOM     26  C   UNL     1      34.565 -21.981 -19.109  0.00  0.00    +0.021 C 
ENDBRANCH  21  24
ENDBRANCH  13  22
ENDBRANCH   1  16
BRANCH   8  29
ATOM     27  O   UNL     1      31.827  -9.195 -24.537  0.00  0.00    -0.270 OA
ATOM     28  N   UNL     1      33.000  -8.148 -22.836  0.00  0.00    -0.301 N 
ATOM     29  C   UNL     1      32.401  -9.278 -23.426  0.00  0.00    +0.247 C 
ATOM     30  H   UNL     1      33.440  -8.260 -21.962  0.00  0.00    +0.150 HD
BRANCH  28  31
ATOM     31  C   UNL     1      33.009  -6.840 -23.431  0.00  0.00    +0.090 C 
BRANCH  31  32
ATOM     32  C   UNL     1      34.419  -6.358 -23.751  0.00  0.00    +0.021 C 
ATOM     33  C   UNL     1      35.491  -7.354 -23.330  0.00  0.00    +0.002 C 
ENDBRANCH  31  32
ENDBRANCH  28  31
ENDBRANCH   8  29
TORSDOF 6
ENDMDL
MODEL 3
REMARK VINA RESULT:     -10.2      5.924     13.441
REMARK  Name = 10409068
REMARK  6 active torsions:
REMARK  status: ('A' for Active; 'I' for Inactive)
REMARK    1  A    between atoms: N_1  and  C_16
REMARK    2  A    between atoms: C_8  and  C_29
REMARK    3  A    between atoms: C_13  and  C_22
REMARK    4  A    between atoms: N_21  and  C_24
REMARK    5  A    between atoms: N_28  and  C_31
REMARK    6  A    between atoms: C_31  and  C_32
REMARK                            x       y       z     vdW  Elec       q    Type
REMARK                         _______ _______ _______ _____ _____    ______ ____
ROOT
ATOM      1  N   UNL     1      33.577 -23.133 -17.130  0.00  0.00    -0.297 N 
ATOM      2  N   UNL     1      36.301 -21.316 -18.855  0.00  0.00    -0.185 N 
ATOM      3  N   UNL     1      35.860 -22.939 -16.752  0.00  0.00    -0.206 NA
ATOM      4  N   UNL     1      37.379 -21.645 -18.104  0.00  0.00    -0.151 NA
ATOM      5  C   UNL     1      35.029 -21.762 -18.601  0.00  0.00    +0.102 C 
ATOM      6  C   UNL     1      34.192 -21.233 -19.560  0.00  0.00    +0.002 C 
ATOM      7  C   UNL     1      34.809 -22.631 -17.471  0.00  0.00    +0.149 C 
ATOM      8  C   UNL     1      34.992 -20.441 -20.422  0.00  0.00    +0.067 C 
ATOM      9  C   UNL     1      36.289 -20.510 -19.963  0.00  0.00    +0.094 C 
ATOM     10  C   UNL     1      32.734 -21.434 -19.692  0.00  0.00    +0.033 C 
ATOM     11  C   UNL     1      37.098 -22.431 -17.103  0.00  0.00    +0.219 C 
ATOM     12  H   UNL     1      32.940 -23.279 -17.866  0.00  0.00    +0.154 HD
ENDROOT
BRANCH   1  16
ATOM     13  C   UNL     1      33.643 -24.143 -13.590  0.00  0.00    +0.055 C 
ATOM     14  C   UNL     1      34.068 -23.815 -14.877  0.00  0.00    +0.019 C 
ATOM     15  C   UNL     1      32.285 -24.113 -13.274  0.00  0.00    +0.004 C 
ATOM     16  C   UNL     1      33.134 -23.457 -15.849  0.00  0.00    +0.045 C 
ATOM     17  C   UNL     1      31.776 -23.427 -15.535  0.00  0.00    -0.008 C 
ATOM     18  C   UNL     1      31.351 -23.754 -14.247  0.00  0.00    -0.003 C 
ATOM     19  C   UNL     1      30.754 -23.047 -16.557  0.00  0.00    +0.032 C 
BRANCH  13  22
ATOM     20  O   UNL     1      34.533 -24.063 -11.420  0.00  0.00    -0.270 OA
ATOM     21  N   UNL     1      35.645 -25.382 -12.967  0.00  0.00    -0.302 N 
ATOM     22  C   UNL     1      34.616 -24.517 -12.575  0.00  0.00    +0.246 C 
ATOM     23  H   UNL     1      35.655 -25.706 -13.896  0.00  0.00    +0.150 HD
BRANCH  21  24
ATOM     24  C   UNL     1      36.688 -25.820 -12.080  0.00  0.00    +0.072 C 
ATOM     25  C   UNL     1      37.844 -24.928 -11.738  0.00  0.00    +0.021 C 
ATOM     26  C   UNL     1      38.059 -26.141 -12.596  0.00  0.00    +0.021 C 
ENDBRANCH  21  24
ENDBRANCH  13  22
ENDBRANCH   1  16
BRANCH   8  29
ATOM     27  O   UNL     1      33.568 -20.006 -22.235  0.00  0.00    -0.270 OA
ATOM     28  N   UNL     1      35.370 -18.580 -21.945  0.00  0.00    -0.301 N 
ATOM     29  C   UNL     1      34.582 -19.686 -21.572  0.00  0.00    +0.247 C 
ATOM     30  H   UNL     1      36.158 -18.366 -21.395  0.00  0.00    +0.150 HD
BRANCH  28  31
ATOM     31  C   UNL     1      35.096 -17.745 -23.082  0.00  0.00    +0.090 C 
BRANCH  31  32
ATOM     32  C   UNL     1      34.975 -16.273 -22.705  0.00  0.00    +0.021 C 
ATOM     33  C   UNL     1      34.818 -16.061 -21.206  0.00  0.00    +0.002 C 
ENDBRANCH  31  32
ENDBRANCH  28  31
ENDBRANCH   8  29
TORSDOF 6
ENDMDL
MODEL 4
REMARK VINA RESULT:      -9.4      1.633      9.788
REMARK  Name = 10409068
REMARK  6 active torsions:
REMARK  status: ('A' for Active; 'I' for Inactive)
REMARK    1  A    between atoms: N_1  and  C_16
REMARK    2  A    between atoms: C_8  and  C_29
REMARK    3  A    between atoms: C_13  and  C_22
REMARK    4  A    between atoms: N_21  and  C_24
REMARK    5  A    between atoms: N_28  and  C_31
REMARK    6  A    between atoms: C_31  and  C_32
REMARK                            x       y       z     vdW  Elec       q    Type
REMARK                         _______ _______ _______ _____ _____    ______ ____
ROOT
ATOM      1  N   UNL     1      34.191 -12.971 -23.003  0.00  0.00    -0.297 N 
ATOM      2  N   UNL     1      31.806 -10.225 -22.317  0.00  0.00    -0.185 N 
ATOM      3  N   UNL     1      32.085 -12.888 -22.028  0.00  0.00    -0.206 NA
ATOM      4  N   UNL     1      30.779 -10.883 -21.728  0.00  0.00    -0.151 NA
ATOM      5  C   UNL     1      32.952 -10.835 -22.759  0.00  0.00    +0.102 C 
ATOM      6  C   UNL     1      33.771  -9.868 -23.298  0.00  0.00    +0.002 C 
ATOM      7  C   UNL     1      33.086 -12.263 -22.596  0.00  0.00    +0.149 C 
ATOM      8  C   UNL     1      33.092  -8.629 -23.174  0.00  0.00    +0.067 C 
ATOM      9  C   UNL     1      31.881  -8.880 -22.565  0.00  0.00    +0.094 C 
ATOM     10  C   UNL     1      35.109 -10.052 -23.898  0.00  0.00    +0.033 C 
ATOM     11  C   UNL     1      30.976 -12.168 -21.619  0.00  0.00    +0.219 C 
ATOM     12  H   UNL     1      35.051 -12.493 -22.991  0.00  0.00    +0.154 HD
ENDROOT
BRANCH   1  16
ATOM     13  C   UNL     1      34.660 -16.623 -22.949  0.00  0.00    +0.055 C 
ATOM     14  C   UNL     1      34.624 -15.290 -22.538  0.00  0.00    +0.019 C 
ATOM     15  C   UNL     1      34.291 -16.962 -24.251  0.00  0.00    +0.004 C 
ATOM     16  C   UNL     1      34.220 -14.297 -23.430  0.00  0.00    +0.045 C 
ATOM     17  C   UNL     1      33.851 -14.635 -24.732  0.00  0.00    -0.008 C 
ATOM     18  C   UNL     1      33.886 -15.968 -25.142  0.00  0.00    -0.003 C 
ATOM     19  C   UNL     1      33.413 -13.591 -25.708  0.00  0.00    +0.032 C 
BRANCH  13  22
ATOM     20  O   UNL     1      35.544 -17.362 -20.905  0.00  0.00    -0.270 OA
ATOM     21  N   UNL     1      34.963 -18.987 -22.452  0.00  0.00    -0.302 N 
ATOM     22  C   UNL     1      35.082 -17.660 -22.021  0.00  0.00    +0.246 C 
ATOM     23  H   UNL     1      34.590 -19.156 -23.347  0.00  0.00    +0.150 HD
BRANCH  21  24
ATOM     24  C   UNL     1      35.358 -20.114 -21.653  0.00  0.00    +0.072 C 
ATOM     25  C   UNL     1      34.634 -20.460 -20.386  0.00  0.00    +0.021 C 
ATOM     26  C   UNL     1      36.035 -19.925 -20.327  0.00  0.00    +0.021 C 
ENDBRANCH  21  24
ENDBRANCH  13  22
ENDBRANCH   1  16
BRANCH   8  29
ATOM     27  O   UNL     1      34.253  -6.617 -22.847  0.00  0.00    -0.270 OA
ATOM     28  N   UNL     1      33.114  -6.863 -24.849  0.00  0.00    -0.301 N 
ATOM     29  C   UNL     1      33.534  -7.327 -23.588  0.00  0.00    +0.247 C 
ATOM     30  H   UNL     1      32.550  -7.456 -25.397  0.00  0.00    +0.150 HD
BRANCH  28  31
ATOM     31  C   UNL     1      33.459  -5.576 -25.387  0.00  0.00    +0.090 C 
BRANCH  31  32
ATOM     32  C   UNL     1      34.892  -5.529 -25.906  0.00  0.00    +0.021 C 
ATOM     33  C   UNL     1      35.194  -6.641 -26.900  0.00  0.00    +0.002 C 
ENDBRANCH  31  32
ENDBRANCH  28  31
ENDBRANCH   8  29
TORSDOF 6
ENDMDL
MODEL 5
REMARK VINA RESULT:      -9.4      2.824      4.582
REMARK  Name = 10409068
REMARK  6 active torsions:
REMARK  status: ('A' for Active; 'I' for Inactive)
REMARK    1  A    between atoms: N_1  and  C_16
REMARK    2  A    between atoms: C_8  and  C_29
REMARK    3  A    between atoms: C_13  and  C_22
REMARK    4  A    between atoms: N_21  and  C_24
REMARK    5  A    between atoms: N_28  and  C_31
REMARK    6  A    between atoms: C_31  and  C_32
REMARK                            x       y       z     vdW  Elec       q    Type
REMARK                         _______ _______ _______ _____ _____    ______ ____
ROOT
ATOM      1  N   UNL     1      32.947 -10.014 -23.422  0.00  0.00    -0.297 N 
ATOM      2  N   UNL     1      32.567 -12.933 -21.179  0.00  0.00    -0.185 N 
ATOM      3  N   UNL     1      32.015 -10.300 -21.315  0.00  0.00    -0.206 NA
ATOM      4  N   UNL     1      31.932 -12.388 -20.113  0.00  0.00    -0.151 NA
ATOM      5  C   UNL     1      32.931 -12.224 -22.295  0.00  0.00    +0.102 C 
ATOM      6  C   UNL     1      33.550 -13.091 -23.168  0.00  0.00    +0.002 C 
ATOM      7  C   UNL     1      32.628 -10.814 -22.353  0.00  0.00    +0.149 C 
ATOM      8  C   UNL     1      33.557 -14.369 -22.554  0.00  0.00    +0.067 C 
ATOM      9  C   UNL     1      32.945 -14.241 -21.326  0.00  0.00    +0.094 C 
ATOM     10  C   UNL     1      34.111 -12.780 -24.500  0.00  0.00    +0.033 C 
ATOM     11  C   UNL     1      31.695 -11.113 -20.242  0.00  0.00    +0.219 C 
ATOM     12  H   UNL     1      32.971 -10.446 -24.306  0.00  0.00    +0.154 HD
ENDROOT
BRANCH   1  16
ATOM     13  C   UNL     1      32.515  -6.381 -23.008  0.00  0.00    +0.055 C 
ATOM     14  C   UNL     1      32.237  -7.747 -23.048  0.00  0.00    +0.019 C 
ATOM     15  C   UNL     1      33.798  -5.920 -23.305  0.00  0.00    +0.004 C 
ATOM     16  C   UNL     1      33.243  -8.653 -23.387  0.00  0.00    +0.045 C 
ATOM     17  C   UNL     1      34.526  -8.193 -23.683  0.00  0.00    -0.008 C 
ATOM     18  C   UNL     1      34.804  -6.827 -23.642  0.00  0.00    -0.003 C 
ATOM     19  C   UNL     1      35.622  -9.141 -24.048  0.00  0.00    +0.032 C 
BRANCH  13  22
ATOM     20  O   UNL     1      30.452  -5.812 -22.043  0.00  0.00    -0.270 OA
ATOM     21  N   UNL     1      31.649  -4.106 -23.056  0.00  0.00    -0.302 N 
ATOM     22  C   UNL     1      31.468  -5.435 -22.655  0.00  0.00    +0.246 C 
ATOM     23  H   UNL     1      32.475  -3.871 -23.538  0.00  0.00    +0.150 HD
BRANCH  21  24
ATOM     24  C   UNL     1      30.692  -3.066 -22.797  0.00  0.00    +0.072 C 
ATOM     25  C   UNL     1      30.704  -1.786 -23.578  0.00  0.00    +0.021 C 
ATOM     26  C   UNL     1      31.099  -1.786 -22.131  0.00  0.00    +0.021 C 
ENDBRANCH  21  24
ENDBRANCH  13  22
ENDBRANCH   1  16
BRANCH   8  29
ATOM     27  O   UNL     1      33.825 -15.992 -24.226  0.00  0.00    -0.270 OA
ATOM     28  N   UNL     1      34.907 -16.366 -22.213  0.00  0.00    -0.301 N 
ATOM     29  C   UNL     1      34.090 -15.600 -23.066  0.00  0.00    +0.247 C 
ATOM     30  H   UNL     1      35.088 -16.018 -21.309  0.00  0.00    +0.150 HD
BRANCH  28  31
ATOM     31  C   UNL     1      35.493 -17.625 -22.579  0.00  0.00    +0.090 C 
BRANCH  31  32
ATOM     32  C   UNL     1      35.872 -18.464 -21.364  0.00  0.00    +0.021 C 
ATOM     33  C   UNL     1      34.862 -19.563 -21.070  0.00  0.00    +0.002 C 
ENDBRANCH  31  32
ENDBRANCH  28  31
ENDBRANCH   8  29
TORSDOF 6
ENDMDL
MODEL 6
REMARK VINA RESULT:      -9.1      2.923     10.514
REMARK  Name = 10409068
REMARK  6 active torsions:
REMARK  status: ('A' for Active; 'I' for Inactive)
REMARK    1  A    between atoms: N_1  and  C_16
REMARK    2  A    between atoms: C_8  and  C_29
REMARK    3  A    between atoms: C_13  and  C_22
REMARK    4  A    between atoms: N_21  and  C_24
REMARK    5  A    between atoms: N_28  and  C_31
REMARK    6  A    between atoms: C_31  and  C_32
REMARK                            x       y       z     vdW  Elec       q    Type
REMARK                         _______ _______ _______ _____ _____    ______ ____
ROOT
ATOM      1  N   UNL     1      34.495 -18.654 -21.013  0.00  0.00    -0.297 N 
ATOM      2  N   UNL     1      34.190 -16.806 -24.205  0.00  0.00    -0.185 N 
ATOM      3  N   UNL     1      34.447 -19.307 -23.241  0.00  0.00    -0.206 NA
ATOM      4  N   UNL     1      34.231 -17.808 -25.116  0.00  0.00    -0.151 NA
ATOM      5  C   UNL     1      34.270 -17.002 -22.850  0.00  0.00    +0.102 C 
ATOM      6  C   UNL     1      34.196 -15.771 -22.235  0.00  0.00    +0.002 C 
ATOM      7  C   UNL     1      34.408 -18.348 -22.349  0.00  0.00    +0.149 C 
ATOM      8  C   UNL     1      34.066 -14.800 -23.260  0.00  0.00    +0.067 C 
ATOM      9  C   UNL     1      34.066 -15.467 -24.466  0.00  0.00    +0.094 C 
ATOM     10  C   UNL     1      34.240 -15.484 -20.786  0.00  0.00    +0.033 C 
ATOM     11  C   UNL     1      34.357 -18.992 -24.585  0.00  0.00    +0.219 C 
ATOM     12  H   UNL     1      34.031 -18.049 -20.390  0.00  0.00    +0.154 HD
ENDROOT
BRANCH   1  16
ATOM     13  C   UNL     1      35.104 -21.836 -19.264  0.00  0.00    +0.055 C 
ATOM     14  C   UNL     1      34.442 -20.750 -19.836  0.00  0.00    +0.019 C 
ATOM     15  C   UNL     1      36.497 -21.904 -19.304  0.00  0.00    +0.004 C 
ATOM     16  C   UNL     1      35.173 -19.731 -20.447  0.00  0.00    +0.045 C 
ATOM     17  C   UNL     1      36.566 -19.798 -20.488  0.00  0.00    -0.008 C 
ATOM     18  C   UNL     1      37.228 -20.885 -19.916  0.00  0.00    -0.003 C 
ATOM     19  C   UNL     1      37.373 -18.721 -21.136  0.00  0.00    +0.032 C 
BRANCH  13  22
ATOM     20  O   UNL     1      33.884 -23.840 -19.296  0.00  0.00    -0.270 OA
ATOM     21  N   UNL     1      34.141 -22.795 -17.244  0.00  0.00    -0.302 N 
ATOM     22  C   UNL     1      34.344 -22.899 -18.626  0.00  0.00    +0.246 C 
ATOM     23  H   UNL     1      34.531 -22.026 -16.770  0.00  0.00    +0.150 HD
BRANCH  21  24
ATOM     24  C   UNL     1      33.393 -23.758 -16.482  0.00  0.00    +0.072 C 
ATOM     25  C   UNL     1      31.974 -23.493 -16.076  0.00  0.00    +0.021 C 
ATOM     26  C   UNL     1      33.060 -23.514 -15.040  0.00  0.00    +0.021 C 
ENDBRANCH  21  24
ENDBRANCH  13  22
ENDBRANCH   1  16
BRANCH   8  29
ATOM     27  O   UNL     1      34.908 -12.615 -23.410  0.00  0.00    -0.270 OA
ATOM     28  N   UNL     1      32.734 -12.856 -22.645  0.00  0.00    -0.301 N 
ATOM     29  C   UNL     1      33.952 -13.374 -23.126  0.00  0.00    +0.247 C 
ATOM     30  H   UNL     1      32.012 -13.491 -22.435  0.00  0.00    +0.150 HD
BRANCH  28  31
ATOM     31  C   UNL     1      32.482 -11.456 -22.440  0.00  0.00    +0.090 C 
BRANCH  31  32
ATOM     32  C   UNL     1      31.552 -11.201 -21.260  0.00  0.00    +0.021 C 
ATOM     33  C   UNL     1      31.950 -11.984 -20.017  0.00  0.00    +0.002 C 
ENDBRANCH  31  32
ENDBRANCH  28  31
ENDBRANCH   8  29
TORSDOF 6
ENDMDL
