MODEL 1
REMARK VINA RESULT:     -11.5      0.000      0.000
REMARK  Name = 5497056
REMARK  11 active torsions:
REMARK  status: ('A' for Active; 'I' for Inactive)
REMARK    1  A    between atoms: N_2  and  C_22
REMARK    2  A    between atoms: C_3  and  C_5
REMARK    3  A    between atoms: C_8  and  C_11
REMARK    4  A    between atoms: C_13  and  C_17
REMARK    5  A    between atoms: C_17  and  N_18
REMARK    6  A    between atoms: C_22  and  C_24
REMARK    7  A    between atoms: C_24  and  C_26
REMARK    8  A    between atoms: C_24  and  C_29
REMARK    9  A    between atoms: C_26  and  O_27
REMARK   10  A    between atoms: C_29  and  C_30
REMARK   11  A    between atoms: C_33  and  C_38
REMARK                            x       y       z     vdW  Elec       q    Type
REMARK                         _______ _______ _______ _____ _____    ______ ____
ROOT
ATOM      1  O   UNL     1      33.078 -24.679 -17.328  0.00  0.00    -0.270 OA
ATOM      2  N   UNL     1      31.746 -22.944 -16.556  0.00  0.00    -0.302 N 
ATOM      3  C   UNL     1      32.737 -23.500 -17.351  0.00  0.00    +0.246 C 
ATOM      4  H   UNL     1      31.546 -21.985 -16.649  0.00  0.00    +0.150 HD
ENDROOT
BRANCH   3   5
ATOM      5  C   UNL     1      33.433 -22.561 -18.269  0.00  0.00    +0.053 C 
ATOM      6  C   UNL     1      32.695 -21.667 -19.044  0.00  0.00    +0.005 C 
ATOM      7  C   UNL     1      34.826 -22.574 -18.355  0.00  0.00    +0.005 C 
ATOM      8  C   UNL     1      34.741 -20.798 -19.991  0.00  0.00    -0.000 C 
ATOM      9  C   UNL     1      33.349 -20.786 -19.906  0.00  0.00    +0.000 C 
ATOM     10  C   UNL     1      35.479 -21.692 -19.216  0.00  0.00    +0.000 C 
BRANCH   8  11
ATOM     11  C   UNL     1      35.417 -19.882 -20.885  0.00  0.00    -0.000 C 
ATOM     12  C   UNL     1      34.718 -19.286 -21.933  0.00  0.00    -0.006 C 
ATOM     13  C   UNL     1      35.371 -18.403 -22.793  0.00  0.00    -0.044 C 
ATOM     14  C   UNL     1      36.770 -19.597 -20.696  0.00  0.00    -0.000 C 
ATOM     15  C   UNL     1      36.724 -18.119 -22.605  0.00  0.00    -0.006 C 
ATOM     16  C   UNL     1      37.423 -18.715 -21.556  0.00  0.00    -0.000 C 
BRANCH  13  17
ATOM     17  C   UNL     1      34.623 -17.764 -23.914  0.00  0.00    -0.059 C 
BRANCH  17  18
ATOM     18  N   UNL     1      35.081 -16.400 -24.184  0.00  0.00    +0.383 N 
ATOM     19  H   UNL     1      36.049 -16.300 -23.880  0.00  0.00    -0.089 HD
ATOM     20  H   UNL     1      34.495 -15.737 -23.677  0.00  0.00    -0.089 HD
ATOM     21  H   UNL     1      35.017 -16.213 -25.185  0.00  0.00    -0.089 HD
ENDBRANCH  17  18
ENDBRANCH  13  17
ENDBRANCH   8  11
ENDBRANCH   3   5
BRANCH   2  22
ATOM     22  C   UNL     1      30.997 -23.721 -15.597  0.00  0.00    +0.083 C 
ATOM     23  C   UNL     1      30.029 -22.820 -14.832  0.00  0.00    +0.022 C 
BRANCH  22  24
ATOM     24  C   UNL     1      31.907 -24.539 -14.654  0.00  0.00    +0.121 C 
BRANCH  24  26
ATOM     25  O   UNL     1      31.171 -25.284 -12.453  0.00  0.00    -0.250 OA
ATOM     26  C   UNL     1      31.087 -25.369 -13.672  0.00  0.00    +0.319 C 
BRANCH  26  27
ATOM     27  O   UNL     1      30.258 -26.207 -14.359  0.00  0.00    -0.444 OA
ATOM     28  C   UNL     1      28.870 -26.110 -14.026  0.00  0.00    +0.256 C 
ENDBRANCH  26  27
ENDBRANCH  24  26
BRANCH  24  29
ATOM     29  C   UNL     1      32.898 -23.642 -13.884  0.00  0.00    +0.039 C 
BRANCH  29  30
ATOM     30  C   UNL     1      34.337 -23.884 -14.278  0.00  0.00    -0.021 C 
ATOM     31  C   UNL     1      34.850 -25.180 -14.279  0.00  0.00    -0.002 C 
ATOM     32  C   UNL     1      35.151 -22.811 -14.640  0.00  0.00    -0.004 C 
ATOM     33  C   UNL     1      36.179 -25.404 -14.641  0.00  0.00    +0.030 C 
ATOM     34  C   UNL     1      36.480 -23.035 -15.002  0.00  0.00    -0.000 C 
ATOM     35  C   UNL     1      36.994 -24.331 -15.003  0.00  0.00    +0.003 C 
BRANCH  33  38
ATOM     36  N   UNL     1      37.194 -27.345 -13.471  0.00  0.00    -0.343 N 
ATOM     37  N   UNL     1      36.760 -27.447 -15.765  0.00  0.00    -0.285 NA
ATOM     38  C   UNL     1      36.716 -26.755 -14.640  0.00  0.00    +0.117 C 
ATOM     39  H   UNL     1      37.555 -28.261 -13.493  0.00  0.00    +0.144 HD
ATOM     40  H   UNL     1      37.174 -26.844 -12.623  0.00  0.00    +0.144 HD
ATOM     41  H   UNL     1      37.123 -28.362 -15.766  0.00  0.00    +0.188 HD
ENDBRANCH  33  38
ENDBRANCH  29  30
ENDBRANCH  24  29
ENDBRANCH  22  24
ENDBRANCH   2  22
TORSDOF 11
ENDMDL
MODEL 2
REMARK VINA RESULT:     -11.3      2.281      3.487
REMARK  Name = 5497056
REMARK  11 active torsions:
REMARK  status: ('A' for Active; 'I' for Inactive)
REMARK    1  A    between atoms: N_2  and  C_22
REMARK    2  A    between atoms: C_3  and  C_5
REMARK    3  A    between atoms: C_8  and  C_11
REMARK    4  A    between atoms: C_13  and  C_17
REMARK    5  A    between atoms: C_17  and  N_18
REMARK    6  A    between atoms: C_22  and  C_24
REMARK    7  A    between atoms: C_24  and  C_26
REMARK    8  A    between atoms: C_24  and  C_29
REMARK    9  A    between atoms: C_26  and  O_27
REMARK   10  A    between atoms: C_29  and  C_30
REMARK   11  A    between atoms: C_33  and  C_38
REMARK                            x       y       z     vdW  Elec       q    Type
REMARK                         _______ _______ _______ _____ _____    ______ ____
ROOT
ATOM      1  O   UNL     1      33.752 -24.384 -18.749  0.00  0.00    -0.270 OA
ATOM      2  N   UNL     1      33.535 -22.979 -16.917  0.00  0.00    -0.302 N 
ATOM      3  C   UNL     1      33.733 -23.257 -18.261  0.00  0.00    +0.246 C 
ATOM      4  H   UNL     1      33.537 -22.039 -16.623  0.00  0.00    +0.150 HD
ENDROOT
BRANCH   3   5
ATOM      5  C   UNL     1      33.962 -22.082 -19.140  0.00  0.00    +0.053 C 
ATOM      6  C   UNL     1      32.877 -21.344 -19.614  0.00  0.00    +0.005 C 
ATOM      7  C   UNL     1      35.261 -21.715 -19.491  0.00  0.00    +0.005 C 
ATOM      8  C   UNL     1      34.390 -19.873 -20.790  0.00  0.00    -0.000 C 
ATOM      9  C   UNL     1      33.091 -20.240 -20.440  0.00  0.00    +0.000 C 
ATOM     10  C   UNL     1      35.475 -20.611 -20.316  0.00  0.00    +0.000 C 
BRANCH   8  11
ATOM     11  C   UNL     1      34.611 -18.727 -21.646  0.00  0.00    -0.000 C 
ATOM     12  C   UNL     1      34.641 -17.444 -21.099  0.00  0.00    -0.006 C 
ATOM     13  C   UNL     1      34.854 -16.340 -21.925  0.00  0.00    -0.044 C 
ATOM     14  C   UNL     1      34.795 -18.907 -23.017  0.00  0.00    -0.000 C 
ATOM     15  C   UNL     1      35.036 -16.519 -23.296  0.00  0.00    -0.006 C 
ATOM     16  C   UNL     1      35.008 -17.802 -23.842  0.00  0.00    -0.000 C 
BRANCH  13  17
ATOM     17  C   UNL     1      34.886 -14.968 -21.341  0.00  0.00    -0.059 C 
BRANCH  17  18
ATOM     18  N   UNL     1      34.595 -13.932 -22.333  0.00  0.00    +0.383 N 
ATOM     19  H   UNL     1      33.607 -13.970 -22.584  0.00  0.00    -0.089 HD
ATOM     20  H   UNL     1      35.163 -14.088 -23.166  0.00  0.00    -0.089 HD
ATOM     21  H   UNL     1      34.812 -13.016 -21.941  0.00  0.00    -0.089 HD
ENDBRANCH  17  18
ENDBRANCH  13  17
ENDBRANCH   8  11
ENDBRANCH   3   5
BRANCH   2  22
ATOM     22  C   UNL     1      33.324 -24.015 -15.934  0.00  0.00    +0.083 C 
ATOM     23  C   UNL     1      31.983 -23.810 -15.233  0.00  0.00    +0.022 C 
BRANCH  22  24
ATOM     24  C   UNL     1      34.497 -24.132 -14.935  0.00  0.00    +0.121 C 
BRANCH  24  26
ATOM     25  O   UNL     1      35.667 -22.057 -14.418  0.00  0.00    -0.250 OA
ATOM     26  C   UNL     1      35.524 -23.026 -15.153  0.00  0.00    +0.319 C 
BRANCH  26  27
ATOM     27  O   UNL     1      36.246 -23.286 -16.282  0.00  0.00    -0.444 OA
ATOM     28  C   UNL     1      37.357 -22.414 -16.517  0.00  0.00    +0.256 C 
ENDBRANCH  26  27
ENDBRANCH  24  26
BRANCH  24  29
ATOM     29  C   UNL     1      35.185 -25.510 -15.009  0.00  0.00    +0.039 C 
BRANCH  29  30
ATOM     30  C   UNL     1      36.385 -25.617 -14.096  0.00  0.00    -0.021 C 
ATOM     31  C   UNL     1      37.637 -25.930 -14.623  0.00  0.00    -0.002 C 
ATOM     32  C   UNL     1      36.239 -25.403 -12.725  0.00  0.00    -0.004 C 
ATOM     33  C   UNL     1      38.744 -26.030 -13.781  0.00  0.00    +0.030 C 
ATOM     34  C   UNL     1      37.346 -25.504 -11.882  0.00  0.00    -0.000 C 
ATOM     35  C   UNL     1      38.599 -25.816 -12.409  0.00  0.00    +0.003 C 
BRANCH  33  38
ATOM     36  N   UNL     1      41.029 -26.974 -13.553  0.00  0.00    -0.343 N 
ATOM     37  N   UNL     1      40.327 -26.067 -15.588  0.00  0.00    -0.285 NA
ATOM     38  C   UNL     1      40.050 -26.358 -14.330  0.00  0.00    +0.117 C 
ATOM     39  H   UNL     1      41.907 -27.187 -13.945  0.00  0.00    +0.144 HD
ATOM     40  H   UNL     1      40.844 -27.196 -12.611  0.00  0.00    +0.144 HD
ATOM     41  H   UNL     1      41.210 -26.288 -15.962  0.00  0.00    +0.188 HD
ENDBRANCH  33  38
ENDBRANCH  29  30
ENDBRANCH  24  29
ENDBRANCH  22  24
ENDBRANCH   2  22
TORSDOF 11
ENDMDL
MODEL 3
REMARK VINA RESULT:     -10.9      3.757     10.672
REMARK  Name = 5497056
REMARK  11 active torsions:
REMARK  status: ('A' for Active; 'I' for Inactive)
REMARK    1  A    between atoms: N_2  and  C_22
REMARK    2  A    between atoms: C_3  and  C_5
REMARK    3  A    between atoms: C_8  and  C_11
REMARK    4  A    between atoms: C_13  and  C_17
REMARK    5  A    between atoms: C_17  and  N_18
REMARK    6  A    between atoms: C_22  and  C_24
REMARK    7  A    between atoms: C_24  and  C_26
REMARK    8  A    between atoms: C_24  and  C_29
REMARK    9  A    between atoms: C_26  and  O_27
REMARK   10  A    between atoms: C_29  and  C_30
REMARK   11  A    between atoms: C_33  and  C_38
REMARK                            x       y       z     vdW  Elec       q    Type
REMARK                         _______ _______ _______ _____ _____    ______ ____
ROOT
ATOM      1  O   UNL     1      36.881 -22.059 -19.717  0.00  0.00    -0.270 OA
ATOM      2  N   UNL     1      35.265 -20.460 -20.172  0.00  0.00    -0.302 N 
ATOM      3  C   UNL     1      35.784 -21.555 -19.498  0.00  0.00    +0.246 C 
ATOM      4  H   UNL     1      34.372 -20.129 -19.922  0.00  0.00    +0.150 HD
ENDROOT
BRANCH   3   5
ATOM      5  C   UNL     1      34.906 -22.151 -18.458  0.00  0.00    +0.053 C 
ATOM      6  C   UNL     1      33.536 -22.272 -18.687  0.00  0.00    +0.005 C 
ATOM      7  C   UNL     1      35.452 -22.590 -17.251  0.00  0.00    +0.005 C 
ATOM      8  C   UNL     1      33.258 -23.271 -16.505  0.00  0.00    -0.000 C 
ATOM      9  C   UNL     1      32.712 -22.831 -17.710  0.00  0.00    +0.000 C 
ATOM     10  C   UNL     1      34.629 -23.150 -16.275  0.00  0.00    +0.000 C 
BRANCH   8  11
ATOM     11  C   UNL     1      32.402 -23.852 -15.493  0.00  0.00    -0.000 C 
ATOM     12  C   UNL     1      31.041 -24.024 -15.745  0.00  0.00    -0.006 C 
ATOM     13  C   UNL     1      30.217 -24.585 -14.770  0.00  0.00    -0.044 C 
ATOM     14  C   UNL     1      32.939 -24.240 -14.266  0.00  0.00    -0.000 C 
ATOM     15  C   UNL     1      30.754 -24.973 -13.542  0.00  0.00    -0.006 C 
ATOM     16  C   UNL     1      32.115 -24.801 -13.290  0.00  0.00    -0.000 C 
BRANCH  13  17
ATOM     17  C   UNL     1      28.762 -24.770 -15.039  0.00  0.00    -0.059 C 
BRANCH  17  18
ATOM     18  N   UNL     1      28.354 -24.192 -16.320  0.00  0.00    +0.383 N 
ATOM     19  H   UNL     1      27.545 -23.586 -16.178  0.00  0.00    -0.089 HD
ATOM     20  H   UNL     1      28.109 -24.939 -16.969  0.00  0.00    -0.089 HD
ATOM     21  H   UNL     1      29.124 -23.646 -16.707  0.00  0.00    -0.089 HD
ENDBRANCH  17  18
ENDBRANCH  13  17
ENDBRANCH   8  11
ENDBRANCH   3   5
BRANCH   2  22
ATOM     22  C   UNL     1      35.986 -19.786 -21.226  0.00  0.00    +0.083 C 
ATOM     23  C   UNL     1      37.211 -19.076 -20.654  0.00  0.00    +0.022 C 
BRANCH  22  24
ATOM     24  C   UNL     1      35.086 -18.836 -22.048  0.00  0.00    +0.121 C 
BRANCH  24  26
ATOM     25  O   UNL     1      35.119 -20.443 -23.880  0.00  0.00    -0.250 OA
ATOM     26  C   UNL     1      34.556 -19.522 -23.303  0.00  0.00    +0.319 C 
BRANCH  26  27
ATOM     27  O   UNL     1      33.373 -18.951 -23.673  0.00  0.00    -0.444 OA
ATOM     28  C   UNL     1      33.408 -18.195 -24.888  0.00  0.00    +0.256 C 
ENDBRANCH  26  27
ENDBRANCH  24  26
BRANCH  24  29
ATOM     29  C   UNL     1      35.818 -17.534 -22.430  0.00  0.00    +0.039 C 
BRANCH  29  30
ATOM     30  C   UNL     1      35.052 -16.293 -22.033  0.00  0.00    -0.021 C 
ATOM     31  C   UNL     1      34.655 -15.377 -23.006  0.00  0.00    -0.002 C 
ATOM     32  C   UNL     1      34.743 -16.063 -20.692  0.00  0.00    -0.004 C 
ATOM     33  C   UNL     1      33.949 -14.231 -22.640  0.00  0.00    +0.030 C 
ATOM     34  C   UNL     1      34.038 -14.917 -20.325  0.00  0.00    -0.000 C 
ATOM     35  C   UNL     1      33.641 -14.000 -21.298  0.00  0.00    +0.003 C 
BRANCH  33  38
ATOM     36  N   UNL     1      33.448 -13.635 -24.998  0.00  0.00    -0.343 N 
ATOM     37  N   UNL     1      33.241 -12.034 -23.308  0.00  0.00    -0.285 NA
ATOM     38  C   UNL     1      33.537 -13.274 -23.654  0.00  0.00    +0.117 C 
ATOM     39  H   UNL     1      33.167 -12.971 -25.668  0.00  0.00    +0.144 HD
ATOM     40  H   UNL     1      33.668 -14.553 -25.277  0.00  0.00    +0.144 HD
ATOM     41  H   UNL     1      32.961 -11.385 -23.993  0.00  0.00    +0.188 HD
ENDBRANCH  33  38
ENDBRANCH  29  30
ENDBRANCH  24  29
ENDBRANCH  22  24
ENDBRANCH   2  22
TORSDOF 11
ENDMDL
MODEL 4
REMARK VINA RESULT:     -10.8      8.356     14.531
REMARK  Name = 5497056
REMARK  11 active torsions:
REMARK  status: ('A' for Active; 'I' for Inactive)
REMARK    1  A    between atoms: N_2  and  C_22
REMARK    2  A    between atoms: C_3  and  C_5
REMARK    3  A    between atoms: C_8  and  C_11
REMARK    4  A    between atoms: C_13  and  C_17
REMARK    5  A    between atoms: C_17  and  N_18
REMARK    6  A    between atoms: C_22  and  C_24
REMARK    7  A    between atoms: C_24  and  C_26
REMARK    8  A    between atoms: C_24  and  C_29
REMARK    9  A    between atoms: C_26  and  O_27
REMARK   10  A    between atoms: C_29  and  C_30
REMARK   11  A    between atoms: C_33  and  C_38
REMARK                            x       y       z     vdW  Elec       q    Type
REMARK                         _______ _______ _______ _____ _____    ______ ____
ROOT
ATOM      1  O   UNL     1      33.688 -13.410 -24.866  0.00  0.00    -0.270 OA
ATOM      2  N   UNL     1      33.575 -12.424 -22.770  0.00  0.00    -0.302 N 
ATOM      3  C   UNL     1      33.817 -13.471 -23.646  0.00  0.00    +0.246 C 
ATOM      4  H   UNL     1      33.706 -12.574 -21.805  0.00  0.00    +0.150 HD
ENDROOT
BRANCH   3   5
ATOM      5  C   UNL     1      34.235 -14.754 -23.025  0.00  0.00    +0.053 C 
ATOM      6  C   UNL     1      34.331 -14.857 -21.637  0.00  0.00    +0.005 C 
ATOM      7  C   UNL     1      34.532 -15.855 -23.828  0.00  0.00    +0.005 C 
ATOM      8  C   UNL     1      35.020 -17.163 -21.856  0.00  0.00    -0.000 C 
ATOM      9  C   UNL     1      34.724 -16.061 -21.052  0.00  0.00    +0.000 C 
ATOM     10  C   UNL     1      34.924 -17.059 -23.243  0.00  0.00    +0.000 C 
BRANCH   8  11
ATOM     11  C   UNL     1      35.426 -18.412 -21.248  0.00  0.00    -0.000 C 
ATOM     12  C   UNL     1      34.464 -19.341 -20.854  0.00  0.00    -0.006 C 
ATOM     13  C   UNL     1      34.857 -20.545 -20.269  0.00  0.00    -0.044 C 
ATOM     14  C   UNL     1      36.781 -18.684 -21.057  0.00  0.00    -0.000 C 
ATOM     15  C   UNL     1      36.212 -20.818 -20.077  0.00  0.00    -0.006 C 
ATOM     16  C   UNL     1      37.174 -19.888 -20.471  0.00  0.00    -0.000 C 
BRANCH  13  17
ATOM     17  C   UNL     1      33.829 -21.540 -19.849  0.00  0.00    -0.059 C 
BRANCH  17  18
ATOM     18  N   UNL     1      32.548 -20.914 -19.520  0.00  0.00    +0.383 N 
ATOM     19  H   UNL     1      32.688 -19.916 -19.361  0.00  0.00    -0.089 HD
ATOM     20  H   UNL     1      32.166 -21.342 -18.677  0.00  0.00    -0.089 HD
ATOM     21  H   UNL     1      31.896 -21.047 -20.294  0.00  0.00    -0.089 HD
ENDBRANCH  17  18
ENDBRANCH  13  17
ENDBRANCH   8  11
ENDBRANCH   3   5
BRANCH   2  22
ATOM     22  C   UNL     1      33.138 -11.123 -23.219  0.00  0.00    +0.083 C 
ATOM     23  C   UNL     1      34.344 -10.267 -23.601  0.00  0.00    +0.022 C 
BRANCH  22  24
ATOM     24  C   UNL     1      32.219 -10.420 -22.195  0.00  0.00    +0.121 C 
BRANCH  24  26
ATOM     25  O   UNL     1      31.175 -12.580 -21.765  0.00  0.00    -0.250 OA
ATOM     26  C   UNL     1      31.392 -11.430 -21.406  0.00  0.00    +0.319 C 
BRANCH  26  27
ATOM     27  O   UNL     1      30.941 -10.854 -20.254  0.00  0.00    -0.444 OA
ATOM     28  C   UNL     1      31.877 -10.829 -19.171  0.00  0.00    +0.256 C 
ENDBRANCH  26  27
ENDBRANCH  24  26
BRANCH  24  29
ATOM     29  C   UNL     1      31.288  -9.389 -22.866  0.00  0.00    +0.039 C 
BRANCH  29  30
ATOM     30  C   UNL     1      31.618  -7.965 -22.484  0.00  0.00    -0.021 C 
ATOM     31  C   UNL     1      31.461  -6.939 -23.415  0.00  0.00    -0.002 C 
ATOM     32  C   UNL     1      32.083  -7.677 -21.201  0.00  0.00    -0.004 C 
ATOM     33  C   UNL     1      31.768  -5.624 -23.064  0.00  0.00    +0.030 C 
ATOM     34  C   UNL     1      32.390  -6.362 -20.849  0.00  0.00    -0.000 C 
ATOM     35  C   UNL     1      32.233  -5.336 -21.780  0.00  0.00    +0.003 C 
BRANCH  33  38
ATOM     36  N   UNL     1      30.539  -3.661 -23.959  0.00  0.00    -0.343 N 
ATOM     37  N   UNL     1      32.480  -4.418 -25.017  0.00  0.00    -0.285 NA
ATOM     38  C   UNL     1      31.606  -4.555 -24.035  0.00  0.00    +0.117 C 
ATOM     39  H   UNL     1      30.448  -2.944 -24.628  0.00  0.00    +0.144 HD
ATOM     40  H   UNL     1      29.875  -3.748 -23.237  0.00  0.00    +0.144 HD
ATOM     41  H   UNL     1      32.372  -3.695 -25.675  0.00  0.00    +0.188 HD
ENDBRANCH  33  38
ENDBRANCH  29  30
ENDBRANCH  24  29
ENDBRANCH  22  24
ENDBRANCH   2  22
TORSDOF 11
ENDMDL
MODEL 5
REMARK VINA RESULT:     -10.7      1.568      2.110
REMARK  Name = 5497056
REMARK  11 active torsions:
REMARK  status: ('A' for Active; 'I' for Inactive)
REMARK    1  A    between atoms: N_2  and  C_22
REMARK    2  A    between atoms: C_3  and  C_5
REMARK    3  A    between atoms: C_8  and  C_11
REMARK    4  A    between atoms: C_13  and  C_17
REMARK    5  A    between atoms: C_17  and  N_18
REMARK    6  A    between atoms: C_22  and  C_24
REMARK    7  A    between atoms: C_24  and  C_26
REMARK    8  A    between atoms: C_24  and  C_29
REMARK    9  A    between atoms: C_26  and  O_27
REMARK   10  A    between atoms: C_29  and  C_30
REMARK   11  A    between atoms: C_33  and  C_38
REMARK                            x       y       z     vdW  Elec       q    Type
REMARK                         _______ _______ _______ _____ _____    ______ ____
ROOT
ATOM      1  O   UNL     1      33.728 -24.356 -18.007  0.00  0.00    -0.270 OA
ATOM      2  N   UNL     1      32.181 -22.957 -16.995  0.00  0.00    -0.302 N 
ATOM      3  C   UNL     1      33.156 -23.273 -17.929  0.00  0.00    +0.246 C 
ATOM      4  H   UNL     1      31.781 -22.058 -17.014  0.00  0.00    +0.150 HD
ENDROOT
BRANCH   3   5
ATOM      5  C   UNL     1      33.525 -22.187 -18.873  0.00  0.00    +0.053 C 
ATOM      6  C   UNL     1      34.865 -21.970 -19.195  0.00  0.00    +0.005 C 
ATOM      7  C   UNL     1      32.534 -21.384 -19.436  0.00  0.00    +0.005 C 
ATOM      8  C   UNL     1      34.221 -20.147 -20.645  0.00  0.00    -0.000 C 
ATOM      9  C   UNL     1      35.213 -20.950 -20.081  0.00  0.00    +0.000 C 
ATOM     10  C   UNL     1      32.881 -20.365 -20.323  0.00  0.00    +0.000 C 
BRANCH   8  11
ATOM     11  C   UNL     1      34.583 -19.091 -21.565  0.00  0.00    -0.000 C 
ATOM     12  C   UNL     1      34.622 -17.767 -21.127  0.00  0.00    -0.006 C 
ATOM     13  C   UNL     1      34.971 -16.749 -22.014  0.00  0.00    -0.044 C 
ATOM     14  C   UNL     1      34.893 -19.397 -22.890  0.00  0.00    -0.000 C 
ATOM     15  C   UNL     1      35.281 -17.055 -23.339  0.00  0.00    -0.006 C 
ATOM     16  C   UNL     1      35.242 -18.379 -23.777  0.00  0.00    -0.000 C 
BRANCH  13  17
ATOM     17  C   UNL     1      35.014 -15.334 -21.546  0.00  0.00    -0.059 C 
BRANCH  17  18
ATOM     18  N   UNL     1      34.342 -15.152 -20.258  0.00  0.00    +0.383 N 
ATOM     19  H   UNL     1      34.604 -15.909 -19.627  0.00  0.00    -0.089 HD
ATOM     20  H   UNL     1      33.331 -15.160 -20.398  0.00  0.00    -0.089 HD
ATOM     21  H   UNL     1      34.621 -14.258 -19.853  0.00  0.00    -0.089 HD
ENDBRANCH  17  18
ENDBRANCH  13  17
ENDBRANCH   8  11
ENDBRANCH   3   5
BRANCH   2  22
ATOM     22  C   UNL     1      31.732 -23.898 -15.995  0.00  0.00    +0.083 C 
ATOM     23  C   UNL     1      30.451 -23.391 -15.335  0.00  0.00    +0.022 C 
BRANCH  22  24
ATOM     24  C   UNL     1      32.831 -24.237 -14.963  0.00  0.00    +0.121 C 
BRANCH  24  26
ATOM     25  O   UNL     1      31.710 -25.806 -13.473  0.00  0.00    -0.250 OA
ATOM     26  C   UNL     1      32.227 -24.710 -13.645  0.00  0.00    +0.319 C 
BRANCH  26  27
ATOM     27  O   UNL     1      32.353 -23.729 -12.704  0.00  0.00    -0.444 OA
ATOM     28  C   UNL     1      31.144 -23.366 -12.028  0.00  0.00    +0.256 C 
ENDBRANCH  26  27
ENDBRANCH  24  26
BRANCH  24  29
ATOM     29  C   UNL     1      33.775 -23.043 -14.710  0.00  0.00    +0.039 C 
BRANCH  29  30
ATOM     30  C   UNL     1      35.235 -23.426 -14.778  0.00  0.00    -0.021 C 
ATOM     31  C   UNL     1      35.697 -24.540 -14.078  0.00  0.00    -0.002 C 
ATOM     32  C   UNL     1      36.121 -22.664 -15.539  0.00  0.00    -0.004 C 
ATOM     33  C   UNL     1      37.045 -24.893 -14.140  0.00  0.00    +0.030 C 
ATOM     34  C   UNL     1      37.470 -23.016 -15.601  0.00  0.00    -0.000 C 
ATOM     35  C   UNL     1      37.932 -24.131 -14.901  0.00  0.00    +0.003 C 
BRANCH  33  38
ATOM     36  N   UNL     1      38.795 -26.584 -13.646  0.00  0.00    -0.343 N 
ATOM     37  N   UNL     1      36.758 -26.628 -12.502  0.00  0.00    -0.285 NA
ATOM     38  C   UNL     1      37.528 -26.054 -13.409  0.00  0.00    +0.117 C 
ATOM     39  H   UNL     1      39.102 -27.371 -13.140  0.00  0.00    +0.144 HD
ATOM     40  H   UNL     1      39.384 -26.173 -14.320  0.00  0.00    +0.144 HD
ATOM     41  H   UNL     1      37.083 -27.414 -12.007  0.00  0.00    +0.188 HD
ENDBRANCH  33  38
ENDBRANCH  29  30
ENDBRANCH  24  29
ENDBRANCH  22  24
ENDBRANCH   2  22
TORSDOF 11
ENDMDL
MODEL 6
REMARK VINA RESULT:     -10.2      9.352     15.524
REMARK  Name = 5497056
REMARK  11 active torsions:
REMARK  status: ('A' for Active; 'I' for Inactive)
REMARK    1  A    between atoms: N_2  and  C_22
REMARK    2  A    between atoms: C_3  and  C_5
REMARK    3  A    between atoms: C_8  and  C_11
REMARK    4  A    between atoms: C_13  and  C_17
REMARK    5  A    between atoms: C_17  and  N_18
REMARK    6  A    between atoms: C_22  and  C_24
REMARK    7  A    between atoms: C_24  and  C_26
REMARK    8  A    between atoms: C_24  and  C_29
REMARK    9  A    between atoms: C_26  and  O_27
REMARK   10  A    between atoms: C_29  and  C_30
REMARK   11  A    between atoms: C_33  and  C_38
REMARK                            x       y       z     vdW  Elec       q    Type
REMARK                         _______ _______ _______ _____ _____    ______ ____
ROOT
ATOM      1  O   UNL     1      33.640 -10.269 -23.682  0.00  0.00    -0.270 OA
ATOM      2  N   UNL     1      32.001 -10.754 -22.114  0.00  0.00    -0.302 N 
ATOM      3  C   UNL     1      33.045 -11.073 -22.970  0.00  0.00    +0.246 C 
ATOM      4  H   UNL     1      31.587 -11.472 -21.583  0.00  0.00    +0.150 HD
ENDROOT
BRANCH   3   5
ATOM      5  C   UNL     1      33.425 -12.508 -23.020  0.00  0.00    +0.053 C 
ATOM      6  C   UNL     1      33.786 -13.175 -21.850  0.00  0.00    +0.005 C 
ATOM      7  C   UNL     1      33.422 -13.189 -24.238  0.00  0.00    +0.005 C 
ATOM      8  C   UNL     1      34.139 -15.204 -23.114  0.00  0.00    -0.000 C 
ATOM      9  C   UNL     1      34.144 -14.523 -21.897  0.00  0.00    +0.000 C 
ATOM     10  C   UNL     1      33.778 -14.536 -24.285  0.00  0.00    +0.000 C 
BRANCH   8  11
ATOM     11  C   UNL     1      34.509 -16.602 -23.161  0.00  0.00    -0.000 C 
ATOM     12  C   UNL     1      35.303 -17.148 -22.153  0.00  0.00    -0.006 C 
ATOM     13  C   UNL     1      35.659 -18.496 -22.200  0.00  0.00    -0.044 C 
ATOM     14  C   UNL     1      34.070 -17.403 -24.216  0.00  0.00    -0.000 C 
ATOM     15  C   UNL     1      35.221 -19.297 -23.254  0.00  0.00    -0.006 C 
ATOM     16  C   UNL     1      34.426 -18.751 -24.262  0.00  0.00    -0.000 C 
BRANCH  13  17
ATOM     17  C   UNL     1      36.508 -19.080 -21.122  0.00  0.00    -0.059 C 
BRANCH  17  18
ATOM     18  N   UNL     1      35.780 -20.053 -20.305  0.00  0.00    +0.383 N 
ATOM     19  H   UNL     1      36.380 -20.377 -19.546  0.00  0.00    -0.089 HD
ATOM     20  H   UNL     1      35.506 -20.847 -20.884  0.00  0.00    -0.089 HD
ATOM     21  H   UNL     1      34.946 -19.613 -19.915  0.00  0.00    -0.089 HD
ENDBRANCH  17  18
ENDBRANCH  13  17
ENDBRANCH   8  11
ENDBRANCH   3   5
BRANCH   2  22
ATOM     22  C   UNL     1      31.500  -9.407 -21.973  0.00  0.00    +0.083 C 
ATOM     23  C   UNL     1      30.982  -8.895 -23.316  0.00  0.00    +0.022 C 
BRANCH  22  24
ATOM     24  C   UNL     1      32.536  -8.451 -21.340  0.00  0.00    +0.121 C 
BRANCH  24  26
ATOM     25  O   UNL     1      32.666  -7.604 -19.059  0.00  0.00    -0.250 OA
ATOM     26  C   UNL     1      32.529  -8.554 -19.819  0.00  0.00    +0.319 C 
BRANCH  26  27
ATOM     27  O   UNL     1      32.351  -9.855 -19.448  0.00  0.00    -0.444 OA
ATOM     28  C   UNL     1      31.353 -10.079 -18.447  0.00  0.00    +0.256 C 
ENDBRANCH  26  27
ENDBRANCH  24  26
BRANCH  24  29
ATOM     29  C   UNL     1      32.309  -6.986 -21.768  0.00  0.00    +0.039 C 
BRANCH  29  30
ATOM     30  C   UNL     1      33.250  -6.544 -22.865  0.00  0.00    -0.021 C 
ATOM     31  C   UNL     1      32.847  -5.571 -23.779  0.00  0.00    -0.002 C 
ATOM     32  C   UNL     1      34.520  -7.110 -22.964  0.00  0.00    -0.004 C 
ATOM     33  C   UNL     1      33.715  -5.163 -24.792  0.00  0.00    +0.030 C 
ATOM     34  C   UNL     1      35.388  -6.703 -23.978  0.00  0.00    -0.000 C 
ATOM     35  C   UNL     1      34.986  -5.729 -24.892  0.00  0.00    +0.003 C 
BRANCH  33  38
ATOM     36  N   UNL     1      32.955  -2.862 -25.334  0.00  0.00    -0.343 N 
ATOM     37  N   UNL     1      33.226  -4.444 -27.032  0.00  0.00    -0.285 NA
ATOM     38  C   UNL     1      33.295  -4.149 -25.746  0.00  0.00    +0.117 C 
ATOM     39  H   UNL     1      32.672  -2.191 -25.997  0.00  0.00    +0.144 HD
ATOM     40  H   UNL     1      32.996  -2.623 -24.379  0.00  0.00    +0.144 HD
ATOM     41  H   UNL     1      32.942  -3.759 -27.679  0.00  0.00    +0.188 HD
ENDBRANCH  33  38
ENDBRANCH  29  30
ENDBRANCH  24  29
ENDBRANCH  22  24
ENDBRANCH   2  22
TORSDOF 11
ENDMDL
MODEL 7
REMARK VINA RESULT:     -10.2      3.584     10.784
REMARK  Name = 5497056
REMARK  11 active torsions:
REMARK  status: ('A' for Active; 'I' for Inactive)
REMARK    1  A    between atoms: N_2  and  C_22
REMARK    2  A    between atoms: C_3  and  C_5
REMARK    3  A    between atoms: C_8  and  C_11
REMARK    4  A    between atoms: C_13  and  C_17
REMARK    5  A    between atoms: C_17  and  N_18
REMARK    6  A    between atoms: C_22  and  C_24
REMARK    7  A    between atoms: C_24  and  C_26
REMARK    8  A    between atoms: C_24  and  C_29
REMARK    9  A    between atoms: C_26  and  O_27
REMARK   10  A    between atoms: C_29  and  C_30
REMARK   11  A    between atoms: C_33  and  C_38
REMARK                            x       y       z     vdW  Elec       q    Type
REMARK                         _______ _______ _______ _____ _____    ______ ____
ROOT
ATOM      1  O   UNL     1      35.675 -22.339 -20.599  0.00  0.00    -0.270 OA
ATOM      2  N   UNL     1      36.387 -20.288 -19.785  0.00  0.00    -0.302 N 
ATOM      3  C   UNL     1      35.945 -21.597 -19.659  0.00  0.00    +0.246 C 
ATOM      4  H   UNL     1      36.578 -19.772 -18.968  0.00  0.00    +0.150 HD
ENDROOT
BRANCH   3   5
ATOM      5  C   UNL     1      35.774 -22.092 -18.270  0.00  0.00    +0.053 C 
ATOM      6  C   UNL     1      34.586 -22.720 -17.895  0.00  0.00    +0.005 C 
ATOM      7  C   UNL     1      36.801 -21.931 -17.339  0.00  0.00    +0.005 C 
ATOM      8  C   UNL     1      35.452 -23.025 -15.660  0.00  0.00    -0.000 C 
ATOM      9  C   UNL     1      34.425 -23.186 -16.589  0.00  0.00    +0.000 C 
ATOM     10  C   UNL     1      36.640 -22.397 -16.035  0.00  0.00    +0.000 C 
BRANCH   8  11
ATOM     11  C   UNL     1      35.284 -23.509 -14.306  0.00  0.00    -0.000 C 
ATOM     12  C   UNL     1      36.262 -23.251 -13.346  0.00  0.00    -0.006 C 
ATOM     13  C   UNL     1      36.099 -23.719 -12.042  0.00  0.00    -0.044 C 
ATOM     14  C   UNL     1      34.143 -24.235 -13.964  0.00  0.00    -0.000 C 
ATOM     15  C   UNL     1      34.959 -24.445 -11.699  0.00  0.00    -0.006 C 
ATOM     16  C   UNL     1      33.980 -24.703 -12.660  0.00  0.00    -0.000 C 
BRANCH  13  17
ATOM     17  C   UNL     1      37.144 -23.441 -11.015  0.00  0.00    -0.059 C 
BRANCH  17  18
ATOM     18  N   UNL     1      38.460 -23.950 -11.406  0.00  0.00    +0.383 N 
ATOM     19  H   UNL     1      38.518 -23.996 -12.423  0.00  0.00    -0.089 HD
ATOM     20  H   UNL     1      38.594 -24.883 -11.015  0.00  0.00    -0.089 HD
ATOM     21  H   UNL     1      39.184 -23.326 -11.051  0.00  0.00    -0.089 HD
ENDBRANCH  17  18
ENDBRANCH  13  17
ENDBRANCH   8  11
ENDBRANCH   3   5
BRANCH   2  22
ATOM     22  C   UNL     1      36.578 -19.655 -21.069  0.00  0.00    +0.083 C 
ATOM     23  C   UNL     1      37.910 -18.907 -21.092  0.00  0.00    +0.022 C 
BRANCH  22  24
ATOM     24  C   UNL     1      35.390 -18.751 -21.467  0.00  0.00    +0.121 C 
BRANCH  24  26
ATOM     25  O   UNL     1      33.358 -20.071 -21.719  0.00  0.00    -0.250 OA
ATOM     26  C   UNL     1      34.330 -19.534 -22.234  0.00  0.00    +0.319 C 
BRANCH  26  27
ATOM     27  O   UNL     1      34.636 -19.541 -23.564  0.00  0.00    -0.444 OA
ATOM     28  C   UNL     1      33.593 -19.095 -24.438  0.00  0.00    +0.256 C 
ENDBRANCH  26  27
ENDBRANCH  24  26
BRANCH  24  29
ATOM     29  C   UNL     1      35.844 -17.531 -22.296  0.00  0.00    +0.039 C 
BRANCH  29  30
ATOM     30  C   UNL     1      35.047 -16.285 -21.988  0.00  0.00    -0.021 C 
ATOM     31  C   UNL     1      34.663 -15.430 -23.021  0.00  0.00    -0.002 C 
ATOM     32  C   UNL     1      34.696 -15.988 -20.671  0.00  0.00    -0.004 C 
ATOM     33  C   UNL     1      33.929 -14.278 -22.737  0.00  0.00    +0.030 C 
ATOM     34  C   UNL     1      33.962 -14.836 -20.387  0.00  0.00    -0.000 C 
ATOM     35  C   UNL     1      33.578 -13.981 -21.419  0.00  0.00    +0.003 C 
BRANCH  33  38
ATOM     36  N   UNL     1      33.344 -13.854 -25.113  0.00  0.00    -0.343 N 
ATOM     37  N   UNL     1      33.341 -12.101 -23.567  0.00  0.00    -0.285 NA
ATOM     38  C   UNL     1      33.530 -13.385 -23.813  0.00  0.00    +0.117 C 
ATOM     39  H   UNL     1      33.075 -13.232 -25.827  0.00  0.00    +0.144 HD
ATOM     40  H   UNL     1      33.483 -14.807 -25.317  0.00  0.00    +0.144 HD
ATOM     41  H   UNL     1      33.071 -11.495 -24.294  0.00  0.00    +0.188 HD
ENDBRANCH  33  38
ENDBRANCH  29  30
ENDBRANCH  24  29
ENDBRANCH  22  24
ENDBRANCH   2  22
TORSDOF 11
ENDMDL
MODEL 8
REMARK VINA RESULT:     -10.0      9.804     13.967
REMARK  Name = 5497056
REMARK  11 active torsions:
REMARK  status: ('A' for Active; 'I' for Inactive)
REMARK    1  A    between atoms: N_2  and  C_22
REMARK    2  A    between atoms: C_3  and  C_5
REMARK    3  A    between atoms: C_8  and  C_11
REMARK    4  A    between atoms: C_13  and  C_17
REMARK    5  A    between atoms: C_17  and  N_18
REMARK    6  A    between atoms: C_22  and  C_24
REMARK    7  A    between atoms: C_24  and  C_26
REMARK    8  A    between atoms: C_24  and  C_29
REMARK    9  A    between atoms: C_26  and  O_27
REMARK   10  A    between atoms: C_29  and  C_30
REMARK   11  A    between atoms: C_33  and  C_38
REMARK                            x       y       z     vdW  Elec       q    Type
REMARK                         _______ _______ _______ _____ _____    ______ ____
ROOT
ATOM      1  O   UNL     1      35.460 -10.485 -23.956  0.00  0.00    -0.270 OA
ATOM      2  N   UNL     1      33.413 -11.432 -23.418  0.00  0.00    -0.302 N 
ATOM      3  C   UNL     1      34.281 -10.373 -23.635  0.00  0.00    +0.246 C 
ATOM      4  H   UNL     1      32.482 -11.238 -23.161  0.00  0.00    +0.150 HD
ENDROOT
BRANCH   3   5
ATOM      5  C   UNL     1      33.711  -9.016 -23.428  0.00  0.00    +0.053 C 
ATOM      6  C   UNL     1      34.558  -7.933 -23.195  0.00  0.00    +0.005 C 
ATOM      7  C   UNL     1      32.330  -8.825 -23.466  0.00  0.00    +0.005 C 
ATOM      8  C   UNL     1      32.643  -6.468 -23.040  0.00  0.00    -0.000 C 
ATOM      9  C   UNL     1      34.024  -6.659 -23.000  0.00  0.00    +0.000 C 
ATOM     10  C   UNL     1      31.796  -7.552 -23.273  0.00  0.00    +0.000 C 
BRANCH   8  11
ATOM     11  C   UNL     1      32.090  -5.146 -22.840  0.00  0.00    -0.000 C 
ATOM     12  C   UNL     1      31.546  -4.447 -23.916  0.00  0.00    -0.006 C 
ATOM     13  C   UNL     1      31.013  -3.172 -23.722  0.00  0.00    -0.044 C 
ATOM     14  C   UNL     1      32.101  -4.572 -21.568  0.00  0.00    -0.000 C 
ATOM     15  C   UNL     1      31.025  -2.598 -22.451  0.00  0.00    -0.006 C 
ATOM     16  C   UNL     1      31.569  -3.298 -21.374  0.00  0.00    -0.000 C 
BRANCH  13  17
ATOM     17  C   UNL     1      30.430  -2.424 -24.873  0.00  0.00    -0.059 C 
BRANCH  17  18
ATOM     18  N   UNL     1      28.979  -2.265 -24.758  0.00  0.00    +0.383 N 
ATOM     19  H   UNL     1      28.734  -2.076 -23.786  0.00  0.00    -0.089 HD
ATOM     20  H   UNL     1      28.517  -3.122 -25.064  0.00  0.00    -0.089 HD
ATOM     21  H   UNL     1      28.676  -1.487 -25.344  0.00  0.00    -0.089 HD
ENDBRANCH  17  18
ENDBRANCH  13  17
ENDBRANCH   8  11
ENDBRANCH   3   5
BRANCH   2  22
ATOM     22  C   UNL     1      33.824 -12.810 -23.554  0.00  0.00    +0.083 C 
ATOM     23  C   UNL     1      33.444 -13.338 -24.936  0.00  0.00    +0.022 C 
BRANCH  22  24
ATOM     24  C   UNL     1      33.286 -13.705 -22.415  0.00  0.00    +0.121 C 
BRANCH  24  26
ATOM     25  O   UNL     1      32.758 -12.679 -20.268  0.00  0.00    -0.250 OA
ATOM     26  C   UNL     1      32.442 -12.903 -21.430  0.00  0.00    +0.319 C 
BRANCH  26  27
ATOM     27  O   UNL     1      31.297 -12.482 -22.042  0.00  0.00    -0.444 OA
ATOM     28  C   UNL     1      30.641 -11.371 -21.423  0.00  0.00    +0.256 C 
ENDBRANCH  26  27
ENDBRANCH  24  26
BRANCH  24  29
ATOM     29  C   UNL     1      34.421 -14.431 -21.664  0.00  0.00    +0.039 C 
BRANCH  29  30
ATOM     30  C   UNL     1      34.674 -15.826 -22.191  0.00  0.00    -0.021 C 
ATOM     31  C   UNL     1      35.218 -16.799 -21.353  0.00  0.00    -0.002 C 
ATOM     32  C   UNL     1      34.364 -16.138 -23.514  0.00  0.00    -0.004 C 
ATOM     33  C   UNL     1      35.453 -18.085 -21.839  0.00  0.00    +0.030 C 
ATOM     34  C   UNL     1      34.600 -17.424 -24.001  0.00  0.00    -0.000 C 
ATOM     35  C   UNL     1      35.143 -18.398 -23.164  0.00  0.00    +0.003 C 
BRANCH  33  38
ATOM     36  N   UNL     1      35.247 -20.149 -20.474  0.00  0.00    -0.343 N 
ATOM     37  N   UNL     1      37.296 -19.036 -20.625  0.00  0.00    -0.285 NA
ATOM     38  C   UNL     1      36.021 -19.100 -20.967  0.00  0.00    +0.117 C 
ATOM     39  H   UNL     1      35.653 -20.825 -19.884  0.00  0.00    +0.144 HD
ATOM     40  H   UNL     1      34.294 -20.213 -20.714  0.00  0.00    +0.144 HD
ATOM     41  H   UNL     1      37.683 -19.722 -20.035  0.00  0.00    +0.188 HD
ENDBRANCH  33  38
ENDBRANCH  29  30
ENDBRANCH  24  29
ENDBRANCH  22  24
ENDBRANCH   2  22
TORSDOF 11
ENDMDL
MODEL 9
REMARK VINA RESULT:      -9.8     10.762     17.043
REMARK  Name = 5497056
REMARK  11 active torsions:
REMARK  status: ('A' for Active; 'I' for Inactive)
REMARK    1  A    between atoms: N_2  and  C_22
REMARK    2  A    between atoms: C_3  and  C_5
REMARK    3  A    between atoms: C_8  and  C_11
REMARK    4  A    between atoms: C_13  and  C_17
REMARK    5  A    between atoms: C_17  and  N_18
REMARK    6  A    between atoms: C_22  and  C_24
REMARK    7  A    between atoms: C_24  and  C_26
REMARK    8  A    between atoms: C_24  and  C_29
REMARK    9  A    between atoms: C_26  and  O_27
REMARK   10  A    between atoms: C_29  and  C_30
REMARK   11  A    between atoms: C_33  and  C_38
REMARK                            x       y       z     vdW  Elec       q    Type
REMARK                         _______ _______ _______ _____ _____    ______ ____
ROOT
ATOM      1  O   UNL     1      31.161  -9.902 -21.083  0.00  0.00    -0.270 OA
ATOM      2  N   UNL     1      31.975  -9.174 -23.129  0.00  0.00    -0.302 N 
ATOM      3  C   UNL     1      31.771 -10.112 -22.128  0.00  0.00    +0.246 C 
ATOM      4  H   UNL     1      32.479  -9.440 -23.932  0.00  0.00    +0.150 HD
ENDROOT
BRANCH   3   5
ATOM      5  C   UNL     1      32.372 -11.450 -22.361  0.00  0.00    +0.053 C 
ATOM      6  C   UNL     1      33.181 -11.666 -23.476  0.00  0.00    +0.005 C 
ATOM      7  C   UNL     1      32.128 -12.491 -21.465  0.00  0.00    +0.005 C 
ATOM      8  C   UNL     1      33.502 -13.963 -22.799  0.00  0.00    -0.000 C 
ATOM      9  C   UNL     1      33.746 -12.923 -23.695  0.00  0.00    +0.000 C 
ATOM     10  C   UNL     1      32.693 -13.747 -21.684  0.00  0.00    +0.000 C 
BRANCH   8  11
ATOM     11  C   UNL     1      34.090 -15.266 -23.027  0.00  0.00    -0.000 C 
ATOM     12  C   UNL     1      34.660 -15.969 -21.966  0.00  0.00    -0.006 C 
ATOM     13  C   UNL     1      35.226 -17.225 -22.187  0.00  0.00    -0.044 C 
ATOM     14  C   UNL     1      34.084 -15.817 -24.308  0.00  0.00    -0.000 C 
ATOM     15  C   UNL     1      35.222 -17.776 -23.469  0.00  0.00    -0.006 C 
ATOM     16  C   UNL     1      34.650 -17.073 -24.529  0.00  0.00    -0.000 C 
BRANCH  13  17
ATOM     17  C   UNL     1      35.835 -17.978 -21.053  0.00  0.00    -0.059 C 
BRANCH  17  18
ATOM     18  N   UNL     1      35.180 -19.266 -20.823  0.00  0.00    +0.383 N 
ATOM     19  H   UNL     1      35.613 -19.730 -20.024  0.00  0.00    -0.089 HD
ATOM     20  H   UNL     1      35.281 -19.853 -21.652  0.00  0.00    -0.089 HD
ATOM     21  H   UNL     1      34.189 -19.114 -20.633  0.00  0.00    -0.089 HD
ENDBRANCH  17  18
ENDBRANCH  13  17
ENDBRANCH   8  11
ENDBRANCH   3   5
BRANCH   2  22
ATOM     22  C   UNL     1      31.475  -7.822 -23.038  0.00  0.00    +0.083 C 
ATOM     23  C   UNL     1      30.843  -7.406 -24.365  0.00  0.00    +0.022 C 
BRANCH  22  24
ATOM     24  C   UNL     1      32.551  -6.822 -22.560  0.00  0.00    +0.121 C 
BRANCH  24  26
ATOM     25  O   UNL     1      33.773  -7.722 -20.653  0.00  0.00    -0.250 OA
ATOM     26  C   UNL     1      33.702  -7.538 -21.862  0.00  0.00    +0.319 C 
BRANCH  26  27
ATOM     27  O   UNL     1      34.626  -7.932 -22.785  0.00  0.00    -0.444 OA
ATOM     28  C   UNL     1      35.142  -6.892 -23.622  0.00  0.00    +0.256 C 
ENDBRANCH  26  27
ENDBRANCH  24  26
BRANCH  24  29
ATOM     29  C   UNL     1      31.963  -5.741 -21.631  0.00  0.00    +0.039 C 
BRANCH  29  30
ATOM     30  C   UNL     1      31.945  -4.369 -22.266  0.00  0.00    -0.021 C 
ATOM     31  C   UNL     1      32.309  -4.215 -23.603  0.00  0.00    -0.002 C 
ATOM     32  C   UNL     1      31.567  -3.257 -21.514  0.00  0.00    -0.004 C 
ATOM     33  C   UNL     1      32.294  -2.950 -24.190  0.00  0.00    +0.030 C 
ATOM     34  C   UNL     1      31.553  -1.991 -22.100  0.00  0.00    -0.000 C 
ATOM     35  C   UNL     1      31.916  -1.836 -23.437  0.00  0.00    +0.003 C 
BRANCH  33  38
ATOM     36  N   UNL     1      33.921  -3.205 -26.048  0.00  0.00    -0.343 N 
ATOM     37  N   UNL     1      31.831  -2.233 -26.436  0.00  0.00    -0.285 NA
ATOM     38  C   UNL     1      32.674  -2.788 -25.584  0.00  0.00    +0.117 C 
ATOM     39  H   UNL     1      34.158  -3.085 -26.996  0.00  0.00    +0.144 HD
ATOM     40  H   UNL     1      34.565  -3.618 -25.428  0.00  0.00    +0.144 HD
ATOM     41  H   UNL     1      32.087  -2.123 -27.380  0.00  0.00    +0.188 HD
ENDBRANCH  33  38
ENDBRANCH  29  30
ENDBRANCH  24  29
ENDBRANCH  22  24
ENDBRANCH   2  22
TORSDOF 11
ENDMDL
