MODEL 1
REMARK VINA RESULT:     -12.3      0.000      0.000
REMARK  Name = 135565042
REMARK  5 active torsions:
REMARK  status: ('A' for Active; 'I' for Inactive)
REMARK    1  A    between atoms: C_3  and  O_21
REMARK    2  A    between atoms: C_6  and  C_7
REMARK    3  A    between atoms: C_8  and  O_19
REMARK    4  A    between atoms: C_10  and  C_15
REMARK    5  A    between atoms: O_21  and  C_27
REMARK                            x       y       z     vdW  Elec       q    Type
REMARK                         _______ _______ _______ _____ _____    ______ ____
ROOT
ATOM      1  N   UNL     1      35.247 -23.233 -16.513  0.00  0.00    -0.110 NA
ATOM      2  N   UNL     1      35.271 -22.436 -17.615  0.00  0.00    -0.145 NA
ATOM      3  C   UNL     1      34.076 -23.779 -16.121  0.00  0.00    +0.244 C 
ATOM      4  C   UNL     1      32.889 -23.567 -16.791  0.00  0.00    +0.061 C 
ATOM      5  C   UNL     1      32.913 -22.756 -17.913  0.00  0.00    +0.026 C 
ATOM      6  C   UNL     1      34.124 -22.211 -18.289  0.00  0.00    +0.106 C 
ENDROOT
BRANCH   6   7
ATOM      7  C   UNL     1      34.242 -21.358 -19.446  0.00  0.00    +0.053 C 
ATOM      8  C   UNL     1      35.491 -21.053 -19.985  0.00  0.00    +0.135 C 
ATOM      9  C   UNL     1      33.086 -20.834 -20.025  0.00  0.00    +0.005 C 
ATOM     10  C   UNL     1      34.429 -19.702 -21.683  0.00  0.00    +0.006 C 
ATOM     11  C   UNL     1      35.585 -20.226 -21.104  0.00  0.00    +0.037 C 
ATOM     12  C   UNL     1      33.179 -20.007 -21.143  0.00  0.00    +0.000 C 
BRANCH  10  15
ATOM     13  N   UNL     1      35.049 -17.165 -24.122  0.00  0.00    -0.235 N 
ATOM     14  N   UNL     1      34.330 -17.962 -24.931  0.00  0.00    -0.180 NA
ATOM     15  C   UNL     1      34.525 -18.851 -22.836  0.00  0.00    +0.037 C 
ATOM     16  C   UNL     1      35.194 -17.653 -22.857  0.00  0.00    +0.081 C 
ATOM     17  C   UNL     1      34.013 -18.991 -24.140  0.00  0.00    +0.119 C 
ATOM     18  H   UNL     1      35.434 -16.308 -24.416  0.00  0.00    +0.174 HD
ENDBRANCH  10  15
BRANCH   8  19
ATOM     19  O   UNL     1      36.638 -21.550 -19.439  0.00  0.00    -0.505 OA
ATOM     20  H   UNL     1      37.309 -20.966 -19.146  0.00  0.00    +0.292 HD
ENDBRANCH   8  19
ENDBRANCH   6   7
BRANCH   3  21
ATOM     21  O   UNL     1      34.096 -24.575 -15.008  0.00  0.00    -0.463 OA
BRANCH  21  27
ATOM     22  N   UNL     1      37.069 -25.762 -12.251  0.00  0.00    +0.389 N 
ATOM     23  C   UNL     1      37.357 -25.949 -13.679  0.00  0.00    -0.042 C 
ATOM     24  C   UNL     1      36.172 -24.673 -11.839  0.00  0.00    -0.042 C 
ATOM     25  C   UNL     1      36.095 -25.813 -14.552  0.00  0.00    +0.024 C 
ATOM     26  C   UNL     1      34.933 -24.561 -12.748  0.00  0.00    +0.024 C 
ATOM     27  C   UNL     1      35.289 -24.560 -14.231  0.00  0.00    +0.164 C 
ATOM     28  C   UNL     1      36.909 -23.325 -11.741  0.00  0.00    -0.021 C 
ATOM     29  C   UNL     1      37.885 -27.393 -13.814  0.00  0.00    -0.021 C 
ATOM     30  C   UNL     1      38.474 -25.010 -14.171  0.00  0.00    -0.021 C 
ATOM     31  C   UNL     1      35.698 -25.037 -10.416  0.00  0.00    -0.021 C 
ATOM     32  H   UNL     1      37.962 -25.605 -11.784  0.00  0.00    -0.084 HD
ATOM     33  H   UNL     1      36.559 -26.607 -11.993  0.00  0.00    -0.084 HD
ENDBRANCH  21  27
ENDBRANCH   3  21
TORSDOF 5
ENDMDL
MODEL 2
REMARK VINA RESULT:     -11.0      7.677     14.429
REMARK  Name = 135565042
REMARK  5 active torsions:
REMARK  status: ('A' for Active; 'I' for Inactive)
REMARK    1  A    between atoms: C_3  and  O_21
REMARK    2  A    between atoms: C_6  and  C_7
REMARK    3  A    between atoms: C_8  and  O_19
REMARK    4  A    between atoms: C_10  and  C_15
REMARK    5  A    between atoms: O_21  and  C_27
REMARK                            x       y       z     vdW  Elec       q    Type
REMARK                         _______ _______ _______ _____ _____    ______ ____
ROOT
ATOM      1  N   UNL     1      33.752 -11.718 -23.842  0.00  0.00    -0.110 NA
ATOM      2  N   UNL     1      34.209 -12.935 -23.445  0.00  0.00    -0.145 NA
ATOM      3  C   UNL     1      32.642 -11.210 -23.263  0.00  0.00    +0.244 C 
ATOM      4  C   UNL     1      31.941 -11.874 -22.277  0.00  0.00    +0.061 C 
ATOM      5  C   UNL     1      32.406 -13.113 -21.872  0.00  0.00    +0.026 C 
ATOM      6  C   UNL     1      33.542 -13.607 -22.482  0.00  0.00    +0.106 C 
ENDROOT
BRANCH   6   7
ATOM      7  C   UNL     1      34.098 -14.887 -22.122  0.00  0.00    +0.053 C 
ATOM      8  C   UNL     1      34.421 -15.829 -23.099  0.00  0.00    +0.135 C 
ATOM      9  C   UNL     1      34.312 -15.179 -20.775  0.00  0.00    +0.005 C 
ATOM     10  C   UNL     1      35.172 -17.354 -21.383  0.00  0.00    +0.006 C 
ATOM     11  C   UNL     1      34.958 -17.061 -22.730  0.00  0.00    +0.037 C 
ATOM     12  C   UNL     1      34.849 -16.412 -20.404  0.00  0.00    +0.000 C 
BRANCH  10  15
ATOM     13  N   UNL     1      35.882 -20.744 -20.506  0.00  0.00    -0.235 N 
ATOM     14  N   UNL     1      37.144 -20.300 -20.375  0.00  0.00    -0.180 NA
ATOM     15  C   UNL     1      35.726 -18.622 -21.002  0.00  0.00    +0.037 C 
ATOM     16  C   UNL     1      34.995 -19.778 -20.879  0.00  0.00    +0.081 C 
ATOM     17  C   UNL     1      37.043 -19.004 -20.680  0.00  0.00    +0.119 C 
ATOM     18  H   UNL     1      35.623 -21.680 -20.346  0.00  0.00    +0.174 HD
ENDBRANCH  10  15
BRANCH   8  19
ATOM     19  O   UNL     1      34.222 -15.570 -24.423  0.00  0.00    -0.505 OA
ATOM     20  H   UNL     1      33.445 -15.127 -24.702  0.00  0.00    +0.292 HD
ENDBRANCH   8  19
ENDBRANCH   6   7
BRANCH   3  21
ATOM     21  O   UNL     1      32.217  -9.982 -23.691  0.00  0.00    -0.463 OA
BRANCH  21  27
ATOM     22  N   UNL     1      33.202  -5.957 -22.866  0.00  0.00    +0.389 N 
ATOM     23  C   UNL     1      32.357  -6.660 -21.892  0.00  0.00    -0.042 C 
ATOM     24  C   UNL     1      34.160  -6.728 -23.670  0.00  0.00    -0.042 C 
ATOM     25  C   UNL     1      31.786  -7.975 -22.456  0.00  0.00    +0.024 C 
ATOM     26  C   UNL     1      33.555  -8.043 -24.198  0.00  0.00    +0.024 C 
ATOM     27  C   UNL     1      32.851  -8.846 -23.110  0.00  0.00    +0.164 C 
ATOM     28  C   UNL     1      35.471  -6.991 -22.907  0.00  0.00    -0.021 C 
ATOM     29  C   UNL     1      31.178  -5.709 -21.595  0.00  0.00    -0.021 C 
ATOM     30  C   UNL     1      33.090  -6.901 -20.559  0.00  0.00    -0.021 C 
ATOM     31  C   UNL     1      34.508  -5.834 -24.879  0.00  0.00    -0.021 C 
ATOM     32  H   UNL     1      33.738  -5.260 -22.349  0.00  0.00    -0.084 HD
ATOM     33  H   UNL     1      32.537  -5.604 -23.554  0.00  0.00    -0.084 HD
ENDBRANCH  21  27
ENDBRANCH   3  21
TORSDOF 5
ENDMDL
MODEL 3
REMARK VINA RESULT:     -10.5      1.330      2.691
REMARK  Name = 135565042
REMARK  5 active torsions:
REMARK  status: ('A' for Active; 'I' for Inactive)
REMARK    1  A    between atoms: C_3  and  O_21
REMARK    2  A    between atoms: C_6  and  C_7
REMARK    3  A    between atoms: C_8  and  O_19
REMARK    4  A    between atoms: C_10  and  C_15
REMARK    5  A    between atoms: O_21  and  C_27
REMARK                            x       y       z     vdW  Elec       q    Type
REMARK                         _______ _______ _______ _____ _____    ______ ____
ROOT
ATOM      1  N   UNL     1      33.728 -24.298 -16.797  0.00  0.00    -0.110 NA
ATOM      2  N   UNL     1      33.795 -23.439 -17.849  0.00  0.00    -0.145 NA
ATOM      3  C   UNL     1      34.595 -24.153 -15.772  0.00  0.00    +0.244 C 
ATOM      4  C   UNL     1      35.555 -23.163 -15.737  0.00  0.00    +0.061 C 
ATOM      5  C   UNL     1      35.623 -22.287 -16.807  0.00  0.00    +0.026 C 
ATOM      6  C   UNL     1      34.726 -22.461 -17.841  0.00  0.00    +0.106 C 
ENDROOT
BRANCH   6   7
ATOM      7  C   UNL     1      34.722 -21.594 -18.994  0.00  0.00    +0.053 C 
ATOM      8  C   UNL     1      33.527 -21.099 -19.514  0.00  0.00    +0.135 C 
ATOM      9  C   UNL     1      35.936 -21.252 -19.589  0.00  0.00    +0.005 C 
ATOM     10  C   UNL     1      34.758 -19.920 -21.225  0.00  0.00    +0.006 C 
ATOM     11  C   UNL     1      33.544 -20.262 -20.629  0.00  0.00    +0.037 C 
ATOM     12  C   UNL     1      35.955 -20.415 -20.705  0.00  0.00    +0.000 C 
BRANCH  10  15
ATOM     13  N   UNL     1      34.477 -18.314 -24.405  0.00  0.00    -0.235 N 
ATOM     14  N   UNL     1      35.096 -17.293 -23.788  0.00  0.00    -0.180 NA
ATOM     15  C   UNL     1      34.777 -19.057 -22.372  0.00  0.00    +0.037 C 
ATOM     16  C   UNL     1      34.263 -19.394 -23.600  0.00  0.00    +0.081 C 
ATOM     17  C   UNL     1      35.277 -17.752 -22.547  0.00  0.00    +0.119 C 
ATOM     18  H   UNL     1      34.204 -18.285 -25.350  0.00  0.00    +0.174 HD
ENDBRANCH  10  15
BRANCH   8  19
ATOM     19  O   UNL     1      32.325 -21.417 -18.951  0.00  0.00    -0.505 OA
ATOM     20  H   UNL     1      32.149 -21.185 -18.061  0.00  0.00    +0.292 HD
ENDBRANCH   8  19
ENDBRANCH   6   7
BRANCH   3  21
ATOM     21  O   UNL     1      34.493 -25.038 -14.733  0.00  0.00    -0.463 OA
BRANCH  21  27
ATOM     22  N   UNL     1      38.277 -24.431 -12.954  0.00  0.00    +0.389 N 
ATOM     23  C   UNL     1      37.096 -24.334 -12.084  0.00  0.00    -0.042 C 
ATOM     24  C   UNL     1      38.226 -25.306 -14.133  0.00  0.00    -0.042 C 
ATOM     25  C   UNL     1      35.787 -24.226 -12.888  0.00  0.00    +0.024 C 
ATOM     26  C   UNL     1      36.894 -25.180 -14.897  0.00  0.00    +0.024 C 
ATOM     27  C   UNL     1      35.678 -25.282 -13.982  0.00  0.00    +0.164 C 
ATOM     28  C   UNL     1      38.521 -26.774 -13.775  0.00  0.00    -0.021 C 
ATOM     29  C   UNL     1      37.277 -23.031 -11.277  0.00  0.00    -0.021 C 
ATOM     30  C   UNL     1      37.029 -25.490 -11.070  0.00  0.00    -0.021 C 
ATOM     31  C   UNL     1      39.363 -24.826 -15.060  0.00  0.00    -0.021 C 
ATOM     32  H   UNL     1      39.049 -24.758 -12.373  0.00  0.00    -0.084 HD
ATOM     33  H   UNL     1      38.365 -23.495 -13.349  0.00  0.00    -0.084 HD
ENDBRANCH  21  27
ENDBRANCH   3  21
TORSDOF 5
ENDMDL
MODEL 4
REMARK VINA RESULT:     -10.5      8.039     14.814
REMARK  Name = 135565042
REMARK  5 active torsions:
REMARK  status: ('A' for Active; 'I' for Inactive)
REMARK    1  A    between atoms: C_3  and  O_21
REMARK    2  A    between atoms: C_6  and  C_7
REMARK    3  A    between atoms: C_8  and  O_19
REMARK    4  A    between atoms: C_10  and  C_15
REMARK    5  A    between atoms: O_21  and  C_27
REMARK                            x       y       z     vdW  Elec       q    Type
REMARK                         _______ _______ _______ _____ _____    ______ ____
ROOT
ATOM      1  N   UNL     1      31.719 -11.688 -22.417  0.00  0.00    -0.110 NA
ATOM      2  N   UNL     1      32.298 -12.876 -22.098  0.00  0.00    -0.145 NA
ATOM      3  C   UNL     1      32.356 -10.852 -23.265  0.00  0.00    +0.244 C 
ATOM      4  C   UNL     1      33.579 -11.148 -23.832  0.00  0.00    +0.061 C 
ATOM      5  C   UNL     1      34.168 -12.358 -23.507  0.00  0.00    +0.026 C 
ATOM      6  C   UNL     1      33.495 -13.191 -22.637  0.00  0.00    +0.106 C 
ENDROOT
BRANCH   6   7
ATOM      7  C   UNL     1      34.032 -14.471 -22.247  0.00  0.00    +0.053 C 
ATOM      8  C   UNL     1      34.125 -14.829 -20.902  0.00  0.00    +0.135 C 
ATOM      9  C   UNL     1      34.463 -15.356 -23.235  0.00  0.00    +0.005 C 
ATOM     10  C   UNL     1      35.079 -16.957 -21.533  0.00  0.00    +0.006 C 
ATOM     11  C   UNL     1      34.647 -16.071 -20.545  0.00  0.00    +0.037 C 
ATOM     12  C   UNL     1      34.986 -16.599 -22.879  0.00  0.00    +0.000 C 
BRANCH  10  15
ATOM     13  N   UNL     1      35.732 -20.333 -20.561  0.00  0.00    -0.235 N 
ATOM     14  N   UNL     1      37.021 -19.969 -20.673  0.00  0.00    -0.180 NA
ATOM     15  C   UNL     1      35.616 -18.237 -21.166  0.00  0.00    +0.037 C 
ATOM     16  C   UNL     1      34.851 -19.331 -20.846  0.00  0.00    +0.081 C 
ATOM     17  C   UNL     1      36.944 -18.688 -21.043  0.00  0.00    +0.119 C 
ATOM     18  H   UNL     1      35.450 -21.239 -20.298  0.00  0.00    +0.174 HD
ENDBRANCH  10  15
BRANCH   8  19
ATOM     19  O   UNL     1      33.711 -13.983 -19.915  0.00  0.00    -0.505 OA
ATOM     20  H   UNL     1      33.783 -14.241 -19.017  0.00  0.00    +0.292 HD
ENDBRANCH   8  19
ENDBRANCH   6   7
BRANCH   3  21
ATOM     21  O   UNL     1      31.739  -9.667 -23.561  0.00  0.00    -0.463 OA
BRANCH  21  27
ATOM     22  N   UNL     1      32.685  -5.568 -23.169  0.00  0.00    +0.389 N 
ATOM     23  C   UNL     1      32.064  -6.232 -22.015  0.00  0.00    -0.042 C 
ATOM     24  C   UNL     1      33.513  -6.359 -24.089  0.00  0.00    -0.042 C 
ATOM     25  C   UNL     1      31.457  -7.599 -22.386  0.00  0.00    +0.024 C 
ATOM     26  C   UNL     1      32.878  -7.724 -24.419  0.00  0.00    +0.024 C 
ATOM     27  C   UNL     1      32.420  -8.477 -23.175  0.00  0.00    +0.164 C 
ATOM     28  C   UNL     1      34.951  -6.531 -23.569  0.00  0.00    -0.021 C 
ATOM     29  C   UNL     1      30.919  -5.301 -21.561  0.00  0.00    -0.021 C 
ATOM     30  C   UNL     1      33.038  -6.363 -20.830  0.00  0.00    -0.021 C 
ATOM     31  C   UNL     1      33.595  -5.535 -25.391  0.00  0.00    -0.021 C 
ATOM     32  H   UNL     1      33.277  -4.823 -22.801  0.00  0.00    -0.084 HD
ATOM     33  H   UNL     1      31.891  -5.281 -23.741  0.00  0.00    -0.084 HD
ENDBRANCH  21  27
ENDBRANCH   3  21
TORSDOF 5
ENDMDL
MODEL 5
REMARK VINA RESULT:      -9.8      8.432     14.973
REMARK  Name = 135565042
REMARK  5 active torsions:
REMARK  status: ('A' for Active; 'I' for Inactive)
REMARK    1  A    between atoms: C_3  and  O_21
REMARK    2  A    between atoms: C_6  and  C_7
REMARK    3  A    between atoms: C_8  and  O_19
REMARK    4  A    between atoms: C_10  and  C_15
REMARK    5  A    between atoms: O_21  and  C_27
REMARK                            x       y       z     vdW  Elec       q    Type
REMARK                         _______ _______ _______ _____ _____    ______ ____
ROOT
ATOM      1  N   UNL     1      32.211 -10.446 -23.311  0.00  0.00    -0.110 NA
ATOM      2  N   UNL     1      32.840 -11.648 -23.218  0.00  0.00    -0.145 NA
ATOM      3  C   UNL     1      31.322 -10.093 -22.357  0.00  0.00    +0.244 C 
ATOM      4  C   UNL     1      31.018 -10.900 -21.280  0.00  0.00    +0.061 C 
ATOM      5  C   UNL     1      31.659 -12.123 -21.185  0.00  0.00    +0.026 C 
ATOM      6  C   UNL     1      32.561 -12.458 -22.174  0.00  0.00    +0.106 C 
ENDROOT
BRANCH   6   7
ATOM      7  C   UNL     1      33.276 -13.710 -22.153  0.00  0.00    +0.053 C 
ATOM      8  C   UNL     1      33.487 -14.433 -23.327  0.00  0.00    +0.135 C 
ATOM      9  C   UNL     1      33.759 -14.196 -20.938  0.00  0.00    +0.005 C 
ATOM     10  C   UNL     1      34.664 -16.128 -22.071  0.00  0.00    +0.006 C 
ATOM     11  C   UNL     1      34.181 -15.642 -23.286  0.00  0.00    +0.037 C 
ATOM     12  C   UNL     1      34.453 -15.404 -20.896  0.00  0.00    +0.000 C 
BRANCH  10  15
ATOM     13  N   UNL     1      36.161 -19.328 -22.610  0.00  0.00    -0.235 N 
ATOM     14  N   UNL     1      36.697 -19.127 -21.393  0.00  0.00    -0.180 NA
ATOM     15  C   UNL     1      35.380 -17.372 -22.028  0.00  0.00    +0.037 C 
ATOM     16  C   UNL     1      35.365 -18.306 -23.035  0.00  0.00    +0.081 C 
ATOM     17  C   UNL     1      36.217 -17.931 -21.043  0.00  0.00    +0.119 C 
ATOM     18  H   UNL     1      36.329 -20.138 -23.144  0.00  0.00    +0.174 HD
ENDBRANCH  10  15
BRANCH   8  19
ATOM     19  O   UNL     1      33.026 -13.982 -24.529  0.00  0.00    -0.505 OA
ATOM     20  H   UNL     1      33.038 -13.064 -24.719  0.00  0.00    +0.292 HD
ENDBRANCH   8  19
ENDBRANCH   6   7
BRANCH   3  21
ATOM     21  O   UNL     1      30.711  -8.875 -22.488  0.00  0.00    -0.463 OA
BRANCH  21  27
ATOM     22  N   UNL     1      33.454  -5.705 -23.019  0.00  0.00    +0.389 N 
ATOM     23  C   UNL     1      33.858  -7.036 -23.493  0.00  0.00    -0.042 C 
ATOM     24  C   UNL     1      32.026  -5.357 -22.997  0.00  0.00    -0.042 C 
ATOM     25  C   UNL     1      32.949  -8.152 -22.942  0.00  0.00    +0.024 C 
ATOM     26  C   UNL     1      31.153  -6.506 -22.457  0.00  0.00    +0.024 C 
ATOM     27  C   UNL     1      31.467  -7.844 -23.117  0.00  0.00    +0.164 C 
ATOM     28  C   UNL     1      31.527  -4.884 -24.374  0.00  0.00    -0.021 C 
ATOM     29  C   UNL     1      35.284  -7.260 -22.947  0.00  0.00    -0.021 C 
ATOM     30  C   UNL     1      33.945  -7.101 -25.029  0.00  0.00    -0.021 C 
ATOM     31  C   UNL     1      31.903  -4.159 -22.032  0.00  0.00    -0.021 C 
ATOM     32  H   UNL     1      33.918  -5.022 -23.618  0.00  0.00    -0.084 HD
ATOM     33  H   UNL     1      33.719  -5.707 -22.035  0.00  0.00    -0.084 HD
ENDBRANCH  21  27
ENDBRANCH   3  21
TORSDOF 5
ENDMDL
MODEL 6
REMARK VINA RESULT:      -9.8      8.884     15.516
REMARK  Name = 135565042
REMARK  5 active torsions:
REMARK  status: ('A' for Active; 'I' for Inactive)
REMARK    1  A    between atoms: C_3  and  O_21
REMARK    2  A    between atoms: C_6  and  C_7
REMARK    3  A    between atoms: C_8  and  O_19
REMARK    4  A    between atoms: C_10  and  C_15
REMARK    5  A    between atoms: O_21  and  C_27
REMARK                            x       y       z     vdW  Elec       q    Type
REMARK                         _______ _______ _______ _____ _____    ______ ____
ROOT
ATOM      1  N   UNL     1      30.946 -10.934 -22.174  0.00  0.00    -0.110 NA
ATOM      2  N   UNL     1      31.586 -12.133 -22.112  0.00  0.00    -0.145 NA
ATOM      3  C   UNL     1      31.563  -9.888 -22.764  0.00  0.00    +0.244 C 
ATOM      4  C   UNL     1      32.826  -9.976 -23.313  0.00  0.00    +0.061 C 
ATOM      5  C   UNL     1      33.477 -11.195 -23.251  0.00  0.00    +0.026 C 
ATOM      6  C   UNL     1      32.823 -12.246 -22.641  0.00  0.00    +0.106 C 
ENDROOT
BRANCH   6   7
ATOM      7  C   UNL     1      33.424 -13.552 -22.534  0.00  0.00    +0.053 C 
ATOM      8  C   UNL     1      33.560 -14.372 -23.653  0.00  0.00    +0.135 C 
ATOM      9  C   UNL     1      33.873 -13.992 -21.288  0.00  0.00    +0.005 C 
ATOM     10  C   UNL     1      34.594 -16.072 -22.283  0.00  0.00    +0.006 C 
ATOM     11  C   UNL     1      34.145 -15.632 -23.529  0.00  0.00    +0.037 C 
ATOM     12  C   UNL     1      34.458 -15.252 -21.163  0.00  0.00    +0.000 C 
BRANCH  10  15
ATOM     13  N   UNL     1      36.222 -19.095 -21.293  0.00  0.00    -0.235 N 
ATOM     14  N   UNL     1      35.981 -19.476 -22.559  0.00  0.00    -0.180 NA
ATOM     15  C   UNL     1      35.197 -17.369 -22.155  0.00  0.00    +0.037 C 
ATOM     16  C   UNL     1      35.772 -17.841 -21.001  0.00  0.00    +0.081 C 
ATOM     17  C   UNL     1      35.355 -18.418 -23.081  0.00  0.00    +0.119 C 
ATOM     18  H   UNL     1      36.681 -19.669 -20.638  0.00  0.00    +0.174 HD
ENDBRANCH  10  15
BRANCH   8  19
ATOM     19  O   UNL     1      33.130 -13.967 -24.883  0.00  0.00    -0.505 OA
ATOM     20  H   UNL     1      32.706 -14.577 -25.454  0.00  0.00    +0.292 HD
ENDBRANCH   8  19
ENDBRANCH   6   7
BRANCH   3  21
ATOM     21  O   UNL     1      30.884  -8.701 -22.806  0.00  0.00    -0.463 OA
BRANCH  21  27
ATOM     22  N   UNL     1      32.046  -4.679 -23.381  0.00  0.00    +0.389 N 
ATOM     23  C   UNL     1      31.613  -5.073 -22.033  0.00  0.00    -0.042 C 
ATOM     24  C   UNL     1      32.665  -5.685 -24.255  0.00  0.00    -0.042 C 
ATOM     25  C   UNL     1      30.896  -6.436 -22.025  0.00  0.00    +0.024 C 
ATOM     26  C   UNL     1      31.928  -7.037 -24.203  0.00  0.00    +0.024 C 
ATOM     27  C   UNL     1      31.669  -7.512 -22.777  0.00  0.00    +0.164 C 
ATOM     28  C   UNL     1      34.165  -5.862 -23.958  0.00  0.00    -0.021 C 
ATOM     29  C   UNL     1      30.605  -3.993 -21.585  0.00  0.00    -0.021 C 
ATOM     30  C   UNL     1      32.776  -5.053 -21.024  0.00  0.00    -0.021 C 
ATOM     31  C   UNL     1      32.547  -5.124 -25.687  0.00  0.00    -0.021 C 
ATOM     32  H   UNL     1      32.723  -3.924 -23.268  0.00  0.00    -0.084 HD
ATOM     33  H   UNL     1      31.175  -4.446 -23.857  0.00  0.00    -0.084 HD
ENDBRANCH  21  27
ENDBRANCH   3  21
TORSDOF 5
ENDMDL
MODEL 7
REMARK VINA RESULT:      -9.7      7.861     14.179
REMARK  Name = 135565042
REMARK  5 active torsions:
REMARK  status: ('A' for Active; 'I' for Inactive)
REMARK    1  A    between atoms: C_3  and  O_21
REMARK    2  A    between atoms: C_6  and  C_7
REMARK    3  A    between atoms: C_8  and  O_19
REMARK    4  A    between atoms: C_10  and  C_15
REMARK    5  A    between atoms: O_21  and  C_27
REMARK                            x       y       z     vdW  Elec       q    Type
REMARK                         _______ _______ _______ _____ _____    ______ ____
ROOT
ATOM      1  N   UNL     1      32.748 -11.006 -23.581  0.00  0.00    -0.110 NA
ATOM      2  N   UNL     1      33.354 -12.188 -23.291  0.00  0.00    -0.145 NA
ATOM      3  C   UNL     1      31.657 -10.635 -22.877  0.00  0.00    +0.244 C 
ATOM      4  C   UNL     1      31.119 -11.406 -21.867  0.00  0.00    +0.061 C 
ATOM      5  C   UNL     1      31.736 -12.610 -21.571  0.00  0.00    +0.026 C 
ATOM      6  C   UNL     1      32.848 -12.963 -22.307  0.00  0.00    +0.106 C 
ENDROOT
BRANCH   6   7
ATOM      7  C   UNL     1      33.555 -14.196 -22.066  0.00  0.00    +0.053 C 
ATOM      8  C   UNL     1      33.909 -15.037 -23.121  0.00  0.00    +0.135 C 
ATOM      9  C   UNL     1      33.883 -14.545 -20.756  0.00  0.00    +0.005 C 
ATOM     10  C   UNL     1      34.921 -16.575 -21.557  0.00  0.00    +0.006 C 
ATOM     11  C   UNL     1      34.592 -16.226 -22.867  0.00  0.00    +0.037 C 
ATOM     12  C   UNL     1      34.566 -15.734 -20.501  0.00  0.00    +0.000 C 
BRANCH  10  15
ATOM     13  N   UNL     1      37.231 -19.276 -21.185  0.00  0.00    -0.235 N 
ATOM     14  N   UNL     1      36.177 -19.921 -20.655  0.00  0.00    -0.180 NA
ATOM     15  C   UNL     1      35.625 -17.798 -21.294  0.00  0.00    +0.037 C 
ATOM     16  C   UNL     1      36.952 -18.001 -21.583  0.00  0.00    +0.081 C 
ATOM     17  C   UNL     1      35.199 -19.014 -20.725  0.00  0.00    +0.119 C 
ATOM     18  H   UNL     1      38.121 -19.686 -21.276  0.00  0.00    +0.174 HD
ENDBRANCH  10  15
BRANCH   8  19
ATOM     19  O   UNL     1      33.601 -14.720 -24.411  0.00  0.00    -0.505 OA
ATOM     20  H   UNL     1      33.006 -15.259 -24.896  0.00  0.00    +0.292 HD
ENDBRANCH   8  19
ENDBRANCH   6   7
BRANCH   3  21
ATOM     21  O   UNL     1      31.078  -9.438 -23.200  0.00  0.00    -0.463 OA
BRANCH  21  27
ATOM     22  N   UNL     1      34.109  -6.935 -21.651  0.00  0.00    +0.389 N 
ATOM     23  C   UNL     1      34.157  -7.246 -23.086  0.00  0.00    -0.042 C 
ATOM     24  C   UNL     1      32.809  -6.911 -20.966  0.00  0.00    -0.042 C 
ATOM     25  C   UNL     1      33.231  -8.420 -23.459  0.00  0.00    +0.024 C 
ATOM     26  C   UNL     1      31.909  -8.091 -21.382  0.00  0.00    +0.024 C 
ATOM     27  C   UNL     1      31.824  -8.263 -22.894  0.00  0.00    +0.164 C 
ATOM     28  C   UNL     1      32.081  -5.569 -21.157  0.00  0.00    -0.021 C 
ATOM     29  C   UNL     1      35.613  -7.667 -23.376  0.00  0.00    -0.021 C 
ATOM     30  C   UNL     1      33.860  -6.010 -23.955  0.00  0.00    -0.021 C 
ATOM     31  C   UNL     1      33.125  -7.049 -19.462  0.00  0.00    -0.021 C 
ATOM     32  H   UNL     1      34.525  -6.011 -21.532  0.00  0.00    -0.084 HD
ATOM     33  H   UNL     1      34.599  -7.717 -21.216  0.00  0.00    -0.084 HD
ENDBRANCH  21  27
ENDBRANCH   3  21
TORSDOF 5
ENDMDL
