MODEL 1
REMARK VINA RESULT:     -12.0      0.000      0.000
REMARK  Name = 5288018
REMARK  3 active torsions:
REMARK  status: ('A' for Active; 'I' for Inactive)
REMARK    1  A    between atoms: C_9  and  N_24
REMARK    2  A    between atoms: C_10  and  C_17
REMARK    3  A    between atoms: N_23  and  N_29
REMARK                            x       y       z     vdW  Elec       q    Type
REMARK                         _______ _______ _______ _____ _____    ______ ____
ROOT
ATOM      1  O   UNL     1      32.335 -22.511 -17.967  0.00  0.00    -0.286 OA
ATOM      2  N   UNL     1      32.372 -24.247 -13.857  0.00  0.00    -0.278 N 
ATOM      3  N   UNL     1      33.729 -24.125 -13.846  0.00  0.00    -0.173 NA
ATOM      4  C   UNL     1      34.601 -22.689 -17.047  0.00  0.00    +0.054 C 
ATOM      5  C   UNL     1      32.796 -23.387 -15.794  0.00  0.00    +0.072 A 
ATOM      6  C   UNL     1      35.093 -23.170 -15.801  0.00  0.00    +0.024 C 
ATOM      7  C   UNL     1      33.959 -23.598 -15.040  0.00  0.00    +0.105 A 
ATOM      8  C   UNL     1      33.102 -22.816 -17.077  0.00  0.00    +0.199 C 
ATOM      9  C   UNL     1      35.450 -22.205 -18.001  0.00  0.00    +0.055 C 
ATOM     10  C   UNL     1      31.764 -23.812 -15.018  0.00  0.00    +0.073 A 
ATOM     11  C   UNL     1      36.437 -23.167 -15.508  0.00  0.00    +0.002 C 
ATOM     12  C   UNL     1      36.811 -22.193 -17.728  0.00  0.00    +0.015 C 
ATOM     13  C   UNL     1      37.300 -22.671 -16.491  0.00  0.00    +0.001 C 
ATOM     14  H   UNL     1      31.865 -24.615 -13.098  0.00  0.00    +0.189 HD
ENDROOT
BRANCH  10  17
ATOM     15  S   UNL     1      29.529 -22.513 -15.912  0.00  0.00    -0.075 S 
ATOM     16  N   UNL     1      28.154 -24.615 -15.298  0.00  0.00    -0.407 NA
ATOM     17  C   UNL     1      30.370 -23.850 -15.235  0.00  0.00    +0.141 C 
ATOM     18  C   UNL     1      29.472 -24.869 -14.977  0.00  0.00    +0.103 C 
ATOM     19  C   UNL     1      28.065 -23.403 -15.799  0.00  0.00    +0.135 C 
ATOM     20  C   UNL     1      29.796 -26.190 -14.394  0.00  0.00    +0.063 C 
ATOM     21  C   UNL     1      26.806 -22.777 -16.259  0.00  0.00    +0.074 C 
ENDBRANCH  10  17
BRANCH   9  24
ATOM     22  O   UNL     1      36.450 -19.962 -19.725  0.00  0.00    -0.251 OA
ATOM     23  N   UNL     1      34.731 -20.514 -21.171  0.00  0.00    -0.231 N 
ATOM     24  N   UNL     1      34.977 -21.724 -19.243  0.00  0.00    -0.267 N 
ATOM     25  C   UNL     1      35.485 -20.668 -20.007  0.00  0.00    +0.318 C 
ATOM     26  H   UNL     1      33.965 -21.106 -21.351  0.00  0.00    +0.171 HD
ATOM     27  H   UNL     1      34.192 -22.189 -19.616  0.00  0.00    +0.156 HD
BRANCH  23  29
ATOM     28  N   UNL     1      34.480 -17.127 -23.573  0.00  0.00    +0.387 N 
ATOM     29  N   UNL     1      35.071 -19.518 -22.067  0.00  0.00    -0.209 NA
ATOM     30  C   UNL     1      35.372 -17.092 -22.407  0.00  0.00    -0.058 C 
ATOM     31  C   UNL     1      34.533 -18.443 -24.223  0.00  0.00    -0.058 C 
ATOM     32  C   UNL     1      35.017 -18.206 -21.416  0.00  0.00    +0.069 C 
ATOM     33  C   UNL     1      34.179 -19.556 -23.231  0.00  0.00    +0.069 C 
ATOM     34  C   UNL     1      34.820 -16.066 -24.519  0.00  0.00    -0.101 C 
ATOM     35  H   UNL     1      33.524 -16.967 -23.251  0.00  0.00    -0.080 HD
ENDBRANCH  23  29
ENDBRANCH   9  24
TORSDOF 3
ENDMDL
MODEL 2
REMARK VINA RESULT:     -10.3      9.031     15.211
REMARK  Name = 5288018
REMARK  3 active torsions:
REMARK  status: ('A' for Active; 'I' for Inactive)
REMARK    1  A    between atoms: C_9  and  N_24
REMARK    2  A    between atoms: C_10  and  C_17
REMARK    3  A    between atoms: N_23  and  N_29
REMARK                            x       y       z     vdW  Elec       q    Type
REMARK                         _______ _______ _______ _____ _____    ______ ____
ROOT
ATOM      1  O   UNL     1      33.053  -9.187 -23.631  0.00  0.00    -0.286 OA
ATOM      2  N   UNL     1      32.197  -5.195 -21.832  0.00  0.00    -0.278 N 
ATOM      3  N   UNL     1      31.797  -5.824 -20.691  0.00  0.00    -0.173 NA
ATOM      4  C   UNL     1      32.199  -9.357 -21.338  0.00  0.00    +0.054 C 
ATOM      5  C   UNL     1      32.471  -7.285 -22.310  0.00  0.00    +0.072 A 
ATOM      6  C   UNL     1      31.799  -8.374 -20.390  0.00  0.00    +0.024 C 
ATOM      7  C   UNL     1      31.974  -7.097 -21.012  0.00  0.00    +0.105 A 
ATOM      8  C   UNL     1      32.645  -8.680 -22.606  0.00  0.00    +0.199 C 
ATOM      9  C   UNL     1      32.147 -10.689 -21.038  0.00  0.00    +0.055 C 
ATOM     10  C   UNL     1      32.613  -6.041 -22.840  0.00  0.00    +0.073 A 
ATOM     11  C   UNL     1      31.345  -8.722 -19.139  0.00  0.00    +0.002 C 
ATOM     12  C   UNL     1      31.693 -11.064 -19.781  0.00  0.00    +0.015 C 
ATOM     13  C   UNL     1      31.295 -10.087 -18.840  0.00  0.00    +0.001 C 
ATOM     14  H   UNL     1      32.190  -4.216 -21.930  0.00  0.00    +0.189 HD
ENDROOT
BRANCH  10  17
ATOM     15  S   UNL     1      32.071  -4.653 -25.133  0.00  0.00    -0.075 S 
ATOM     16  N   UNL     1      34.450  -5.238 -25.960  0.00  0.00    -0.407 NA
ATOM     17  C   UNL     1      33.068  -5.596 -24.100  0.00  0.00    +0.141 C 
ATOM     18  C   UNL     1      34.291  -5.802 -24.711  0.00  0.00    +0.103 C 
ATOM     19  C   UNL     1      33.343  -4.607 -26.285  0.00  0.00    +0.135 C 
ATOM     20  C   UNL     1      35.429  -6.564 -24.150  0.00  0.00    +0.063 C 
ATOM     21  C   UNL     1      33.136  -3.878 -27.555  0.00  0.00    +0.074 C 
ENDBRANCH  10  17
BRANCH   9  24
ATOM     22  O   UNL     1      32.788 -13.592 -20.635  0.00  0.00    -0.251 OA
ATOM     23  N   UNL     1      33.179 -13.663 -22.913  0.00  0.00    -0.231 N 
ATOM     24  N   UNL     1      32.541 -11.677 -21.968  0.00  0.00    -0.267 N 
ATOM     25  C   UNL     1      32.828 -13.024 -21.723  0.00  0.00    +0.318 C 
ATOM     26  H   UNL     1      33.197 -13.163 -23.761  0.00  0.00    +0.171 HD
ATOM     27  H   UNL     1      32.623 -11.382 -22.904  0.00  0.00    +0.156 HD
BRANCH  23  29
ATOM     28  N   UNL     1      35.345 -17.197 -23.260  0.00  0.00    +0.387 N 
ATOM     29  N   UNL     1      33.503 -15.006 -22.887  0.00  0.00    -0.209 NA
ATOM     30  C   UNL     1      34.974 -16.734 -21.917  0.00  0.00    -0.058 C 
ATOM     31  C   UNL     1      34.253 -16.950 -24.210  0.00  0.00    -0.058 C 
ATOM     32  C   UNL     1      34.592 -15.250 -21.938  0.00  0.00    +0.069 C 
ATOM     33  C   UNL     1      33.872 -15.466 -24.230  0.00  0.00    +0.069 C 
ATOM     34  C   UNL     1      35.706 -18.613 -23.241  0.00  0.00    -0.101 C 
ATOM     35  H   UNL     1      36.162 -16.668 -23.568  0.00  0.00    -0.080 HD
ENDBRANCH  23  29
ENDBRANCH   9  24
TORSDOF 3
ENDMDL
MODEL 3
REMARK VINA RESULT:     -10.1      8.825     15.086
REMARK  Name = 5288018
REMARK  3 active torsions:
REMARK  status: ('A' for Active; 'I' for Inactive)
REMARK    1  A    between atoms: C_9  and  N_24
REMARK    2  A    between atoms: C_10  and  C_17
REMARK    3  A    between atoms: N_23  and  N_29
REMARK                            x       y       z     vdW  Elec       q    Type
REMARK                         _______ _______ _______ _____ _____    ______ ____
ROOT
ATOM      1  O   UNL     1      33.229  -9.455 -23.644  0.00  0.00    -0.286 OA
ATOM      2  N   UNL     1      32.692  -5.528 -21.596  0.00  0.00    -0.278 N 
ATOM      3  N   UNL     1      32.189  -6.189 -20.516  0.00  0.00    -0.173 NA
ATOM      4  C   UNL     1      32.273  -9.693 -21.398  0.00  0.00    +0.054 C 
ATOM      5  C   UNL     1      32.782  -7.597 -22.211  0.00  0.00    +0.072 A 
ATOM      6  C   UNL     1      31.933  -8.741 -20.397  0.00  0.00    +0.024 C 
ATOM      7  C   UNL     1      32.255  -7.449 -20.920  0.00  0.00    +0.105 A 
ATOM      8  C   UNL     1      32.832  -8.981 -22.600  0.00  0.00    +0.199 C 
ATOM      9  C   UNL     1      32.081 -11.030 -21.194  0.00  0.00    +0.055 C 
ATOM     10  C   UNL     1      33.064  -6.342 -22.647  0.00  0.00    +0.073 A 
ATOM     11  C   UNL     1      31.399  -9.125 -19.188  0.00  0.00    +0.002 C 
ATOM     12  C   UNL     1      31.544 -11.442 -19.982  0.00  0.00    +0.015 C 
ATOM     13  C   UNL     1      31.205 -10.496 -18.988  0.00  0.00    +0.001 C 
ATOM     14  H   UNL     1      32.783  -4.548 -21.625  0.00  0.00    +0.189 HD
ENDROOT
BRANCH  10  17
ATOM     15  S   UNL     1      35.167  -6.341 -24.397  0.00  0.00    -0.075 S 
ATOM     16  N   UNL     1      33.834  -4.696 -25.881  0.00  0.00    -0.407 NA
ATOM     17  C   UNL     1      33.608  -5.860 -23.857  0.00  0.00    +0.141 C 
ATOM     18  C   UNL     1      33.058  -4.987 -24.777  0.00  0.00    +0.103 C 
ATOM     19  C   UNL     1      34.969  -5.353 -25.787  0.00  0.00    +0.135 C 
ATOM     20  C   UNL     1      31.728  -4.346 -24.683  0.00  0.00    +0.063 C 
ATOM     21  C   UNL     1      36.057  -5.292 -26.787  0.00  0.00    +0.074 C 
ENDBRANCH  10  17
BRANCH   9  24
ATOM     22  O   UNL     1      33.983 -13.349 -21.086  0.00  0.00    -0.251 OA
ATOM     23  N   UNL     1      33.354 -13.767 -23.272  0.00  0.00    -0.231 N 
ATOM     24  N   UNL     1      32.413 -11.988 -22.179  0.00  0.00    -0.267 N 
ATOM     25  C   UNL     1      33.313 -13.054 -22.073  0.00  0.00    +0.318 C 
ATOM     26  H   UNL     1      32.797 -13.490 -24.035  0.00  0.00    +0.171 HD
ATOM     27  H   UNL     1      31.957 -11.893 -23.046  0.00  0.00    +0.156 HD
BRANCH  23  29
ATOM     28  N   UNL     1      34.704 -17.701 -23.231  0.00  0.00    +0.387 N 
ATOM     29  N   UNL     1      34.187 -14.865 -23.376  0.00  0.00    -0.209 NA
ATOM     30  C   UNL     1      34.605 -17.010 -24.523  0.00  0.00    -0.058 C 
ATOM     31  C   UNL     1      35.191 -16.784 -22.193  0.00  0.00    -0.058 C 
ATOM     32  C   UNL     1      33.699 -15.778 -24.414  0.00  0.00    +0.069 C 
ATOM     33  C   UNL     1      34.286 -15.553 -22.085  0.00  0.00    +0.069 C 
ATOM     34  C   UNL     1      35.570 -18.874 -23.336  0.00  0.00    -0.101 C 
ATOM     35  H   UNL     1      33.772 -18.020 -22.965  0.00  0.00    -0.080 HD
ENDBRANCH  23  29
ENDBRANCH   9  24
TORSDOF 3
ENDMDL
MODEL 4
REMARK VINA RESULT:     -10.0     10.966     18.197
REMARK  Name = 5288018
REMARK  3 active torsions:
REMARK  status: ('A' for Active; 'I' for Inactive)
REMARK    1  A    between atoms: C_9  and  N_24
REMARK    2  A    between atoms: C_10  and  C_17
REMARK    3  A    between atoms: N_23  and  N_29
REMARK                            x       y       z     vdW  Elec       q    Type
REMARK                         _______ _______ _______ _____ _____    ______ ____
ROOT
ATOM      1  O   UNL     1      32.784  -7.393 -25.372  0.00  0.00    -0.286 OA
ATOM      2  N   UNL     1      33.657  -3.120 -26.313  0.00  0.00    -0.278 N 
ATOM      3  N   UNL     1      33.054  -2.766 -25.143  0.00  0.00    -0.173 NA
ATOM      4  C   UNL     1      31.973  -5.866 -23.632  0.00  0.00    +0.054 C 
ATOM      5  C   UNL     1      33.049  -5.022 -25.488  0.00  0.00    +0.072 A 
ATOM      6  C   UNL     1      32.023  -4.450 -23.502  0.00  0.00    +0.024 C 
ATOM      7  C   UNL     1      32.694  -3.946 -24.662  0.00  0.00    +0.105 A 
ATOM      8  C   UNL     1      32.635  -6.276 -24.920  0.00  0.00    +0.199 C 
ATOM      9  C   UNL     1      31.388  -6.643 -22.672  0.00  0.00    +0.055 C 
ATOM     10  C   UNL     1      33.677  -4.477 -26.563  0.00  0.00    +0.073 A 
ATOM     11  C   UNL     1      31.488  -3.807 -22.409  0.00  0.00    +0.002 C 
ATOM     12  C   UNL     1      30.842  -6.016 -21.560  0.00  0.00    +0.015 C 
ATOM     13  C   UNL     1      30.891  -4.610 -21.431  0.00  0.00    +0.001 C 
ATOM     14  H   UNL     1      34.048  -2.460 -26.931  0.00  0.00    +0.189 HD
ENDROOT
BRANCH  10  17
ATOM     15  S   UNL     1      35.687  -5.994 -27.630  0.00  0.00    -0.075 S 
ATOM     16  N   UNL     1      34.601  -5.665 -29.953  0.00  0.00    -0.407 NA
ATOM     17  C   UNL     1      34.252  -5.054 -27.715  0.00  0.00    +0.141 C 
ATOM     18  C   UNL     1      33.825  -4.993 -29.029  0.00  0.00    +0.103 C 
ATOM     19  C   UNL     1      35.611  -6.230 -29.329  0.00  0.00    +0.135 C 
ATOM     20  C   UNL     1      32.626  -4.282 -29.525  0.00  0.00    +0.063 C 
ATOM     21  C   UNL     1      36.658  -7.038 -29.990  0.00  0.00    +0.074 C 
ENDBRANCH  10  17
BRANCH   9  24
ATOM     22  O   UNL     1      33.399  -8.739 -21.917  0.00  0.00    -0.251 OA
ATOM     23  N   UNL     1      31.857 -10.277 -22.696  0.00  0.00    -0.231 N 
ATOM     24  N   UNL     1      31.330  -8.050 -22.787  0.00  0.00    -0.267 N 
ATOM     25  C   UNL     1      32.303  -8.985 -22.417  0.00  0.00    +0.318 C 
ATOM     26  H   UNL     1      30.970 -10.422 -23.098  0.00  0.00    +0.171 HD
ATOM     27  H   UNL     1      30.504  -8.419 -23.177  0.00  0.00    +0.156 HD
BRANCH  23  29
ATOM     28  N   UNL     1      33.429 -14.128 -22.643  0.00  0.00    +0.387 N 
ATOM     29  N   UNL     1      32.675 -11.351 -22.403  0.00  0.00    -0.209 NA
ATOM     30  C   UNL     1      34.194 -13.069 -23.315  0.00  0.00    -0.058 C 
ATOM     31  C   UNL     1      32.802 -13.611 -21.420  0.00  0.00    -0.058 C 
ATOM     32  C   UNL     1      33.300 -11.863 -23.626  0.00  0.00    +0.069 C 
ATOM     33  C   UNL     1      31.909 -12.406 -21.731  0.00  0.00    +0.069 C 
ATOM     34  C   UNL     1      34.282 -15.276 -22.345  0.00  0.00    -0.101 C 
ATOM     35  H   UNL     1      32.690 -14.440 -23.275  0.00  0.00    -0.080 HD
ENDBRANCH  23  29
ENDBRANCH   9  24
TORSDOF 3
ENDMDL
MODEL 5
REMARK VINA RESULT:      -9.8     10.405     17.496
REMARK  Name = 5288018
REMARK  3 active torsions:
REMARK  status: ('A' for Active; 'I' for Inactive)
REMARK    1  A    between atoms: C_9  and  N_24
REMARK    2  A    between atoms: C_10  and  C_17
REMARK    3  A    between atoms: N_23  and  N_29
REMARK                            x       y       z     vdW  Elec       q    Type
REMARK                         _______ _______ _______ _____ _____    ______ ____
ROOT
ATOM      1  O   UNL     1      34.313  -7.616 -25.164  0.00  0.00    -0.286 OA
ATOM      2  N   UNL     1      32.912  -3.385 -24.976  0.00  0.00    -0.278 N 
ATOM      3  N   UNL     1      32.314  -3.663 -23.783  0.00  0.00    -0.173 NA
ATOM      4  C   UNL     1      33.011  -7.150 -23.138  0.00  0.00    +0.054 C 
ATOM      5  C   UNL     1      33.379  -5.473 -24.676  0.00  0.00    +0.072 A 
ATOM      6  C   UNL     1      32.376  -5.971 -22.659  0.00  0.00    +0.024 C 
ATOM      7  C   UNL     1      32.616  -4.943 -23.626  0.00  0.00    +0.105 A 
ATOM      8  C   UNL     1      33.677  -6.862 -24.456  0.00  0.00    +0.199 C 
ATOM      9  C   UNL     1      32.961  -8.316 -22.428  0.00  0.00    +0.055 C 
ATOM     10  C   UNL     1      33.569  -4.453 -25.553  0.00  0.00    +0.073 A 
ATOM     11  C   UNL     1      31.689  -5.955 -21.467  0.00  0.00    +0.002 C 
ATOM     12  C   UNL     1      32.274  -8.325 -21.222  0.00  0.00    +0.015 C 
ATOM     13  C   UNL     1      31.643  -7.153 -20.746  0.00  0.00    +0.001 C 
ATOM     14  H   UNL     1      32.879  -2.493 -25.393  0.00  0.00    +0.189 HD
ENDROOT
BRANCH  10  17
ATOM     15  S   UNL     1      35.925  -4.756 -26.911  0.00  0.00    -0.075 S 
ATOM     16  N   UNL     1      34.687  -4.044 -29.066  0.00  0.00    -0.407 NA
ATOM     17  C   UNL     1      34.253  -4.379 -26.785  0.00  0.00    +0.141 C 
ATOM     18  C   UNL     1      33.772  -4.024 -28.033  0.00  0.00    +0.103 C 
ATOM     19  C   UNL     1      35.856  -4.416 -28.591  0.00  0.00    +0.135 C 
ATOM     20  C   UNL     1      32.383  -3.630 -28.352  0.00  0.00    +0.063 C 
ATOM     21  C   UNL     1      37.084  -4.554 -29.404  0.00  0.00    +0.074 C 
ENDBRANCH  10  17
BRANCH   9  24
ATOM     22  O   UNL     1      31.919 -11.124 -22.611  0.00  0.00    -0.251 OA
ATOM     23  N   UNL     1      33.993 -11.672 -23.475  0.00  0.00    -0.231 N 
ATOM     24  N   UNL     1      33.586  -9.496 -22.891  0.00  0.00    -0.267 N 
ATOM     25  C   UNL     1      33.049 -10.786 -22.954  0.00  0.00    +0.318 C 
ATOM     26  H   UNL     1      34.887 -11.352 -23.735  0.00  0.00    +0.171 HD
ATOM     27  H   UNL     1      34.514  -9.399 -23.207  0.00  0.00    +0.156 HD
BRANCH  23  29
ATOM     28  N   UNL     1      34.272 -15.727 -24.364  0.00  0.00    +0.387 N 
ATOM     29  N   UNL     1      33.659 -13.006 -23.620  0.00  0.00    -0.209 NA
ATOM     30  C   UNL     1      34.178 -15.325 -22.955  0.00  0.00    -0.058 C 
ATOM     31  C   UNL     1      33.404 -14.886 -25.198  0.00  0.00    -0.058 C 
ATOM     32  C   UNL     1      34.526 -13.842 -22.786  0.00  0.00    +0.069 C 
ATOM     33  C   UNL     1      33.752 -13.404 -25.028  0.00  0.00    +0.069 C 
ATOM     34  C   UNL     1      33.937 -17.140 -24.525  0.00  0.00    -0.101 C 
ATOM     35  H   UNL     1      35.237 -15.595 -24.671  0.00  0.00    -0.080 HD
ENDBRANCH  23  29
ENDBRANCH   9  24
TORSDOF 3
ENDMDL
MODEL 6
REMARK VINA RESULT:      -9.3      9.485     14.499
REMARK  Name = 5288018
REMARK  3 active torsions:
REMARK  status: ('A' for Active; 'I' for Inactive)
REMARK    1  A    between atoms: C_9  and  N_24
REMARK    2  A    between atoms: C_10  and  C_17
REMARK    3  A    between atoms: N_23  and  N_29
REMARK                            x       y       z     vdW  Elec       q    Type
REMARK                         _______ _______ _______ _____ _____    ______ ____
ROOT
ATOM      1  O   UNL     1      34.337 -10.587 -23.987  0.00  0.00    -0.286 OA
ATOM      2  N   UNL     1      31.474 -12.624 -21.239  0.00  0.00    -0.278 N 
ATOM      3  N   UNL     1      30.909 -11.413 -20.971  0.00  0.00    -0.173 NA
ATOM      4  C   UNL     1      32.769  -9.019 -22.939  0.00  0.00    +0.054 C 
ATOM      5  C   UNL     1      32.642 -11.268 -22.450  0.00  0.00    +0.072 A 
ATOM      6  C   UNL     1      31.705  -9.205 -22.014  0.00  0.00    +0.024 C 
ATOM      7  C   UNL     1      31.642 -10.606 -21.723  0.00  0.00    +0.105 A 
ATOM      8  C   UNL     1      33.406 -10.348 -23.247  0.00  0.00    +0.199 C 
ATOM      9  C   UNL     1      33.082  -7.777 -23.413  0.00  0.00    +0.055 C 
ATOM     10  C   UNL     1      32.528 -12.584 -22.130  0.00  0.00    +0.073 A 
ATOM     11  C   UNL     1      30.949  -8.148 -21.561  0.00  0.00    +0.002 C 
ATOM     12  C   UNL     1      32.334  -6.694 -22.971  0.00  0.00    +0.015 C 
ATOM     13  C   UNL     1      31.276  -6.880 -22.052  0.00  0.00    +0.001 C 
ATOM     14  H   UNL     1      31.156 -13.462 -20.830  0.00  0.00    +0.189 HD
ENDROOT
BRANCH  10  17
ATOM     15  S   UNL     1      33.221 -14.266 -24.172  0.00  0.00    -0.075 S 
ATOM     16  N   UNL     1      34.640 -15.612 -22.482  0.00  0.00    -0.407 NA
ATOM     17  C   UNL     1      33.250 -13.724 -22.542  0.00  0.00    +0.141 C 
ATOM     18  C   UNL     1      34.056 -14.565 -21.797  0.00  0.00    +0.103 C 
ATOM     19  C   UNL     1      34.270 -15.555 -23.742  0.00  0.00    +0.135 C 
ATOM     20  C   UNL     1      34.345 -14.443 -20.352  0.00  0.00    +0.063 C 
ATOM     21  C   UNL     1      34.697 -16.513 -24.785  0.00  0.00    +0.074 C 
ENDBRANCH  10  17
BRANCH   9  24
ATOM     22  O   UNL     1      33.353  -5.806 -25.660  0.00  0.00    -0.251 OA
ATOM     23  N   UNL     1      35.423  -6.763 -26.043  0.00  0.00    -0.231 N 
ATOM     24  N   UNL     1      34.137  -7.575 -24.332  0.00  0.00    -0.267 N 
ATOM     25  C   UNL     1      34.210  -6.636 -25.366  0.00  0.00    +0.318 C 
ATOM     26  H   UNL     1      36.078  -7.445 -25.769  0.00  0.00    +0.171 HD
ATOM     27  H   UNL     1      34.916  -8.170 -24.233  0.00  0.00    +0.156 HD
BRANCH  23  29
ATOM     28  N   UNL     1      37.512  -4.547 -28.877  0.00  0.00    +0.387 N 
ATOM     29  N   UNL     1      35.693  -5.923 -27.107  0.00  0.00    -0.209 NA
ATOM     30  C   UNL     1      36.746  -5.715 -29.329  0.00  0.00    -0.058 C 
ATOM     31  C   UNL     1      36.781  -3.827 -27.826  0.00  0.00    -0.058 C 
ATOM     32  C   UNL     1      36.422  -6.644 -28.154  0.00  0.00    +0.069 C 
ATOM     33  C   UNL     1      36.457  -4.757 -26.652  0.00  0.00    +0.069 C 
ATOM     34  C   UNL     1      37.818  -3.660 -29.997  0.00  0.00    -0.101 C 
ATOM     35  H   UNL     1      38.396  -4.875 -28.485  0.00  0.00    -0.080 HD
ENDBRANCH  23  29
ENDBRANCH   9  24
TORSDOF 3
ENDMDL
