MODEL 1
REMARK VINA RESULT:     -11.8      0.000      0.000
REMARK  Name = 2929
REMARK  5 active torsions:
REMARK  status: ('A' for Active; 'I' for Inactive)
REMARK    1  A    between atoms: N_1  and  C_22
REMARK    2  A    between atoms: C_4  and  C_11
REMARK    3  A    between atoms: C_11  and  C_14
REMARK    4  A    between atoms: N_13  and  C_17
REMARK    5  A    between atoms: C_22  and  C_24
REMARK                            x       y       z     vdW  Elec       q    Type
REMARK                         _______ _______ _______ _____ _____    ______ ____
ROOT
ATOM      1  N   UNL     1      33.905 -23.727 -14.681  0.00  0.00    -0.281 N 
ATOM      2  C   UNL     1      32.542 -23.554 -14.764  0.00  0.00    +0.052 C 
ATOM      3  C   UNL     1      32.230 -23.388 -16.115  0.00  0.00    +0.018 C 
ATOM      4  C   UNL     1      33.452 -23.467 -16.839  0.00  0.00    +0.060 C 
ATOM      5  C   UNL     1      34.464 -23.676 -15.930  0.00  0.00    +0.069 C 
ATOM      6  C   UNL     1      31.572 -23.532 -13.756  0.00  0.00    +0.015 C 
ATOM      7  C   UNL     1      30.883 -23.189 -16.480  0.00  0.00    +0.001 C 
ATOM      8  C   UNL     1      30.243 -23.334 -14.142  0.00  0.00    +0.001 C 
ATOM      9  C   UNL     1      29.902 -23.166 -15.482  0.00  0.00    +0.000 C 
ENDROOT
BRANCH   4  11
ATOM     10  O   UNL     1      33.786 -24.321 -19.030  0.00  0.00    -0.282 OA
ATOM     11  C   UNL     1      33.651 -23.358 -18.256  0.00  0.00    +0.250 C 
BRANCH  11  14
ATOM     12  O   UNL     1      32.719 -21.342 -18.973  0.00  0.00    -0.266 OA
ATOM     13  N   UNL     1      34.981 -21.806 -19.502  0.00  0.00    -0.278 N 
ATOM     14  C   UNL     1      33.730 -22.023 -18.965  0.00  0.00    +0.289 C 
ATOM     15  H   UNL     1      35.648 -22.517 -19.365  0.00  0.00    +0.155 HD
BRANCH  13  17
ATOM     16  N   UNL     1      36.252 -18.441 -21.652  0.00  0.00    -0.242 NA
ATOM     17  C   UNL     1      35.410 -20.670 -20.227  0.00  0.00    +0.054 C 
ATOM     18  C   UNL     1      36.702 -20.211 -20.068  0.00  0.00    +0.035 C 
ATOM     19  C   UNL     1      34.529 -20.039 -21.083  0.00  0.00    +0.035 C 
ATOM     20  C   UNL     1      37.074 -19.096 -20.802  0.00  0.00    +0.100 C 
ATOM     21  C   UNL     1      34.997 -18.931 -21.770  0.00  0.00    +0.100 C 
ENDBRANCH  13  17
ENDBRANCH  11  14
ENDBRANCH   4  11
BRANCH   1  22
ATOM     22  C   UNL     1      34.655 -23.933 -13.461  0.00  0.00    +0.122 C 
BRANCH  22  24
ATOM     23 CL   UNL     1      40.005 -26.412 -14.577  0.00  0.00    -0.082 Cl
ATOM     24  C   UNL     1      35.997 -24.555 -13.740  0.00  0.00    -0.002 C 
ATOM     25  C   UNL     1      37.154 -23.865 -13.404  0.00  0.00    -0.002 C 
ATOM     26  C   UNL     1      36.059 -25.810 -14.330  0.00  0.00    -0.002 C 
ATOM     27  C   UNL     1      38.397 -24.442 -13.664  0.00  0.00    +0.011 C 
ATOM     28  C   UNL     1      37.302 -26.386 -14.590  0.00  0.00    +0.011 C 
ATOM     29  C   UNL     1      38.472 -25.702 -14.256  0.00  0.00    +0.058 C 
ENDBRANCH  22  24
ENDBRANCH   1  22
TORSDOF 5
ENDMDL
MODEL 2
REMARK VINA RESULT:     -11.0      3.018      5.400
REMARK  Name = 2929
REMARK  5 active torsions:
REMARK  status: ('A' for Active; 'I' for Inactive)
REMARK    1  A    between atoms: N_1  and  C_22
REMARK    2  A    between atoms: C_4  and  C_11
REMARK    3  A    between atoms: C_11  and  C_14
REMARK    4  A    between atoms: N_13  and  C_17
REMARK    5  A    between atoms: C_22  and  C_24
REMARK                            x       y       z     vdW  Elec       q    Type
REMARK                         _______ _______ _______ _____ _____    ______ ____
ROOT
ATOM      1  N   UNL     1      32.692 -24.006 -15.186  0.00  0.00    -0.281 N 
ATOM      2  C   UNL     1      34.008 -23.725 -14.899  0.00  0.00    +0.052 C 
ATOM      3  C   UNL     1      34.640 -23.430 -16.108  0.00  0.00    +0.018 C 
ATOM      4  C   UNL     1      33.658 -23.544 -17.131  0.00  0.00    +0.060 C 
ATOM      5  C   UNL     1      32.470 -23.899 -16.533  0.00  0.00    +0.069 C 
ATOM      6  C   UNL     1      34.680 -23.709 -13.671  0.00  0.00    +0.015 C 
ATOM      7  C   UNL     1      36.010 -23.104 -16.095  0.00  0.00    +0.001 C 
ATOM      8  C   UNL     1      36.039 -23.383 -13.683  0.00  0.00    +0.001 C 
ATOM      9  C   UNL     1      36.696 -23.084 -14.875  0.00  0.00    +0.000 C 
ENDROOT
BRANCH   4  11
ATOM     10  O   UNL     1      33.960 -24.242 -19.381  0.00  0.00    -0.282 OA
ATOM     11  C   UNL     1      33.819 -23.336 -18.542  0.00  0.00    +0.250 C 
BRANCH  11  14
ATOM     12  O   UNL     1      32.832 -21.287 -19.065  0.00  0.00    -0.266 OA
ATOM     13  N   UNL     1      35.062 -21.689 -19.756  0.00  0.00    -0.278 N 
ATOM     14  C   UNL     1      33.846 -21.956 -19.163  0.00  0.00    +0.289 C 
ATOM     15  H   UNL     1      35.741 -22.401 -19.707  0.00  0.00    +0.155 HD
BRANCH  13  17
ATOM     16  N   UNL     1      36.179 -18.174 -21.745  0.00  0.00    -0.242 NA
ATOM     17  C   UNL     1      35.438 -20.503 -20.427  0.00  0.00    +0.054 C 
ATOM     18  C   UNL     1      36.732 -20.035 -20.304  0.00  0.00    +0.035 C 
ATOM     19  C   UNL     1      34.507 -19.832 -21.194  0.00  0.00    +0.035 C 
ATOM     20  C   UNL     1      37.051 -18.869 -20.982  0.00  0.00    +0.100 C 
ATOM     21  C   UNL     1      34.925 -18.675 -21.831  0.00  0.00    +0.100 C 
ENDBRANCH  13  17
ENDBRANCH  11  14
ENDBRANCH   4  11
BRANCH   1  22
ATOM     22  C   UNL     1      31.676 -24.364 -14.219  0.00  0.00    +0.122 C 
BRANCH  22  24
ATOM     23 CL   UNL     1      26.251 -22.461 -15.942  0.00  0.00    -0.082 Cl
ATOM     24  C   UNL     1      30.315 -23.887 -14.651  0.00  0.00    -0.002 C 
ATOM     25  C   UNL     1      29.460 -24.762 -15.308  0.00  0.00    -0.002 C 
ATOM     26  C   UNL     1      29.933 -22.579 -14.386  0.00  0.00    -0.002 C 
ATOM     27  C   UNL     1      28.199 -24.319 -15.708  0.00  0.00    +0.011 C 
ATOM     28  C   UNL     1      28.673 -22.137 -14.787  0.00  0.00    +0.011 C 
ATOM     29  C   UNL     1      27.806 -23.007 -15.447  0.00  0.00    +0.058 C 
ENDBRANCH  22  24
ENDBRANCH   1  22
TORSDOF 5
ENDMDL
MODEL 3
REMARK VINA RESULT:     -10.7      3.468      6.830
REMARK  Name = 2929
REMARK  5 active torsions:
REMARK  status: ('A' for Active; 'I' for Inactive)
REMARK    1  A    between atoms: N_1  and  C_22
REMARK    2  A    between atoms: C_4  and  C_11
REMARK    3  A    between atoms: C_11  and  C_14
REMARK    4  A    between atoms: N_13  and  C_17
REMARK    5  A    between atoms: C_22  and  C_24
REMARK                            x       y       z     vdW  Elec       q    Type
REMARK                         _______ _______ _______ _____ _____    ______ ____
ROOT
ATOM      1  N   UNL     1      33.433 -23.894 -16.675  0.00  0.00    -0.281 N 
ATOM      2  C   UNL     1      32.270 -23.538 -16.029  0.00  0.00    +0.052 C 
ATOM      3  C   UNL     1      32.562 -23.466 -14.666  0.00  0.00    +0.018 C 
ATOM      4  C   UNL     1      33.939 -23.792 -14.516  0.00  0.00    +0.060 C 
ATOM      5  C   UNL     1      34.447 -24.049 -15.768  0.00  0.00    +0.069 C 
ATOM      6  C   UNL     1      30.996 -23.277 -16.544  0.00  0.00    +0.015 C 
ATOM      7  C   UNL     1      31.532 -23.118 -13.770  0.00  0.00    +0.001 C 
ATOM      8  C   UNL     1      29.990 -22.932 -15.636  0.00  0.00    +0.001 C 
ATOM      9  C   UNL     1      30.252 -22.853 -14.270  0.00  0.00    +0.000 C 
ENDROOT
BRANCH   4  11
ATOM     10  O   UNL     1      34.228 -23.934 -12.162  0.00  0.00    -0.282 OA
ATOM     11  C   UNL     1      34.708 -23.853 -13.305  0.00  0.00    +0.250 C 
BRANCH  11  14
ATOM     12  O   UNL     1      36.746 -22.829 -12.807  0.00  0.00    -0.266 OA
ATOM     13  N   UNL     1      36.762 -24.939 -13.885  0.00  0.00    -0.278 N 
ATOM     14  C   UNL     1      36.222 -23.813 -13.302  0.00  0.00    +0.289 C 
ATOM     15  H   UNL     1      36.124 -25.610 -14.220  0.00  0.00    +0.155 HD
BRANCH  13  17
ATOM     16  N   UNL     1      40.828 -25.820 -14.378  0.00  0.00    -0.242 NA
ATOM     17  C   UNL     1      38.134 -25.236 -14.051  0.00  0.00    +0.054 C 
ATOM     18  C   UNL     1      38.739 -26.146 -13.207  0.00  0.00    +0.035 C 
ATOM     19  C   UNL     1      38.847 -24.611 -15.055  0.00  0.00    +0.035 C 
ATOM     20  C   UNL     1      40.085 -26.403 -13.411  0.00  0.00    +0.100 C 
ATOM     21  C   UNL     1      40.188 -24.936 -15.176  0.00  0.00    +0.100 C 
ENDBRANCH  13  17
ENDBRANCH  11  14
ENDBRANCH   4  11
BRANCH   1  22
ATOM     22  C   UNL     1      33.580 -24.082 -18.102  0.00  0.00    +0.122 C 
BRANCH  22  24
ATOM     23 CL   UNL     1      34.991 -18.939 -20.855  0.00  0.00    -0.082 Cl
ATOM     24  C   UNL     1      33.934 -22.791 -18.792  0.00  0.00    -0.002 C 
ATOM     25  C   UNL     1      32.922 -21.988 -19.300  0.00  0.00    -0.002 C 
ATOM     26  C   UNL     1      35.267 -22.423 -18.911  0.00  0.00    -0.002 C 
ATOM     27  C   UNL     1      33.251 -20.793 -19.940  0.00  0.00    +0.011 C 
ATOM     28  C   UNL     1      35.595 -21.229 -19.552  0.00  0.00    +0.011 C 
ATOM     29  C   UNL     1      34.587 -20.413 -20.065  0.00  0.00    +0.058 C 
ENDBRANCH  22  24
ENDBRANCH   1  22
TORSDOF 5
ENDMDL
MODEL 4
REMARK VINA RESULT:     -10.3      3.579      7.336
REMARK  Name = 2929
REMARK  5 active torsions:
REMARK  status: ('A' for Active; 'I' for Inactive)
REMARK    1  A    between atoms: N_1  and  C_22
REMARK    2  A    between atoms: C_4  and  C_11
REMARK    3  A    between atoms: C_11  and  C_14
REMARK    4  A    between atoms: N_13  and  C_17
REMARK    5  A    between atoms: C_22  and  C_24
REMARK                            x       y       z     vdW  Elec       q    Type
REMARK                         _______ _______ _______ _____ _____    ______ ____
ROOT
ATOM      1  N   UNL     1      36.921 -23.394 -15.098  0.00  0.00    -0.281 N 
ATOM      2  C   UNL     1      37.693 -24.392 -14.546  0.00  0.00    +0.052 C 
ATOM      3  C   UNL     1      36.940 -24.979 -13.527  0.00  0.00    +0.018 C 
ATOM      4  C   UNL     1      35.692 -24.299 -13.486  0.00  0.00    +0.060 C 
ATOM      5  C   UNL     1      35.710 -23.330 -14.464  0.00  0.00    +0.069 C 
ATOM      6  C   UNL     1      38.987 -24.815 -14.870  0.00  0.00    +0.015 C 
ATOM      7  C   UNL     1      37.506 -26.039 -12.792  0.00  0.00    +0.001 C 
ATOM      8  C   UNL     1      39.527 -25.869 -14.128  0.00  0.00    +0.001 C 
ATOM      9  C   UNL     1      38.799 -26.474 -13.105  0.00  0.00    +0.000 C 
ENDROOT
BRANCH   4  11
ATOM     10  O   UNL     1      34.649 -25.148 -11.528  0.00  0.00    -0.282 OA
ATOM     11  C   UNL     1      34.581 -24.538 -12.609  0.00  0.00    +0.250 C 
BRANCH  11  14
ATOM     12  O   UNL     1      32.708 -23.204 -12.210  0.00  0.00    -0.266 OA
ATOM     13  N   UNL     1      32.656 -24.733 -14.018  0.00  0.00    -0.278 N 
ATOM     14  C   UNL     1      33.177 -24.069 -12.929  0.00  0.00    +0.289 C 
ATOM     15  H   UNL     1      33.236 -25.406 -14.443  0.00  0.00    +0.155 HD
BRANCH  13  17
ATOM     16  N   UNL     1      28.866 -24.186 -15.720  0.00  0.00    -0.242 NA
ATOM     17  C   UNL     1      31.377 -24.549 -14.593  0.00  0.00    +0.054 C 
ATOM     18  C   UNL     1      30.355 -25.418 -14.268  0.00  0.00    +0.035 C 
ATOM     19  C   UNL     1      31.171 -23.502 -15.469  0.00  0.00    +0.035 C 
ATOM     20  C   UNL     1      29.121 -25.195 -14.857  0.00  0.00    +0.100 C 
ATOM     21  C   UNL     1      29.901 -23.364 -16.005  0.00  0.00    +0.100 C 
ENDBRANCH  13  17
ENDBRANCH  11  14
ENDBRANCH   4  11
BRANCH   1  22
ATOM     22  C   UNL     1      37.317 -22.529 -16.189  0.00  0.00    +0.122 C 
BRANCH  22  24
ATOM     23 CL   UNL     1      32.820 -21.720 -20.080  0.00  0.00    -0.082 Cl
ATOM     24  C   UNL     1      36.189 -22.327 -17.165  0.00  0.00    -0.002 C 
ATOM     25  C   UNL     1      36.421 -21.629 -18.343  0.00  0.00    -0.002 C 
ATOM     26  C   UNL     1      34.933 -22.840 -16.874  0.00  0.00    -0.002 C 
ATOM     27  C   UNL     1      35.376 -21.442 -19.247  0.00  0.00    +0.011 C 
ATOM     28  C   UNL     1      33.888 -22.651 -17.778  0.00  0.00    +0.011 C 
ATOM     29  C   UNL     1      34.109 -21.953 -18.965  0.00  0.00    +0.058 C 
ENDBRANCH  22  24
ENDBRANCH   1  22
TORSDOF 5
ENDMDL
MODEL 5
REMARK VINA RESULT:     -10.2     11.474     16.665
REMARK  Name = 2929
REMARK  5 active torsions:
REMARK  status: ('A' for Active; 'I' for Inactive)
REMARK    1  A    between atoms: N_1  and  C_22
REMARK    2  A    between atoms: C_4  and  C_11
REMARK    3  A    between atoms: C_11  and  C_14
REMARK    4  A    between atoms: N_13  and  C_17
REMARK    5  A    between atoms: C_22  and  C_24
REMARK                            x       y       z     vdW  Elec       q    Type
REMARK                         _______ _______ _______ _____ _____    ______ ____
ROOT
ATOM      1  N   UNL     1      31.920  -7.652 -23.764  0.00  0.00    -0.281 N 
ATOM      2  C   UNL     1      32.247  -7.337 -22.465  0.00  0.00    +0.052 C 
ATOM      3  C   UNL     1      32.343  -8.539 -21.762  0.00  0.00    +0.018 C 
ATOM      4  C   UNL     1      32.062  -9.586 -22.683  0.00  0.00    +0.060 C 
ATOM      5  C   UNL     1      31.806  -9.009 -23.906  0.00  0.00    +0.069 C 
ATOM      6  C   UNL     1      32.463  -6.091 -21.866  0.00  0.00    +0.015 C 
ATOM      7  C   UNL     1      32.670  -8.498 -20.392  0.00  0.00    +0.001 C 
ATOM      8  C   UNL     1      32.787  -6.075 -20.506  0.00  0.00    +0.001 C 
ATOM      9  C   UNL     1      32.890  -7.259 -19.779  0.00  0.00    +0.000 C 
ENDROOT
BRANCH   4  11
ATOM     10  O   UNL     1      31.182 -11.586 -21.754  0.00  0.00    -0.282 OA
ATOM     11  C   UNL     1      32.038 -11.000 -22.438  0.00  0.00    +0.250 C 
BRANCH  11  14
ATOM     12  O   UNL     1      34.066 -11.428 -23.510  0.00  0.00    -0.266 OA
ATOM     13  N   UNL     1      32.735 -13.259 -22.810  0.00  0.00    -0.278 N 
ATOM     14  C   UNL     1      33.088 -11.939 -22.992  0.00  0.00    +0.289 C 
ATOM     15  H   UNL     1      31.877 -13.428 -22.357  0.00  0.00    +0.155 HD
BRANCH  13  17
ATOM     16  N   UNL     1      34.929 -16.636 -23.968  0.00  0.00    -0.242 NA
ATOM     17  C   UNL     1      33.476 -14.398 -23.201  0.00  0.00    +0.054 C 
ATOM     18  C   UNL     1      34.322 -15.003 -22.293  0.00  0.00    +0.035 C 
ATOM     19  C   UNL     1      33.340 -14.888 -24.484  0.00  0.00    +0.035 C 
ATOM     20  C   UNL     1      35.025 -16.116 -22.724  0.00  0.00    +0.100 C 
ATOM     21  C   UNL     1      34.087 -16.007 -24.818  0.00  0.00    +0.100 C 
ENDBRANCH  13  17
ENDBRANCH  11  14
ENDBRANCH   4  11
BRANCH   1  22
ATOM     22  C   UNL     1      31.721  -6.701 -24.838  0.00  0.00    +0.122 C 
BRANCH  22  24
ATOM     23 CL   UNL     1      36.949  -4.539 -26.840  0.00  0.00    -0.082 Cl
ATOM     24  C   UNL     1      33.031  -6.159 -25.341  0.00  0.00    -0.002 C 
ATOM     25  C   UNL     1      34.015  -7.039 -25.771  0.00  0.00    -0.002 C 
ATOM     26  C   UNL     1      33.238  -4.787 -25.367  0.00  0.00    -0.002 C 
ATOM     27  C   UNL     1      35.230  -6.536 -26.237  0.00  0.00    +0.011 C 
ATOM     28  C   UNL     1      34.454  -4.284 -25.831  0.00  0.00    +0.011 C 
ATOM     29  C   UNL     1      35.449  -5.159 -26.267  0.00  0.00    +0.058 C 
ENDBRANCH  22  24
ENDBRANCH   1  22
TORSDOF 5
ENDMDL
MODEL 6
REMARK VINA RESULT:     -10.1     11.885     15.788
REMARK  Name = 2929
REMARK  5 active torsions:
REMARK  status: ('A' for Active; 'I' for Inactive)
REMARK    1  A    between atoms: N_1  and  C_22
REMARK    2  A    between atoms: C_4  and  C_11
REMARK    3  A    between atoms: C_11  and  C_14
REMARK    4  A    between atoms: N_13  and  C_17
REMARK    5  A    between atoms: C_22  and  C_24
REMARK                            x       y       z     vdW  Elec       q    Type
REMARK                         _______ _______ _______ _____ _____    ______ ____
ROOT
ATOM      1  N   UNL     1      32.250 -10.318 -22.232  0.00  0.00    -0.281 N 
ATOM      2  C   UNL     1      32.063  -9.724 -21.005  0.00  0.00    +0.052 C 
ATOM      3  C   UNL     1      32.763  -8.516 -21.021  0.00  0.00    +0.018 C 
ATOM      4  C   UNL     1      33.377  -8.406 -22.299  0.00  0.00    +0.060 C 
ATOM      5  C   UNL     1      33.043  -9.529 -23.022  0.00  0.00    +0.069 C 
ATOM      6  C   UNL     1      31.333 -10.161 -19.894  0.00  0.00    +0.015 C 
ATOM      7  C   UNL     1      32.736  -7.703 -19.871  0.00  0.00    +0.001 C 
ATOM      8  C   UNL     1      31.320  -9.337 -18.764  0.00  0.00    +0.001 C 
ATOM      9  C   UNL     1      32.009  -8.126 -18.752  0.00  0.00    +0.000 C 
ENDROOT
BRANCH   4  11
ATOM     10  O   UNL     1      35.443  -7.358 -22.818  0.00  0.00    -0.282 OA
ATOM     11  C   UNL     1      34.201  -7.342 -22.798  0.00  0.00    +0.250 C 
BRANCH  11  14
ATOM     12  O   UNL     1      34.135  -5.613 -24.364  0.00  0.00    -0.266 OA
ATOM     13  N   UNL     1      32.579  -5.596 -22.578  0.00  0.00    -0.278 N 
ATOM     14  C   UNL     1      33.623  -6.057 -23.351  0.00  0.00    +0.289 C 
ATOM     15  H   UNL     1      32.342  -6.136 -21.789  0.00  0.00    +0.155 HD
BRANCH  13  17
ATOM     16  N   UNL     1      30.296  -2.143 -23.229  0.00  0.00    -0.242 NA
ATOM     17  C   UNL     1      31.809  -4.430 -22.798  0.00  0.00    +0.054 C 
ATOM     18  C   UNL     1      31.348  -4.150 -24.069  0.00  0.00    +0.035 C 
ATOM     19  C   UNL     1      31.530  -3.591 -21.737  0.00  0.00    +0.035 C 
ATOM     20  C   UNL     1      30.598  -2.997 -24.232  0.00  0.00    +0.100 C 
ATOM     21  C   UNL     1      30.772  -2.463 -22.004  0.00  0.00    +0.100 C 
ENDBRANCH  13  17
ENDBRANCH  11  14
ENDBRANCH   4  11
BRANCH   1  22
ATOM     22  C   UNL     1      31.698 -11.591 -22.646  0.00  0.00    +0.122 C 
BRANCH  22  24
ATOM     23 CL   UNL     1      34.930 -16.177 -20.515  0.00  0.00    -0.082 Cl
ATOM     24  C   UNL     1      32.510 -12.741 -22.111  0.00  0.00    -0.002 C 
ATOM     25  C   UNL     1      33.612 -13.190 -22.825  0.00  0.00    -0.002 C 
ATOM     26  C   UNL     1      32.143 -13.336 -20.912  0.00  0.00    -0.002 C 
ATOM     27  C   UNL     1      34.363 -14.256 -22.329  0.00  0.00    +0.011 C 
ATOM     28  C   UNL     1      32.893 -14.403 -20.417  0.00  0.00    +0.011 C 
ATOM     29  C   UNL     1      34.004 -14.862 -21.125  0.00  0.00    +0.058 C 
ENDBRANCH  22  24
ENDBRANCH   1  22
TORSDOF 5
ENDMDL
MODEL 7
REMARK VINA RESULT:      -9.9     11.687     16.752
REMARK  Name = 2929
REMARK  5 active torsions:
REMARK  status: ('A' for Active; 'I' for Inactive)
REMARK    1  A    between atoms: N_1  and  C_22
REMARK    2  A    between atoms: C_4  and  C_11
REMARK    3  A    between atoms: C_11  and  C_14
REMARK    4  A    between atoms: N_13  and  C_17
REMARK    5  A    between atoms: C_22  and  C_24
REMARK                            x       y       z     vdW  Elec       q    Type
REMARK                         _______ _______ _______ _____ _____    ______ ____
ROOT
ATOM      1  N   UNL     1      32.567  -7.578 -21.392  0.00  0.00    -0.281 N 
ATOM      2  C   UNL     1      33.590  -7.950 -22.236  0.00  0.00    +0.052 C 
ATOM      3  C   UNL     1      33.364  -9.280 -22.595  0.00  0.00    +0.018 C 
ATOM      4  C   UNL     1      32.172  -9.693 -21.937  0.00  0.00    +0.060 C 
ATOM      5  C   UNL     1      31.705  -8.625 -21.205  0.00  0.00    +0.069 C 
ATOM      6  C   UNL     1      34.685  -7.215 -22.703  0.00  0.00    +0.015 C 
ATOM      7  C   UNL     1      34.276  -9.911 -23.463  0.00  0.00    +0.001 C 
ATOM      8  C   UNL     1      35.577  -7.862 -23.564  0.00  0.00    +0.001 C 
ATOM      9  C   UNL     1      35.377  -9.189 -23.940  0.00  0.00    +0.000 C 
ENDROOT
BRANCH   4  11
ATOM     10  O   UNL     1      30.307 -11.150 -22.144  0.00  0.00    -0.282 OA
ATOM     11  C   UNL     1      31.529 -10.975 -21.993  0.00  0.00    +0.250 C 
BRANCH  11  14
ATOM     12  O   UNL     1      32.487 -12.685 -20.725  0.00  0.00    -0.266 OA
ATOM     13  N   UNL     1      32.653 -12.784 -23.086  0.00  0.00    -0.278 N 
ATOM     14  C   UNL     1      32.293 -12.275 -21.857  0.00  0.00    +0.289 C 
ATOM     15  H   UNL     1      32.380 -12.262 -23.876  0.00  0.00    +0.155 HD
BRANCH  13  17
ATOM     16  N   UNL     1      34.782 -16.316 -23.826  0.00  0.00    -0.242 NA
ATOM     17  C   UNL     1      33.370 -13.976 -23.335  0.00  0.00    +0.054 C 
ATOM     18  C   UNL     1      33.209 -14.626 -24.543  0.00  0.00    +0.035 C 
ATOM     19  C   UNL     1      34.222 -14.470 -22.368  0.00  0.00    +0.035 C 
ATOM     20  C   UNL     1      33.936 -15.790 -24.739  0.00  0.00    +0.100 C 
ATOM     21  C   UNL     1      34.903 -15.641 -22.660  0.00  0.00    +0.100 C 
ENDBRANCH  13  17
ENDBRANCH  11  14
ENDBRANCH   4  11
BRANCH   1  22
ATOM     22  C   UNL     1      32.411  -6.275 -20.780  0.00  0.00    +0.122 C 
BRANCH  22  24
ATOM     23 CL   UNL     1      30.643  -2.175 -24.790  0.00  0.00    -0.082 Cl
ATOM     24  C   UNL     1      31.968  -5.247 -21.786  0.00  0.00    -0.002 C 
ATOM     25  C   UNL     1      31.984  -3.902 -21.441  0.00  0.00    -0.002 C 
ATOM     26  C   UNL     1      31.550  -5.657 -23.044  0.00  0.00    -0.002 C 
ATOM     27  C   UNL     1      31.573  -2.949 -22.374  0.00  0.00    +0.011 C 
ATOM     28  C   UNL     1      31.138  -4.704 -23.976  0.00  0.00    +0.011 C 
ATOM     29  C   UNL     1      31.150  -3.350 -23.641  0.00  0.00    +0.058 C 
ENDBRANCH  22  24
ENDBRANCH   1  22
TORSDOF 5
ENDMDL
MODEL 8
REMARK VINA RESULT:      -9.8     11.563     15.661
REMARK  Name = 2929
REMARK  5 active torsions:
REMARK  status: ('A' for Active; 'I' for Inactive)
REMARK    1  A    between atoms: N_1  and  C_22
REMARK    2  A    between atoms: C_4  and  C_11
REMARK    3  A    between atoms: C_11  and  C_14
REMARK    4  A    between atoms: N_13  and  C_17
REMARK    5  A    between atoms: C_22  and  C_24
REMARK                            x       y       z     vdW  Elec       q    Type
REMARK                         _______ _______ _______ _____ _____    ______ ____
ROOT
ATOM      1  N   UNL     1      32.043 -10.380 -22.346  0.00  0.00    -0.281 N 
ATOM      2  C   UNL     1      32.155  -9.481 -21.309  0.00  0.00    +0.052 C 
ATOM      3  C   UNL     1      32.930  -8.416 -21.771  0.00  0.00    +0.018 C 
ATOM      4  C   UNL     1      33.280  -8.706 -23.119  0.00  0.00    +0.060 C 
ATOM      5  C   UNL     1      32.720  -9.920 -23.444  0.00  0.00    +0.069 C 
ATOM      6  C   UNL     1      31.633  -9.531 -20.012  0.00  0.00    +0.015 C 
ATOM      7  C   UNL     1      33.201  -7.346 -20.894  0.00  0.00    +0.001 C 
ATOM      8  C   UNL     1      31.914  -8.458 -19.161  0.00  0.00    +0.001 C 
ATOM      9  C   UNL     1      32.685  -7.381 -19.594  0.00  0.00    +0.000 C 
ENDROOT
BRANCH   4  11
ATOM     10  O   UNL     1      35.308  -7.837 -23.999  0.00  0.00    -0.282 OA
ATOM     11  C   UNL     1      34.067  -7.914 -24.020  0.00  0.00    +0.250 C 
BRANCH  11  14
ATOM     12  O   UNL     1      32.263  -6.797 -24.992  0.00  0.00    -0.266 OA
ATOM     13  N   UNL     1      34.369  -6.723 -26.075  0.00  0.00    -0.278 N 
ATOM     14  C   UNL     1      33.448  -7.061 -25.106  0.00  0.00    +0.289 C 
ATOM     15  H   UNL     1      35.285  -7.062 -25.949  0.00  0.00    +0.155 HD
BRANCH  13  17
ATOM     16  N   UNL     1      33.686  -4.398 -29.494  0.00  0.00    -0.242 NA
ATOM     17  C   UNL     1      34.140  -5.938 -27.228  0.00  0.00    +0.054 C 
ATOM     18  C   UNL     1      34.220  -6.525 -28.476  0.00  0.00    +0.035 C 
ATOM     19  C   UNL     1      33.837  -4.598 -27.089  0.00  0.00    +0.035 C 
ATOM     20  C   UNL     1      33.985  -5.714 -29.574  0.00  0.00    +0.100 C 
ATOM     21  C   UNL     1      33.620  -3.873 -28.249  0.00  0.00    +0.100 C 
ENDBRANCH  13  17
ENDBRANCH  11  14
ENDBRANCH   4  11
BRANCH   1  22
ATOM     22  C   UNL     1      31.321 -11.633 -22.301  0.00  0.00    +0.122 C 
BRANCH  22  24
ATOM     23 CL   UNL     1      34.835 -16.122 -20.425  0.00  0.00    -0.082 Cl
ATOM     24  C   UNL     1      32.203 -12.759 -21.830  0.00  0.00    -0.002 C 
ATOM     25  C   UNL     1      33.171 -13.271 -22.683  0.00  0.00    -0.002 C 
ATOM     26  C   UNL     1      32.036 -13.268 -20.550  0.00  0.00    -0.002 C 
ATOM     27  C   UNL     1      33.987 -14.314 -22.247  0.00  0.00    +0.011 C 
ATOM     28  C   UNL     1      32.852 -14.312 -20.115  0.00  0.00    +0.011 C 
ATOM     29  C   UNL     1      33.828 -14.835 -20.963  0.00  0.00    +0.058 C 
ENDBRANCH  22  24
ENDBRANCH   1  22
TORSDOF 5
ENDMDL
MODEL 9
REMARK VINA RESULT:      -9.7     11.043     16.170
REMARK  Name = 2929
REMARK  5 active torsions:
REMARK  status: ('A' for Active; 'I' for Inactive)
REMARK    1  A    between atoms: N_1  and  C_22
REMARK    2  A    between atoms: C_4  and  C_11
REMARK    3  A    between atoms: C_11  and  C_14
REMARK    4  A    between atoms: N_13  and  C_17
REMARK    5  A    between atoms: C_22  and  C_24
REMARK                            x       y       z     vdW  Elec       q    Type
REMARK                         _______ _______ _______ _____ _____    ______ ____
ROOT
ATOM      1  N   UNL     1      33.871  -8.882 -23.057  0.00  0.00    -0.281 N 
ATOM      2  C   UNL     1      33.360  -8.300 -21.919  0.00  0.00    +0.052 C 
ATOM      3  C   UNL     1      32.436  -9.197 -21.378  0.00  0.00    +0.018 C 
ATOM      4  C   UNL     1      32.411 -10.335 -22.230  0.00  0.00    +0.060 C 
ATOM      5  C   UNL     1      33.304 -10.113 -23.254  0.00  0.00    +0.069 C 
ATOM      6  C   UNL     1      33.643  -7.061 -21.334  0.00  0.00    +0.015 C 
ATOM      7  C   UNL     1      31.759  -8.840 -20.196  0.00  0.00    +0.001 C 
ATOM      8  C   UNL     1      32.959  -6.729 -20.161  0.00  0.00    +0.001 C 
ATOM      9  C   UNL     1      32.032  -7.604 -19.598  0.00  0.00    +0.000 C 
ENDROOT
BRANCH   4  11
ATOM     10  O   UNL     1      30.378 -11.552 -22.051  0.00  0.00    -0.282 OA
ATOM     11  C   UNL     1      31.620 -11.526 -22.096  0.00  0.00    +0.250 C 
BRANCH  11  14
ATOM     12  O   UNL     1      32.086 -13.488 -20.920  0.00  0.00    -0.266 OA
ATOM     13  N   UNL     1      32.893 -13.265 -23.137  0.00  0.00    -0.278 N 
ATOM     14  C   UNL     1      32.238 -12.903 -21.979  0.00  0.00    +0.289 C 
ATOM     15  H   UNL     1      32.881 -12.611 -23.873  0.00  0.00    +0.155 HD
BRANCH  13  17
ATOM     16  N   UNL     1      34.929 -16.855 -23.862  0.00  0.00    -0.242 NA
ATOM     17  C   UNL     1      33.579 -14.477 -23.381  0.00  0.00    +0.054 C 
ATOM     18  C   UNL     1      33.375 -15.145 -24.572  0.00  0.00    +0.035 C 
ATOM     19  C   UNL     1      34.443 -14.972 -22.425  0.00  0.00    +0.035 C 
ATOM     20  C   UNL     1      34.072 -16.327 -24.764  0.00  0.00    +0.100 C 
ATOM     21  C   UNL     1      35.092 -16.163 -22.712  0.00  0.00    +0.100 C 
ENDBRANCH  13  17
ENDBRANCH  11  14
ENDBRANCH   4  11
BRANCH   1  22
ATOM     22  C   UNL     1      34.865  -8.294 -23.931  0.00  0.00    +0.122 C 
BRANCH  22  24
ATOM     23 CL   UNL     1      32.746  -3.392 -26.668  0.00  0.00    -0.082 Cl
ATOM     24  C   UNL     1      34.333  -7.064 -24.616  0.00  0.00    -0.002 C 
ATOM     25  C   UNL     1      32.975  -6.966 -24.888  0.00  0.00    -0.002 C 
ATOM     26  C   UNL     1      35.208  -6.046 -24.968  0.00  0.00    -0.002 C 
ATOM     27  C   UNL     1      32.483  -5.826 -25.524  0.00  0.00    +0.011 C 
ATOM     28  C   UNL     1      34.716  -4.907 -25.605  0.00  0.00    +0.011 C 
ATOM     29  C   UNL     1      33.353  -4.797 -25.882  0.00  0.00    +0.058 C 
ENDBRANCH  22  24
ENDBRANCH   1  22
TORSDOF 5
ENDMDL
