MODEL 1
REMARK VINA RESULT:     -12.1      0.000      0.000
REMARK  Name = 10173277
REMARK  7 active torsions:
REMARK  status: ('A' for Active; 'I' for Inactive)
REMARK    1  A    between atoms: C_12  and  O_24
REMARK    2  A    between atoms: N_13  and  N_15
REMARK    3  A    between atoms: N_15  and  C_16
REMARK    4  A    between atoms: C_16  and  C_17
REMARK    5  A    between atoms: O_24  and  C_25
REMARK    6  A    between atoms: C_25  and  C_26
REMARK    7  A    between atoms: C_26  and  C_28
REMARK                            x       y       z     vdW  Elec       q    Type
REMARK                         _______ _______ _______ _____ _____    ______ ____
ROOT
ATOM      1  O   UNL     1      28.528 -24.543 -14.974  0.00  0.00    -0.350 OA
ATOM      2  N   UNL     1      31.300 -24.211 -14.652  0.00  0.00    -0.281 N 
ATOM      3  N   UNL     1      33.117 -24.133 -13.091  0.00  0.00    -0.300 NA
ATOM      4  N   UNL     1      35.330 -23.547 -13.844  0.00  0.00    -0.299 NA
ATOM      5  C   UNL     1      30.568 -25.182 -13.827  0.00  0.00    +0.125 C 
ATOM      6  C   UNL     1      30.485 -23.129 -15.214  0.00  0.00    +0.125 C 
ATOM      7  C   UNL     1      29.326 -25.657 -14.573  0.00  0.00    +0.164 C 
ATOM      8  C   UNL     1      29.247 -23.713 -15.885  0.00  0.00    +0.164 C 
ATOM      9  C   UNL     1      32.653 -23.990 -14.368  0.00  0.00    +0.184 C 
ATOM     10  C   UNL     1      33.505 -23.626 -15.411  0.00  0.00    +0.153 C 
ATOM     11  C   UNL     1      34.832 -23.418 -15.091  0.00  0.00    +0.195 C 
ATOM     12  C   UNL     1      34.431 -23.901 -12.905  0.00  0.00    +0.312 C 
ATOM     13  N   UNL     1      35.706 -23.047 -16.141  0.00  0.00    -0.238 N 
ATOM     14  H   UNL     1      36.659 -22.890 -15.952  0.00  0.00    +0.170 HD
ENDROOT
BRANCH  13  15
ATOM     15  N   UNL     1      35.241 -22.911 -17.390  0.00  0.00    -0.127 NA
BRANCH  15  16
ATOM     16  C   UNL     1      36.008 -22.196 -18.146  0.00  0.00    +0.138 C 
BRANCH  16  17
ATOM     17  C   UNL     1      35.469 -21.335 -19.213  0.00  0.00    -0.003 C 
ATOM     18  C   UNL     1      35.817 -19.699 -20.934  0.00  0.00    -0.022 C 
ATOM     19  C   UNL     1      36.329 -20.512 -19.923  0.00  0.00    -0.007 C 
ATOM     20  C   UNL     1      34.110 -21.366 -19.487  0.00  0.00    -0.003 C 
ATOM     21  C   UNL     1      34.452 -19.718 -21.220  0.00  0.00    -0.004 C 
ATOM     22  C   UNL     1      33.599 -20.552 -20.498  0.00  0.00    -0.001 C 
ATOM     23  C   UNL     1      36.729 -18.808 -21.707  0.00  0.00    +0.031 C 
ENDBRANCH  16  17
ENDBRANCH  15  16
ENDBRANCH  13  15
BRANCH  12  24
ATOM     24  O   UNL     1      34.904 -24.043 -11.622  0.00  0.00    -0.399 OA
BRANCH  24  25
ATOM     25  C   UNL     1      36.254 -23.663 -11.397  0.00  0.00    +0.229 C 
BRANCH  25  26
ATOM     26  C   UNL     1      37.090 -24.897 -11.077  0.00  0.00    +0.094 C 
BRANCH  26  28
ATOM     27  N   UNL     1      38.924 -24.818 -12.657  0.00  0.00    -0.248 NA
ATOM     28  C   UNL     1      37.792 -25.446 -12.296  0.00  0.00    +0.063 C 
ATOM     29  C   UNL     1      37.242 -26.530 -12.945  0.00  0.00    +0.015 C 
ATOM     30  C   UNL     1      37.912 -27.012 -14.062  0.00  0.00    +0.003 C 
ATOM     31  C   UNL     1      39.548 -25.314 -13.748  0.00  0.00    +0.098 C 
ATOM     32  C   UNL     1      39.089 -26.398 -14.479  0.00  0.00    +0.021 C 
ENDBRANCH  26  28
ENDBRANCH  25  26
ENDBRANCH  24  25
ENDBRANCH  12  24
TORSDOF 7
ENDMDL
MODEL 2
REMARK VINA RESULT:     -11.4      1.656      6.394
REMARK  Name = 10173277
REMARK  7 active torsions:
REMARK  status: ('A' for Active; 'I' for Inactive)
REMARK    1  A    between atoms: C_12  and  O_24
REMARK    2  A    between atoms: N_13  and  N_15
REMARK    3  A    between atoms: N_15  and  C_16
REMARK    4  A    between atoms: C_16  and  C_17
REMARK    5  A    between atoms: O_24  and  C_25
REMARK    6  A    between atoms: C_25  and  C_26
REMARK    7  A    between atoms: C_26  and  C_28
REMARK                            x       y       z     vdW  Elec       q    Type
REMARK                         _______ _______ _______ _____ _____    ______ ____
ROOT
ATOM      1  O   UNL     1      39.323 -26.177 -12.929  0.00  0.00    -0.350 OA
ATOM      2  N   UNL     1      36.828 -25.157 -13.723  0.00  0.00    -0.281 N 
ATOM      3  N   UNL     1      34.489 -25.029 -13.218  0.00  0.00    -0.300 NA
ATOM      4  N   UNL     1      32.977 -23.966 -14.764  0.00  0.00    -0.299 NA
ATOM      5  C   UNL     1      37.183 -25.225 -12.299  0.00  0.00    +0.125 C 
ATOM      6  C   UNL     1      37.561 -26.081 -14.595  0.00  0.00    +0.125 C 
ATOM      7  C   UNL     1      38.698 -25.161 -12.144  0.00  0.00    +0.164 C 
ATOM      8  C   UNL     1      39.057 -25.974 -14.315  0.00  0.00    +0.164 C 
ATOM      9  C   UNL     1      35.529 -24.761 -14.063  0.00  0.00    +0.184 C 
ATOM     10  C   UNL     1      35.326 -24.093 -15.271  0.00  0.00    +0.153 C 
ATOM     11  C   UNL     1      34.031 -23.720 -15.569  0.00  0.00    +0.195 C 
ATOM     12  C   UNL     1      33.272 -24.615 -13.621  0.00  0.00    +0.312 C 
ATOM     13  N   UNL     1      33.813 -23.042 -16.793  0.00  0.00    -0.238 N 
ATOM     14  H   UNL     1      32.903 -22.759 -17.041  0.00  0.00    +0.170 HD
ENDROOT
BRANCH  13  15
ATOM     15  N   UNL     1      34.840 -22.783 -17.613  0.00  0.00    -0.127 NA
BRANCH  15  16
ATOM     16  C   UNL     1      34.500 -22.740 -18.860  0.00  0.00    +0.138 C 
BRANCH  16  17
ATOM     17  C   UNL     1      34.617 -21.507 -19.658  0.00  0.00    -0.003 C 
ATOM     18  C   UNL     1      35.983 -19.810 -20.664  0.00  0.00    -0.022 C 
ATOM     19  C   UNL     1      35.873 -20.977 -19.908  0.00  0.00    -0.007 C 
ATOM     20  C   UNL     1      33.469 -20.900 -20.141  0.00  0.00    -0.003 C 
ATOM     21  C   UNL     1      34.837 -19.188 -21.157  0.00  0.00    -0.004 C 
ATOM     22  C   UNL     1      33.579 -19.733 -20.896  0.00  0.00    -0.001 C 
ATOM     23  C   UNL     1      37.327 -19.227 -20.944  0.00  0.00    +0.031 C 
ENDBRANCH  16  17
ENDBRANCH  15  16
ENDBRANCH  13  15
BRANCH  12  24
ATOM     24  O   UNL     1      32.221 -24.882 -12.776  0.00  0.00    -0.399 OA
BRANCH  24  25
ATOM     25  C   UNL     1      30.991 -24.235 -13.067  0.00  0.00    +0.229 C 
BRANCH  25  26
ATOM     26  C   UNL     1      30.088 -25.174 -13.858  0.00  0.00    +0.094 C 
BRANCH  26  28
ATOM     27  N   UNL     1      28.721 -25.218 -15.857  0.00  0.00    -0.248 NA
ATOM     28  C   UNL     1      29.286 -24.448 -14.911  0.00  0.00    +0.063 C 
ATOM     29  C   UNL     1      29.187 -23.076 -14.838  0.00  0.00    +0.015 C 
ATOM     30  C   UNL     1      28.441 -22.437 -15.822  0.00  0.00    +0.003 C 
ATOM     31  C   UNL     1      28.005 -24.562 -16.797  0.00  0.00    +0.098 C 
ATOM     32  C   UNL     1      27.836 -23.188 -16.824  0.00  0.00    +0.021 C 
ENDBRANCH  26  28
ENDBRANCH  25  26
ENDBRANCH  24  25
ENDBRANCH  12  24
TORSDOF 7
ENDMDL
MODEL 3
REMARK VINA RESULT:     -11.4      2.000      6.952
REMARK  Name = 10173277
REMARK  7 active torsions:
REMARK  status: ('A' for Active; 'I' for Inactive)
REMARK    1  A    between atoms: C_12  and  O_24
REMARK    2  A    between atoms: N_13  and  N_15
REMARK    3  A    between atoms: N_15  and  C_16
REMARK    4  A    between atoms: C_16  and  C_17
REMARK    5  A    between atoms: O_24  and  C_25
REMARK    6  A    between atoms: C_25  and  C_26
REMARK    7  A    between atoms: C_26  and  C_28
REMARK                            x       y       z     vdW  Elec       q    Type
REMARK                         _______ _______ _______ _____ _____    ______ ____
ROOT
ATOM      1  O   UNL     1      37.018 -25.258 -12.935  0.00  0.00    -0.350 OA
ATOM      2  N   UNL     1      34.768 -24.278 -14.305  0.00  0.00    -0.281 N 
ATOM      3  N   UNL     1      32.387 -24.015 -14.268  0.00  0.00    -0.300 NA
ATOM      4  N   UNL     1      31.242 -23.121 -16.190  0.00  0.00    -0.299 NA
ATOM      5  C   UNL     1      34.854 -24.167 -12.842  0.00  0.00    +0.125 C 
ATOM      6  C   UNL     1      35.598 -25.332 -14.901  0.00  0.00    +0.125 C 
ATOM      7  C   UNL     1      36.316 -24.129 -12.414  0.00  0.00    +0.164 C 
ATOM      8  C   UNL     1      37.020 -25.233 -14.362  0.00  0.00    +0.164 C 
ATOM      9  C   UNL     1      33.577 -23.893 -14.929  0.00  0.00    +0.184 C 
ATOM     10  C   UNL     1      33.634 -23.385 -16.227  0.00  0.00    +0.153 C 
ATOM     11  C   UNL     1      32.437 -23.016 -16.807  0.00  0.00    +0.195 C 
ATOM     12  C   UNL     1      31.289 -23.622 -14.941  0.00  0.00    +0.312 C 
ATOM     13  N   UNL     1      32.482 -22.500 -18.125  0.00  0.00    -0.238 N 
ATOM     14  H   UNL     1      31.650 -22.225 -18.573  0.00  0.00    +0.170 HD
ENDROOT
BRANCH  13  15
ATOM     15  N   UNL     1      33.654 -22.383 -18.764  0.00  0.00    -0.127 NA
BRANCH  15  16
ATOM     16  C   UNL     1      33.610 -21.570 -19.769  0.00  0.00    +0.138 C 
BRANCH  16  17
ATOM     17  C   UNL     1      34.765 -20.737 -20.148  0.00  0.00    -0.003 C 
ATOM     18  C   UNL     1      35.688 -18.934 -21.434  0.00  0.00    -0.022 C 
ATOM     19  C   UNL     1      34.595 -19.722 -21.076  0.00  0.00    -0.007 C 
ATOM     20  C   UNL     1      35.999 -20.986 -19.570  0.00  0.00    -0.003 C 
ATOM     21  C   UNL     1      36.937 -19.172 -20.861  0.00  0.00    -0.004 C 
ATOM     22  C   UNL     1      37.093 -20.198 -19.929  0.00  0.00    -0.001 C 
ATOM     23  C   UNL     1      35.522 -17.836 -22.431  0.00  0.00    +0.031 C 
ENDBRANCH  16  17
ENDBRANCH  15  16
ENDBRANCH  13  15
BRANCH  12  24
ATOM     24  O   UNL     1      30.088 -23.743 -14.281  0.00  0.00    -0.399 OA
BRANCH  24  25
ATOM     25  C   UNL     1      29.272 -24.848 -14.643  0.00  0.00    +0.229 C 
BRANCH  25  26
ATOM     26  C   UNL     1      28.890 -24.746 -16.115  0.00  0.00    +0.094 C 
BRANCH  26  28
ATOM     27  N   UNL     1      27.550 -23.444 -17.655  0.00  0.00    -0.248 NA
ATOM     28  C   UNL     1      27.854 -23.678 -16.367  0.00  0.00    +0.063 C 
ATOM     29  C   UNL     1      27.299 -23.026 -15.288  0.00  0.00    +0.015 C 
ATOM     30  C   UNL     1      26.348 -22.048 -15.553  0.00  0.00    +0.003 C 
ATOM     31  C   UNL     1      26.622 -22.486 -17.875  0.00  0.00    +0.098 C 
ATOM     32  C   UNL     1      25.997 -21.766 -16.869  0.00  0.00    +0.021 C 
ENDBRANCH  26  28
ENDBRANCH  25  26
ENDBRANCH  24  25
ENDBRANCH  12  24
TORSDOF 7
ENDMDL
MODEL 4
REMARK VINA RESULT:     -11.1      2.092      7.690
REMARK  Name = 10173277
REMARK  7 active torsions:
REMARK  status: ('A' for Active; 'I' for Inactive)
REMARK    1  A    between atoms: C_12  and  O_24
REMARK    2  A    between atoms: N_13  and  N_15
REMARK    3  A    between atoms: N_15  and  C_16
REMARK    4  A    between atoms: C_16  and  C_17
REMARK    5  A    between atoms: O_24  and  C_25
REMARK    6  A    between atoms: C_25  and  C_26
REMARK    7  A    between atoms: C_26  and  C_28
REMARK                            x       y       z     vdW  Elec       q    Type
REMARK                         _______ _______ _______ _____ _____    ______ ____
ROOT
ATOM      1  O   UNL     1      28.214 -24.594 -15.012  0.00  0.00    -0.350 OA
ATOM      2  N   UNL     1      30.796 -23.782 -15.771  0.00  0.00    -0.281 N 
ATOM      3  N   UNL     1      32.218 -23.156 -17.594  0.00  0.00    -0.300 NA
ATOM      4  N   UNL     1      34.567 -22.776 -17.217  0.00  0.00    -0.299 NA
ATOM      5  C   UNL     1      29.613 -23.212 -16.432  0.00  0.00    +0.125 C 
ATOM      6  C   UNL     1      30.587 -25.088 -15.136  0.00  0.00    +0.125 C 
ATOM      7  C   UNL     1      28.421 -23.263 -15.484  0.00  0.00    +0.164 C 
ATOM      8  C   UNL     1      29.341 -25.040 -14.259  0.00  0.00    +0.164 C 
ATOM      9  C   UNL     1      32.059 -23.443 -16.269  0.00  0.00    +0.184 C 
ATOM     10  C   UNL     1      33.138 -23.405 -15.385  0.00  0.00    +0.153 C 
ATOM     11  C   UNL     1      34.367 -23.067 -15.915  0.00  0.00    +0.195 C 
ATOM     12  C   UNL     1      33.466 -22.840 -17.990  0.00  0.00    +0.312 C 
ATOM     13  N   UNL     1      35.471 -23.025 -15.028  0.00  0.00    -0.238 N 
ATOM     14  H   UNL     1      36.364 -22.788 -15.368  0.00  0.00    +0.170 HD
ENDROOT
BRANCH  13  15
ATOM     15  N   UNL     1      35.304 -23.309 -13.729  0.00  0.00    -0.127 NA
BRANCH  15  16
ATOM     16  C   UNL     1      36.380 -23.744 -13.158  0.00  0.00    +0.138 C 
BRANCH  16  17
ATOM     17  C   UNL     1      37.068 -24.962 -13.619  0.00  0.00    -0.003 C 
ATOM     18  C   UNL     1      39.105 -26.139 -14.095  0.00  0.00    -0.022 C 
ATOM     19  C   UNL     1      38.453 -24.985 -13.660  0.00  0.00    -0.007 C 
ATOM     20  C   UNL     1      36.317 -26.061 -14.003  0.00  0.00    -0.003 C 
ATOM     21  C   UNL     1      38.362 -27.253 -14.485  0.00  0.00    -0.004 C 
ATOM     22  C   UNL     1      36.968 -27.215 -14.438  0.00  0.00    -0.001 C 
ATOM     23  C   UNL     1      40.595 -26.181 -14.144  0.00  0.00    +0.031 C 
ENDBRANCH  16  17
ENDBRANCH  15  16
ENDBRANCH  13  15
BRANCH  12  24
ATOM     24  O   UNL     1      33.633 -22.550 -19.323  0.00  0.00    -0.399 OA
BRANCH  24  25
ATOM     25  C   UNL     1      33.701 -21.174 -19.672  0.00  0.00    +0.229 C 
BRANCH  25  26
ATOM     26  C   UNL     1      35.089 -20.846 -20.208  0.00  0.00    +0.094 C 
BRANCH  26  28
ATOM     27  N   UNL     1      35.459 -18.489 -20.625  0.00  0.00    -0.248 NA
ATOM     28  C   UNL     1      35.077 -19.666 -21.149  0.00  0.00    +0.063 C 
ATOM     29  C   UNL     1      34.685 -19.866 -22.455  0.00  0.00    +0.015 C 
ATOM     30  C   UNL     1      34.685 -18.760 -23.297  0.00  0.00    +0.003 C 
ATOM     31  C   UNL     1      35.446 -17.436 -21.473  0.00  0.00    +0.098 C 
ATOM     32  C   UNL     1      35.071 -17.518 -22.804  0.00  0.00    +0.021 C 
ENDBRANCH  26  28
ENDBRANCH  25  26
ENDBRANCH  24  25
ENDBRANCH  12  24
TORSDOF 7
ENDMDL
MODEL 5
REMARK VINA RESULT:     -10.9      2.304      8.123
REMARK  Name = 10173277
REMARK  7 active torsions:
REMARK  status: ('A' for Active; 'I' for Inactive)
REMARK    1  A    between atoms: C_12  and  O_24
REMARK    2  A    between atoms: N_13  and  N_15
REMARK    3  A    between atoms: N_15  and  C_16
REMARK    4  A    between atoms: C_16  and  C_17
REMARK    5  A    between atoms: O_24  and  C_25
REMARK    6  A    between atoms: C_25  and  C_26
REMARK    7  A    between atoms: C_26  and  C_28
REMARK                            x       y       z     vdW  Elec       q    Type
REMARK                         _______ _______ _______ _____ _____    ______ ____
ROOT
ATOM      1  O   UNL     1      30.718 -24.783 -13.564  0.00  0.00    -0.350 OA
ATOM      2  N   UNL     1      32.673 -23.706 -15.273  0.00  0.00    -0.281 N 
ATOM      3  N   UNL     1      33.171 -22.977 -17.500  0.00  0.00    -0.300 NA
ATOM      4  N   UNL     1      35.416 -22.321 -18.081  0.00  0.00    -0.299 NA
ATOM      5  C   UNL     1      31.268 -23.294 -15.399  0.00  0.00    +0.125 C 
ATOM      6  C   UNL     1      32.887 -25.007 -14.630  0.00  0.00    +0.125 C 
ATOM      7  C   UNL     1      30.564 -23.452 -14.056  0.00  0.00    +0.164 C 
ATOM      8  C   UNL     1      32.095 -25.074 -13.328  0.00  0.00    +0.164 C 
ATOM      9  C   UNL     1      33.586 -23.240 -16.225  0.00  0.00    +0.184 C 
ATOM     10  C   UNL     1      34.915 -23.053 -15.844  0.00  0.00    +0.153 C 
ATOM     11  C   UNL     1      35.784 -22.592 -16.812  0.00  0.00    +0.195 C 
ATOM     12  C   UNL     1      34.114 -22.533 -18.354  0.00  0.00    +0.312 C 
ATOM     13  N   UNL     1      37.136 -22.398 -16.437  0.00  0.00    -0.238 N 
ATOM     14  H   UNL     1      37.786 -22.071 -17.099  0.00  0.00    +0.170 HD
ENDROOT
BRANCH  13  15
ATOM     15  N   UNL     1      37.532 -22.659 -15.183  0.00  0.00    -0.127 NA
BRANCH  15  16
ATOM     16  C   UNL     1      38.001 -23.855 -15.034  0.00  0.00    +0.138 C 
BRANCH  16  17
ATOM     17  C   UNL     1      37.626 -24.702 -13.888  0.00  0.00    -0.003 C 
ATOM     18  C   UNL     1      36.730 -24.915 -11.672  0.00  0.00    -0.022 C 
ATOM     19  C   UNL     1      37.086 -24.113 -12.756  0.00  0.00    -0.007 C 
ATOM     20  C   UNL     1      37.821 -26.072 -13.965  0.00  0.00    -0.003 C 
ATOM     21  C   UNL     1      36.920 -26.296 -11.735  0.00  0.00    -0.004 C 
ATOM     22  C   UNL     1      37.465 -26.874 -12.881  0.00  0.00    -0.001 C 
ATOM     23  C   UNL     1      36.146 -24.297 -10.447  0.00  0.00    +0.031 C 
ENDBRANCH  16  17
ENDBRANCH  15  16
ENDBRANCH  13  15
BRANCH  12  24
ATOM     24  O   UNL     1      33.703 -22.267 -19.638  0.00  0.00    -0.399 OA
BRANCH  24  25
ATOM     25  C   UNL     1      33.682 -20.902 -20.030  0.00  0.00    +0.229 C 
BRANCH  25  26
ATOM     26  C   UNL     1      35.060 -20.488 -20.532  0.00  0.00    +0.094 C 
BRANCH  26  28
ATOM     27  N   UNL     1      35.334 -18.119 -20.958  0.00  0.00    -0.248 NA
ATOM     28  C   UNL     1      34.997 -19.312 -21.477  0.00  0.00    +0.063 C 
ATOM     29  C   UNL     1      34.608 -19.531 -22.781  0.00  0.00    +0.015 C 
ATOM     30  C   UNL     1      34.561 -18.428 -23.626  0.00  0.00    +0.003 C 
ATOM     31  C   UNL     1      35.276 -17.071 -21.809  0.00  0.00    +0.098 C 
ATOM     32  C   UNL     1      34.899 -17.171 -23.138  0.00  0.00    +0.021 C 
ENDBRANCH  26  28
ENDBRANCH  25  26
ENDBRANCH  24  25
ENDBRANCH  12  24
TORSDOF 7
ENDMDL
MODEL 6
REMARK VINA RESULT:     -10.8      1.422      2.011
REMARK  Name = 10173277
REMARK  7 active torsions:
REMARK  status: ('A' for Active; 'I' for Inactive)
REMARK    1  A    between atoms: C_12  and  O_24
REMARK    2  A    between atoms: N_13  and  N_15
REMARK    3  A    between atoms: N_15  and  C_16
REMARK    4  A    between atoms: C_16  and  C_17
REMARK    5  A    between atoms: O_24  and  C_25
REMARK    6  A    between atoms: C_25  and  C_26
REMARK    7  A    between atoms: C_26  and  C_28
REMARK                            x       y       z     vdW  Elec       q    Type
REMARK                         _______ _______ _______ _____ _____    ______ ____
ROOT
ATOM      1  O   UNL     1      27.819 -24.010 -15.088  0.00  0.00    -0.350 OA
ATOM      2  N   UNL     1      30.562 -23.879 -15.688  0.00  0.00    -0.281 N 
ATOM      3  N   UNL     1      32.788 -24.104 -14.832  0.00  0.00    -0.300 NA
ATOM      4  N   UNL     1      34.677 -23.553 -16.224  0.00  0.00    -0.299 NA
ATOM      5  C   UNL     1      30.051 -24.905 -14.768  0.00  0.00    +0.125 C 
ATOM      6  C   UNL     1      29.715 -22.689 -15.829  0.00  0.00    +0.125 C 
ATOM      7  C   UNL     1      28.594 -25.209 -15.096  0.00  0.00    +0.164 C 
ATOM      8  C   UNL     1      28.275 -23.112 -16.099  0.00  0.00    +0.164 C 
ATOM      9  C   UNL     1      31.947 -23.773 -15.856  0.00  0.00    +0.184 C 
ATOM     10  C   UNL     1      32.440 -23.327 -17.083  0.00  0.00    +0.153 C 
ATOM     11  C   UNL     1      33.812 -23.236 -17.209  0.00  0.00    +0.195 C 
ATOM     12  C   UNL     1      34.107 -23.973 -15.078  0.00  0.00    +0.312 C 
ATOM     13  N   UNL     1      34.325 -22.784 -18.449  0.00  0.00    -0.238 N 
ATOM     14  H   UNL     1      35.298 -22.706 -18.578  0.00  0.00    +0.170 HD
ENDROOT
BRANCH  13  15
ATOM     15  N   UNL     1      33.490 -22.463 -19.448  0.00  0.00    -0.127 NA
BRANCH  15  16
ATOM     16  C   UNL     1      33.453 -21.194 -19.694  0.00  0.00    +0.138 C 
BRANCH  16  17
ATOM     17  C   UNL     1      34.625 -20.466 -20.211  0.00  0.00    -0.003 C 
ATOM     18  C   UNL     1      35.548 -18.743 -21.603  0.00  0.00    -0.022 C 
ATOM     19  C   UNL     1      34.438 -19.432 -21.115  0.00  0.00    -0.007 C 
ATOM     20  C   UNL     1      35.892 -20.829 -19.783  0.00  0.00    -0.003 C 
ATOM     21  C   UNL     1      36.829 -19.097 -21.182  0.00  0.00    -0.004 C 
ATOM     22  C   UNL     1      37.002 -20.140 -20.271  0.00  0.00    -0.001 C 
ATOM     23  C   UNL     1      35.364 -17.627 -22.576  0.00  0.00    +0.031 C 
ENDBRANCH  16  17
ENDBRANCH  15  16
ENDBRANCH  13  15
BRANCH  12  24
ATOM     24  O   UNL     1      34.959 -24.304 -14.052  0.00  0.00    -0.399 OA
BRANCH  24  25
ATOM     25  C   UNL     1      35.865 -23.296 -13.627  0.00  0.00    +0.229 C 
BRANCH  25  26
ATOM     26  C   UNL     1      36.879 -23.889 -12.656  0.00  0.00    +0.094 C 
BRANCH  26  28
ATOM     27  N   UNL     1      38.393 -24.039 -14.541  0.00  0.00    -0.248 NA
ATOM     28  C   UNL     1      38.020 -24.577 -13.367  0.00  0.00    +0.063 C 
ATOM     29  C   UNL     1      38.592 -25.685 -12.781  0.00  0.00    +0.015 C 
ATOM     30  C   UNL     1      39.640 -26.295 -13.460  0.00  0.00    +0.003 C 
ATOM     31  C   UNL     1      39.415 -24.659 -15.172  0.00  0.00    +0.098 C 
ATOM     32  C   UNL     1      40.066 -25.779 -14.679  0.00  0.00    +0.021 C 
ENDBRANCH  26  28
ENDBRANCH  25  26
ENDBRANCH  24  25
ENDBRANCH  12  24
TORSDOF 7
ENDMDL
MODEL 7
REMARK VINA RESULT:     -10.2      1.546      2.469
REMARK  Name = 10173277
REMARK  7 active torsions:
REMARK  status: ('A' for Active; 'I' for Inactive)
REMARK    1  A    between atoms: C_12  and  O_24
REMARK    2  A    between atoms: N_13  and  N_15
REMARK    3  A    between atoms: N_15  and  C_16
REMARK    4  A    between atoms: C_16  and  C_17
REMARK    5  A    between atoms: O_24  and  C_25
REMARK    6  A    between atoms: C_25  and  C_26
REMARK    7  A    between atoms: C_26  and  C_28
REMARK                            x       y       z     vdW  Elec       q    Type
REMARK                         _______ _______ _______ _____ _____    ______ ____
ROOT
ATOM      1  O   UNL     1      29.732 -23.543 -14.532  0.00  0.00    -0.350 OA
ATOM      2  N   UNL     1      32.474 -24.000 -14.944  0.00  0.00    -0.281 N 
ATOM      3  N   UNL     1      34.354 -25.384 -14.405  0.00  0.00    -0.300 NA
ATOM      4  N   UNL     1      36.553 -24.794 -15.194  0.00  0.00    -0.299 NA
ATOM      5  C   UNL     1      31.543 -25.131 -14.822  0.00  0.00    +0.125 C 
ATOM      6  C   UNL     1      32.015 -22.745 -14.339  0.00  0.00    +0.125 C 
ATOM      7  C   UNL     1      30.149 -24.698 -15.261  0.00  0.00    +0.164 C 
ATOM      8  C   UNL     1      30.595 -22.440 -14.802  0.00  0.00    +0.164 C 
ATOM      9  C   UNL     1      33.844 -24.277 -15.021  0.00  0.00    +0.184 C 
ATOM     10  C   UNL     1      34.664 -23.404 -15.736  0.00  0.00    +0.153 C 
ATOM     11  C   UNL     1      36.009 -23.712 -15.788  0.00  0.00    +0.195 C 
ATOM     12  C   UNL     1      35.682 -25.576 -14.528  0.00  0.00    +0.312 C 
ATOM     13  N   UNL     1      36.852 -22.834 -16.511  0.00  0.00    -0.238 N 
ATOM     14  H   UNL     1      37.817 -23.019 -16.571  0.00  0.00    +0.170 HD
ENDROOT
BRANCH  13  15
ATOM     15  N   UNL     1      36.341 -21.751 -17.112  0.00  0.00    -0.127 NA
BRANCH  15  16
ATOM     16  C   UNL     1      36.414 -21.800 -18.403  0.00  0.00    +0.138 C 
BRANCH  16  17
ATOM     17  C   UNL     1      35.333 -21.290 -19.264  0.00  0.00    -0.003 C 
ATOM     18  C   UNL     1      34.624 -19.981 -21.146  0.00  0.00    -0.022 C 
ATOM     19  C   UNL     1      35.647 -20.462 -20.330  0.00  0.00    -0.007 C 
ATOM     20  C   UNL     1      34.022 -21.649 -18.991  0.00  0.00    -0.003 C 
ATOM     21  C   UNL     1      33.300 -20.332 -20.884  0.00  0.00    -0.004 C 
ATOM     22  C   UNL     1      32.999 -21.167 -19.807  0.00  0.00    -0.001 C 
ATOM     23  C   UNL     1      34.945 -19.089 -22.297  0.00  0.00    +0.031 C 
ENDBRANCH  16  17
ENDBRANCH  15  16
ENDBRANCH  13  15
BRANCH  12  24
ATOM     24  O   UNL     1      36.201 -26.688 -13.909  0.00  0.00    -0.399 OA
BRANCH  24  25
ATOM     25  C   UNL     1      37.616 -26.750 -13.796  0.00  0.00    +0.229 C 
BRANCH  25  26
ATOM     26  C   UNL     1      38.022 -26.626 -12.332  0.00  0.00    +0.094 C 
BRANCH  26  28
ATOM     27  N   UNL     1      36.380 -25.573 -10.896  0.00  0.00    -0.248 NA
ATOM     28  C   UNL     1      37.455 -25.387 -11.682  0.00  0.00    +0.063 C 
ATOM     29  C   UNL     1      38.059 -24.174 -11.929  0.00  0.00    +0.015 C 
ATOM     30  C   UNL     1      37.513 -23.053 -11.316  0.00  0.00    +0.003 C 
ATOM     31  C   UNL     1      35.876 -24.460 -10.317  0.00  0.00    +0.098 C 
ATOM     32  C   UNL     1      36.400 -23.190 -10.492  0.00  0.00    +0.021 C 
ENDBRANCH  26  28
ENDBRANCH  25  26
ENDBRANCH  24  25
ENDBRANCH  12  24
TORSDOF 7
ENDMDL
MODEL 8
REMARK VINA RESULT:      -9.8      2.276      6.121
REMARK  Name = 10173277
REMARK  7 active torsions:
REMARK  status: ('A' for Active; 'I' for Inactive)
REMARK    1  A    between atoms: C_12  and  O_24
REMARK    2  A    between atoms: N_13  and  N_15
REMARK    3  A    between atoms: N_15  and  C_16
REMARK    4  A    between atoms: C_16  and  C_17
REMARK    5  A    between atoms: O_24  and  C_25
REMARK    6  A    between atoms: C_25  and  C_26
REMARK    7  A    between atoms: C_26  and  C_28
REMARK                            x       y       z     vdW  Elec       q    Type
REMARK                         _______ _______ _______ _____ _____    ______ ____
ROOT
ATOM      1  O   UNL     1      34.939 -21.224 -20.202  0.00  0.00    -0.350 OA
ATOM      2  N   UNL     1      34.913 -22.457 -17.676  0.00  0.00    -0.281 N 
ATOM      3  N   UNL     1      36.008 -24.014 -16.221  0.00  0.00    -0.300 NA
ATOM      4  N   UNL     1      35.013 -24.592 -14.104  0.00  0.00    -0.299 NA
ATOM      5  C   UNL     1      36.185 -22.067 -18.299  0.00  0.00    +0.125 C 
ATOM      6  C   UNL     1      33.796 -22.651 -18.607  0.00  0.00    +0.125 C 
ATOM      7  C   UNL     1      35.955 -20.900 -19.252  0.00  0.00    +0.164 C 
ATOM      8  C   UNL     1      33.694 -21.454 -19.545  0.00  0.00    +0.164 C 
ATOM      9  C   UNL     1      34.957 -23.180 -16.479  0.00  0.00    +0.184 C 
ATOM     10  C   UNL     1      33.913 -23.028 -15.565  0.00  0.00    +0.153 C 
ATOM     11  C   UNL     1      33.994 -23.758 -14.396  0.00  0.00    +0.195 C 
ATOM     12  C   UNL     1      35.972 -24.672 -15.046  0.00  0.00    +0.312 C 
ATOM     13  N   UNL     1      32.940 -23.612 -13.462  0.00  0.00    -0.238 N 
ATOM     14  H   UNL     1      32.962 -24.116 -12.617  0.00  0.00    +0.170 HD
ENDROOT
BRANCH  13  15
ATOM     15  N   UNL     1      31.914 -22.791 -13.724  0.00  0.00    -0.127 NA
BRANCH  15  16
ATOM     16  C   UNL     1      30.761 -23.312 -13.458  0.00  0.00    +0.138 C 
BRANCH  16  17
ATOM     17  C   UNL     1      29.836 -23.742 -14.520  0.00  0.00    -0.003 C 
ATOM     18  C   UNL     1      28.048 -23.242 -16.041  0.00  0.00    -0.022 C 
ATOM     19  C   UNL     1      28.923 -22.835 -15.034  0.00  0.00    -0.007 C 
ATOM     20  C   UNL     1      29.896 -25.046 -14.985  0.00  0.00    -0.003 C 
ATOM     21  C   UNL     1      28.096 -24.552 -16.519  0.00  0.00    -0.004 C 
ATOM     22  C   UNL     1      29.020 -25.454 -15.992  0.00  0.00    -0.001 C 
ATOM     23  C   UNL     1      27.060 -22.278 -16.606  0.00  0.00    +0.031 C 
ENDBRANCH  16  17
ENDBRANCH  15  16
ENDBRANCH  13  15
BRANCH  12  24
ATOM     24  O   UNL     1      37.026 -25.514 -14.781  0.00  0.00    -0.399 OA
BRANCH  24  25
ATOM     25  C   UNL     1      36.748 -26.646 -13.971  0.00  0.00    +0.229 C 
BRANCH  25  26
ATOM     26  C   UNL     1      37.579 -26.584 -12.694  0.00  0.00    +0.094 C 
BRANCH  26  28
ATOM     27  N   UNL     1      36.143 -25.621 -10.998  0.00  0.00    -0.248 NA
ATOM     28  C   UNL     1      37.192 -25.420 -11.814  0.00  0.00    +0.063 C 
ATOM     29  C   UNL     1      37.921 -24.254 -11.899  0.00  0.00    +0.015 C 
ATOM     30  C   UNL     1      37.540 -23.202 -11.075  0.00  0.00    +0.003 C 
ATOM     31  C   UNL     1      35.801 -24.576 -10.213  0.00  0.00    +0.098 C 
ATOM     32  C   UNL     1      36.460 -23.358 -10.213  0.00  0.00    +0.021 C 
ENDBRANCH  26  28
ENDBRANCH  25  26
ENDBRANCH  24  25
ENDBRANCH  12  24
TORSDOF 7
ENDMDL
MODEL 9
REMARK VINA RESULT:      -9.4      1.750      2.713
REMARK  Name = 10173277
REMARK  7 active torsions:
REMARK  status: ('A' for Active; 'I' for Inactive)
REMARK    1  A    between atoms: C_12  and  O_24
REMARK    2  A    between atoms: N_13  and  N_15
REMARK    3  A    between atoms: N_15  and  C_16
REMARK    4  A    between atoms: C_16  and  C_17
REMARK    5  A    between atoms: O_24  and  C_25
REMARK    6  A    between atoms: C_25  and  C_26
REMARK    7  A    between atoms: C_26  and  C_28
REMARK                            x       y       z     vdW  Elec       q    Type
REMARK                         _______ _______ _______ _____ _____    ______ ____
ROOT
ATOM      1  O   UNL     1      29.614 -24.456 -13.706  0.00  0.00    -0.350 OA
ATOM      2  N   UNL     1      31.846 -23.912 -15.325  0.00  0.00    -0.281 N 
ATOM      3  N   UNL     1      34.238 -23.905 -15.462  0.00  0.00    -0.300 NA
ATOM      4  N   UNL     1      35.333 -22.996 -17.407  0.00  0.00    -0.299 NA
ATOM      5  C   UNL     1      31.852 -25.067 -14.416  0.00  0.00    +0.125 C 
ATOM      6  C   UNL     1      30.913 -22.838 -14.965  0.00  0.00    +0.125 C 
ATOM      7  C   UNL     1      30.422 -25.536 -14.174  0.00  0.00    +0.164 C 
ATOM      8  C   UNL     1      29.534 -23.427 -14.691  0.00  0.00    +0.164 C 
ATOM      9  C   UNL     1      33.025 -23.609 -16.016  0.00  0.00    +0.184 C 
ATOM     10  C   UNL     1      32.930 -23.004 -17.270  0.00  0.00    +0.153 C 
ATOM     11  C   UNL     1      34.116 -22.721 -17.918  0.00  0.00    +0.195 C 
ATOM     12  C   UNL     1      35.322 -23.579 -16.193  0.00  0.00    +0.312 C 
ATOM     13  N   UNL     1      34.032 -22.107 -19.192  0.00  0.00    -0.238 N 
ATOM     14  H   UNL     1      34.855 -21.890 -19.686  0.00  0.00    +0.170 HD
ENDROOT
BRANCH  13  15
ATOM     15  N   UNL     1      32.836 -21.821 -19.726  0.00  0.00    -0.127 NA
BRANCH  15  16
ATOM     16  C   UNL     1      32.764 -20.621 -20.203  0.00  0.00    +0.138 C 
BRANCH  16  17
ATOM     17  C   UNL     1      33.815 -20.063 -21.071  0.00  0.00    -0.003 C 
ATOM     18  C   UNL     1      36.070 -19.298 -21.368  0.00  0.00    -0.022 C 
ATOM     19  C   UNL     1      35.075 -19.826 -20.545  0.00  0.00    -0.007 C 
ATOM     20  C   UNL     1      33.522 -19.785 -22.397  0.00  0.00    -0.003 C 
ATOM     21  C   UNL     1      35.791 -19.013 -22.704  0.00  0.00    -0.004 C 
ATOM     22  C   UNL     1      34.517 -19.257 -23.219  0.00  0.00    -0.001 C 
ATOM     23  C   UNL     1      37.432 -19.038 -20.818  0.00  0.00    +0.031 C 
ENDBRANCH  16  17
ENDBRANCH  15  16
ENDBRANCH  13  15
BRANCH  12  24
ATOM     24  O   UNL     1      36.546 -23.874 -15.641  0.00  0.00    -0.399 OA
BRANCH  24  25
ATOM     25  C   UNL     1      37.300 -22.778 -15.142  0.00  0.00    +0.229 C 
BRANCH  25  26
ATOM     26  C   UNL     1      37.133 -22.684 -13.629  0.00  0.00    +0.094 C 
BRANCH  26  28
ATOM     27  N   UNL     1      36.158 -24.339 -12.154  0.00  0.00    -0.248 NA
ATOM     28  C   UNL     1      37.190 -24.036 -12.960  0.00  0.00    +0.063 C 
ATOM     29  C   UNL     1      38.271 -24.853 -13.210  0.00  0.00    +0.015 C 
ATOM     30  C   UNL     1      38.294 -26.091 -12.579  0.00  0.00    +0.003 C 
ATOM     31  C   UNL     1      36.215 -25.550 -11.557  0.00  0.00    +0.098 C 
ATOM     32  C   UNL     1      37.250 -26.454 -11.735  0.00  0.00    +0.021 C 
ENDBRANCH  26  28
ENDBRANCH  25  26
ENDBRANCH  24  25
ENDBRANCH  12  24
TORSDOF 7
ENDMDL
