MODEL 1
REMARK VINA RESULT:     -13.8      0.000      0.000
REMARK  Name = 4887
REMARK  9 active torsions:
REMARK  status: ('A' for Active; 'I' for Inactive)
REMARK    1  A    between atoms: N_2  and  C_8
REMARK    2  A    between atoms: C_3  and  C_23
REMARK    3  A    between atoms: C_14  and  C_20
REMARK    4  A    between atoms: C_22  and  O_28
REMARK    5  A    between atoms: O_28  and  C_29
REMARK    6  A    between atoms: C_29  and  C_30
REMARK    7  A    between atoms: C_30  and  C_31
REMARK    8  A    between atoms: C_31  and  C_32
REMARK    9  A    between atoms: C_32  and  C_33
REMARK                            x       y       z     vdW  Elec       q    Type
REMARK                         _______ _______ _______ _____ _____    ______ ____
ROOT
ATOM      1  O   UNL     1      33.512 -24.079 -18.377  0.00  0.00    -0.270 OA
ATOM      2  N   UNL     1      32.245 -22.394 -17.338  0.00  0.00    -0.278 N 
ATOM      3  C   UNL     1      33.165 -22.909 -18.260  0.00  0.00    +0.250 C 
ATOM      4  H   UNL     1      32.083 -21.424 -17.386  0.00  0.00    +0.155 HD
ENDROOT
BRANCH   2   8
ATOM      5  O   UNL     1      33.550 -23.623 -15.263  0.00  0.00    -0.442 OA
ATOM      6  O   UNL     1      31.578 -25.673 -12.349  0.00  0.00    -0.286 OA
ATOM      7  C   UNL     1      32.182 -23.717 -15.299  0.00  0.00    +0.163 C 
ATOM      8  C   UNL     1      31.528 -23.088 -16.360  0.00  0.00    +0.086 C 
ATOM      9  C   UNL     1      31.445 -24.403 -14.337  0.00  0.00    +0.075 C 
ATOM     10  C   UNL     1      30.138 -23.149 -16.452  0.00  0.00    +0.018 C 
ATOM     11  C   UNL     1      30.052 -24.466 -14.424  0.00  0.00    +0.006 C 
ATOM     12  C   UNL     1      32.159 -25.055 -13.231  0.00  0.00    +0.202 C 
ATOM     13  C   UNL     1      29.401 -23.836 -15.486  0.00  0.00    +0.002 C 
ATOM     14  C   UNL     1      34.236 -24.238 -14.221  0.00  0.00    +0.213 C 
ATOM     15  C   UNL     1      33.630 -24.925 -13.238  0.00  0.00    +0.090 C 
BRANCH  14  20
ATOM     16  N   UNL     1      36.432 -24.289 -15.380  0.00  0.00    -0.107 NA
ATOM     17  N   UNL     1      36.355 -23.619 -13.217  0.00  0.00    -0.084 NA
ATOM     18  N   UNL     1      37.626 -23.957 -14.867  0.00  0.00    -0.140 N 
ATOM     19  N   UNL     1      37.627 -23.554 -13.589  0.00  0.00    -0.022 NA
ATOM     20  C   UNL     1      35.666 -24.060 -14.309  0.00  0.00    +0.109 C 
ATOM     21  H   UNL     1      38.452 -24.006 -15.399  0.00  0.00    +0.197 HD
ENDBRANCH  14  20
ENDBRANCH   2   8
BRANCH   3  23
ATOM     22  C   UNL     1      34.958 -20.026 -20.859  0.00  0.00    +0.139 C 
ATOM     23  C   UNL     1      33.788 -21.907 -19.163  0.00  0.00    +0.054 C 
ATOM     24  C   UNL     1      33.570 -20.077 -20.725  0.00  0.00    +0.037 C 
ATOM     25  C   UNL     1      35.761 -20.916 -20.145  0.00  0.00    +0.037 C 
ATOM     26  C   UNL     1      32.985 -21.018 -19.877  0.00  0.00    +0.008 C 
ATOM     27  C   UNL     1      35.177 -21.856 -19.297  0.00  0.00    +0.008 C 
BRANCH  22  28
ATOM     28  O   UNL     1      35.528 -19.107 -21.684  0.00  0.00    -0.475 OA
BRANCH  28  29
ATOM     29  C   UNL     1      35.121 -19.121 -23.052  0.00  0.00    +0.205 C 
BRANCH  29  30
ATOM     30  C   UNL     1      34.961 -17.686 -23.532  0.00  0.00    +0.048 C 
BRANCH  30  31
ATOM     31  C   UNL     1      34.967 -16.698 -22.366  0.00  0.00    +0.009 C 
BRANCH  31  32
ATOM     32  C   UNL     1      34.880 -15.253 -22.863  0.00  0.00    +0.026 C 
BRANCH  32  33
ATOM     33  C   UNL     1      33.825 -14.472 -22.122  0.00  0.00    -0.022 C 
ATOM     34  C   UNL     1      33.638 -14.676 -20.755  0.00  0.00    -0.004 C 
ATOM     35  C   UNL     1      33.036 -13.546 -22.802  0.00  0.00    -0.004 C 
ATOM     36  C   UNL     1      32.662 -13.955 -20.069  0.00  0.00    -0.000 C 
ATOM     37  C   UNL     1      32.059 -12.824 -22.117  0.00  0.00    -0.000 C 
ATOM     38  C   UNL     1      31.872 -13.028 -20.750  0.00  0.00    -0.000 C 
ENDBRANCH  32  33
ENDBRANCH  31  32
ENDBRANCH  30  31
ENDBRANCH  29  30
ENDBRANCH  28  29
ENDBRANCH  22  28
ENDBRANCH   3  23
TORSDOF 9
ENDMDL
MODEL 2
REMARK VINA RESULT:     -13.7      1.709      3.965
REMARK  Name = 4887
REMARK  9 active torsions:
REMARK  status: ('A' for Active; 'I' for Inactive)
REMARK    1  A    between atoms: N_2  and  C_8
REMARK    2  A    between atoms: C_3  and  C_23
REMARK    3  A    between atoms: C_14  and  C_20
REMARK    4  A    between atoms: C_22  and  O_28
REMARK    5  A    between atoms: O_28  and  C_29
REMARK    6  A    between atoms: C_29  and  C_30
REMARK    7  A    between atoms: C_30  and  C_31
REMARK    8  A    between atoms: C_31  and  C_32
REMARK    9  A    between atoms: C_32  and  C_33
REMARK                            x       y       z     vdW  Elec       q    Type
REMARK                         _______ _______ _______ _____ _____    ______ ____
ROOT
ATOM      1  O   UNL     1      33.748 -24.290 -18.306  0.00  0.00    -0.270 OA
ATOM      2  N   UNL     1      33.882 -22.650 -16.627  0.00  0.00    -0.278 N 
ATOM      3  C   UNL     1      33.844 -23.122 -17.945  0.00  0.00    +0.250 C 
ATOM      4  H   UNL     1      33.961 -21.675 -16.520  0.00  0.00    +0.155 HD
ENDROOT
BRANCH   2   8
ATOM      5  O   UNL     1      31.482 -23.597 -15.696  0.00  0.00    -0.442 OA
ATOM      6  O   UNL     1      31.176 -25.781 -12.273  0.00  0.00    -0.286 OA
ATOM      7  C   UNL     1      32.606 -23.882 -14.963  0.00  0.00    +0.163 C 
ATOM      8  C   UNL     1      33.822 -23.395 -15.446  0.00  0.00    +0.086 C 
ATOM      9  C   UNL     1      32.574 -24.623 -13.784  0.00  0.00    +0.075 C 
ATOM     10  C   UNL     1      35.000 -23.652 -14.745  0.00  0.00    +0.018 C 
ATOM     11  C   UNL     1      33.751 -24.883 -13.079  0.00  0.00    +0.006 C 
ATOM     12  C   UNL     1      31.280 -25.123 -13.299  0.00  0.00    +0.202 C 
ATOM     13  C   UNL     1      34.965 -24.394 -13.564  0.00  0.00    +0.002 C 
ATOM     14  C   UNL     1      30.253 -24.065 -15.245  0.00  0.00    +0.213 C 
ATOM     15  C   UNL     1      30.102 -24.789 -14.123  0.00  0.00    +0.090 C 
BRANCH  14  20
ATOM     16  N   UNL     1      28.845 -22.454 -16.506  0.00  0.00    -0.107 NA
ATOM     17  N   UNL     1      28.328 -24.658 -16.596  0.00  0.00    -0.084 NA
ATOM     18  N   UNL     1      27.775 -22.734 -17.264  0.00  0.00    -0.140 N 
ATOM     19  N   UNL     1      27.433 -24.027 -17.345  0.00  0.00    -0.022 NA
ATOM     20  C   UNL     1      29.158 -23.691 -16.109  0.00  0.00    +0.109 C 
ATOM     21  H   UNL     1      27.271 -22.032 -17.733  0.00  0.00    +0.197 HD
ENDBRANCH  14  20
ENDBRANCH   2   8
BRANCH   3  23
ATOM     22  C   UNL     1      34.167 -20.120 -20.972  0.00  0.00    +0.139 C 
ATOM     23  C   UNL     1      33.956 -22.078 -18.997  0.00  0.00    +0.054 C 
ATOM     24  C   UNL     1      32.912 -20.485 -20.483  0.00  0.00    +0.037 C 
ATOM     25  C   UNL     1      35.315 -20.734 -20.475  0.00  0.00    +0.037 C 
ATOM     26  C   UNL     1      32.807 -21.465 -19.495  0.00  0.00    +0.008 C 
ATOM     27  C   UNL     1      35.211 -21.713 -19.487  0.00  0.00    +0.008 C 
BRANCH  22  28
ATOM     28  O   UNL     1      34.269 -19.163 -21.934  0.00  0.00    -0.475 OA
BRANCH  28  29
ATOM     29  C   UNL     1      35.517 -18.480 -22.040  0.00  0.00    +0.205 C 
BRANCH  29  30
ATOM     30  C   UNL     1      35.316 -17.211 -22.856  0.00  0.00    +0.048 C 
BRANCH  30  31
ATOM     31  C   UNL     1      34.891 -16.036 -21.976  0.00  0.00    +0.009 C 
BRANCH  31  32
ATOM     32  C   UNL     1      34.582 -14.796 -22.819  0.00  0.00    +0.026 C 
BRANCH  32  33
ATOM     33  C   UNL     1      33.568 -13.905 -22.147  0.00  0.00    -0.022 C 
ATOM     34  C   UNL     1      33.001 -12.842 -22.849  0.00  0.00    -0.004 C 
ATOM     35  C   UNL     1      33.198 -14.143 -20.824  0.00  0.00    -0.004 C 
ATOM     36  C   UNL     1      32.064 -12.017 -22.228  0.00  0.00    -0.000 C 
ATOM     37  C   UNL     1      32.260 -13.319 -20.202  0.00  0.00    -0.000 C 
ATOM     38  C   UNL     1      31.693 -12.256 -20.904  0.00  0.00    -0.000 C 
ENDBRANCH  32  33
ENDBRANCH  31  32
ENDBRANCH  30  31
ENDBRANCH  29  30
ENDBRANCH  28  29
ENDBRANCH  22  28
ENDBRANCH   3  23
TORSDOF 9
ENDMDL
MODEL 3
REMARK VINA RESULT:     -13.1      1.623      3.748
REMARK  Name = 4887
REMARK  9 active torsions:
REMARK  status: ('A' for Active; 'I' for Inactive)
REMARK    1  A    between atoms: N_2  and  C_8
REMARK    2  A    between atoms: C_3  and  C_23
REMARK    3  A    between atoms: C_14  and  C_20
REMARK    4  A    between atoms: C_22  and  O_28
REMARK    5  A    between atoms: O_28  and  C_29
REMARK    6  A    between atoms: C_29  and  C_30
REMARK    7  A    between atoms: C_30  and  C_31
REMARK    8  A    between atoms: C_31  and  C_32
REMARK    9  A    between atoms: C_32  and  C_33
REMARK                            x       y       z     vdW  Elec       q    Type
REMARK                         _______ _______ _______ _____ _____    ______ ____
ROOT
ATOM      1  O   UNL     1      34.226 -23.680 -18.233  0.00  0.00    -0.270 OA
ATOM      2  N   UNL     1      35.571 -22.242 -16.949  0.00  0.00    -0.278 N 
ATOM      3  C   UNL     1      34.816 -22.618 -18.067  0.00  0.00    +0.250 C 
ATOM      4  H   UNL     1      35.977 -21.346 -16.984  0.00  0.00    +0.155 HD
ENDROOT
BRANCH   2   8
ATOM      5  O   UNL     1      33.494 -23.164 -15.413  0.00  0.00    -0.442 OA
ATOM      6  O   UNL     1      34.083 -25.337 -12.020  0.00  0.00    -0.286 OA
ATOM      7  C   UNL     1      34.769 -23.458 -15.002  0.00  0.00    +0.163 C 
ATOM      8  C   UNL     1      35.818 -22.983 -15.791  0.00  0.00    +0.086 C 
ATOM      9  C   UNL     1      35.043 -24.195 -13.852  0.00  0.00    +0.075 C 
ATOM     10  C   UNL     1      37.137 -23.249 -15.424  0.00  0.00    +0.018 C 
ATOM     11  C   UNL     1      36.362 -24.464 -13.481  0.00  0.00    +0.006 C 
ATOM     12  C   UNL     1      33.919 -24.683 -13.041  0.00  0.00    +0.202 C 
ATOM     13  C   UNL     1      37.409 -23.988 -14.272  0.00  0.00    +0.002 C 
ATOM     14  C   UNL     1      32.423 -23.620 -14.652  0.00  0.00    +0.213 C 
ATOM     15  C   UNL     1      32.567 -24.339 -13.526  0.00  0.00    +0.090 C 
BRANCH  14  20
ATOM     16  N   UNL     1      30.003 -23.080 -14.520  0.00  0.00    -0.107 NA
ATOM     17  N   UNL     1      31.029 -23.003 -16.538  0.00  0.00    -0.084 NA
ATOM     18  N   UNL     1      29.194 -22.735 -15.532  0.00  0.00    -0.140 N 
ATOM     19  N   UNL     1      29.759 -22.677 -16.745  0.00  0.00    -0.022 NA
ATOM     20  C   UNL     1      31.143 -23.238 -15.199  0.00  0.00    +0.109 C 
ATOM     21  H   UNL     1      28.240 -22.537 -15.392  0.00  0.00    +0.197 HD
ENDBRANCH  14  20
ENDBRANCH   2   8
BRANCH   3  23
ATOM     22  C   UNL     1      34.651 -19.734 -21.219  0.00  0.00    +0.139 C 
ATOM     23  C   UNL     1      34.759 -21.615 -19.163  0.00  0.00    +0.054 C 
ATOM     24  C   UNL     1      33.471 -20.232 -20.667  0.00  0.00    +0.037 C 
ATOM     25  C   UNL     1      35.885 -20.177 -20.743  0.00  0.00    +0.037 C 
ATOM     26  C   UNL     1      33.525 -21.173 -19.639  0.00  0.00    +0.008 C 
ATOM     27  C   UNL     1      35.940 -21.117 -19.715  0.00  0.00    +0.008 C 
BRANCH  22  28
ATOM     28  O   UNL     1      34.599 -18.814 -22.221  0.00  0.00    -0.475 OA
BRANCH  28  29
ATOM     29  C   UNL     1      34.442 -19.310 -23.549  0.00  0.00    +0.205 C 
BRANCH  29  30
ATOM     30  C   UNL     1      33.901 -18.192 -24.430  0.00  0.00    +0.048 C 
BRANCH  30  31
ATOM     31  C   UNL     1      34.847 -16.992 -24.460  0.00  0.00    +0.009 C 
BRANCH  31  32
ATOM     32  C   UNL     1      34.073 -15.682 -24.627  0.00  0.00    +0.026 C 
BRANCH  32  33
ATOM     33  C   UNL     1      33.816 -15.014 -23.300  0.00  0.00    -0.022 C 
ATOM     34  C   UNL     1      34.541 -15.401 -22.173  0.00  0.00    -0.004 C 
ATOM     35  C   UNL     1      32.853 -14.011 -23.198  0.00  0.00    -0.004 C 
ATOM     36  C   UNL     1      34.303 -14.785 -20.945  0.00  0.00    -0.000 C 
ATOM     37  C   UNL     1      32.615 -13.394 -21.970  0.00  0.00    -0.000 C 
ATOM     38  C   UNL     1      33.340 -13.781 -20.844  0.00  0.00    -0.000 C 
ENDBRANCH  32  33
ENDBRANCH  31  32
ENDBRANCH  30  31
ENDBRANCH  29  30
ENDBRANCH  28  29
ENDBRANCH  22  28
ENDBRANCH   3  23
TORSDOF 9
ENDMDL
MODEL 4
REMARK VINA RESULT:     -11.7      2.290      4.326
REMARK  Name = 4887
REMARK  9 active torsions:
REMARK  status: ('A' for Active; 'I' for Inactive)
REMARK    1  A    between atoms: N_2  and  C_8
REMARK    2  A    between atoms: C_3  and  C_23
REMARK    3  A    between atoms: C_14  and  C_20
REMARK    4  A    between atoms: C_22  and  O_28
REMARK    5  A    between atoms: O_28  and  C_29
REMARK    6  A    between atoms: C_29  and  C_30
REMARK    7  A    between atoms: C_30  and  C_31
REMARK    8  A    between atoms: C_31  and  C_32
REMARK    9  A    between atoms: C_32  and  C_33
REMARK                            x       y       z     vdW  Elec       q    Type
REMARK                         _______ _______ _______ _____ _____    ______ ____
ROOT
ATOM      1  O   UNL     1      37.798 -21.307 -16.085  0.00  0.00    -0.270 OA
ATOM      2  N   UNL     1      36.704 -23.387 -16.169  0.00  0.00    -0.278 N 
ATOM      3  C   UNL     1      37.049 -22.111 -16.631  0.00  0.00    +0.250 C 
ATOM      4  H   UNL     1      36.087 -23.900 -16.739  0.00  0.00    +0.155 HD
ENDROOT
BRANCH   2   8
ATOM      5  O   UNL     1      34.916 -23.975 -14.174  0.00  0.00    -0.442 OA
ATOM      6  O   UNL     1      36.027 -25.819 -10.718  0.00  0.00    -0.286 OA
ATOM      7  C   UNL     1      36.228 -24.324 -13.976  0.00  0.00    +0.163 C 
ATOM      8  C   UNL     1      37.129 -24.020 -14.998  0.00  0.00    +0.086 C 
ATOM      9  C   UNL     1      36.676 -24.956 -12.819  0.00  0.00    +0.075 C 
ATOM     10  C   UNL     1      38.476 -24.350 -14.855  0.00  0.00    +0.018 C 
ATOM     11  C   UNL     1      38.025 -25.289 -12.672  0.00  0.00    +0.006 C 
ATOM     12  C   UNL     1      35.705 -25.264 -11.760  0.00  0.00    +0.202 C 
ATOM     13  C   UNL     1      38.924 -24.983 -13.695  0.00  0.00    +0.002 C 
ATOM     14  C   UNL     1      33.989 -24.260 -13.178  0.00  0.00    +0.213 C 
ATOM     15  C   UNL     1      34.308 -24.867 -12.022  0.00  0.00    +0.090 C 
BRANCH  14  20
ATOM     16  N   UNL     1      31.572 -23.904 -12.732  0.00  0.00    -0.107 NA
ATOM     17  N   UNL     1      32.408 -23.309 -14.751  0.00  0.00    -0.084 NA
ATOM     18  N   UNL     1      30.663 -23.384 -13.568  0.00  0.00    -0.140 N 
ATOM     19  N   UNL     1      31.114 -23.017 -14.775  0.00  0.00    -0.022 NA
ATOM     20  C   UNL     1      32.651 -23.837 -13.517  0.00  0.00    +0.109 C 
ATOM     21  H   UNL     1      29.719 -23.277 -13.310  0.00  0.00    +0.197 HD
ENDBRANCH  14  20
ENDBRANCH   2   8
BRANCH   3  23
ATOM     22  C   UNL     1      35.207 -20.936 -20.306  0.00  0.00    +0.139 C 
ATOM     23  C   UNL     1      36.409 -21.703 -17.909  0.00  0.00    +0.054 C 
ATOM     24  C   UNL     1      36.472 -20.450 -19.974  0.00  0.00    +0.037 C 
ATOM     25  C   UNL     1      34.543 -21.804 -19.440  0.00  0.00    +0.037 C 
ATOM     26  C   UNL     1      37.073 -20.833 -18.774  0.00  0.00    +0.008 C 
ATOM     27  C   UNL     1      35.143 -22.188 -18.241  0.00  0.00    +0.008 C 
BRANCH  22  28
ATOM     28  O   UNL     1      34.622 -20.563 -21.477  0.00  0.00    -0.475 OA
BRANCH  28  29
ATOM     29  C   UNL     1      34.443 -19.165 -21.698  0.00  0.00    +0.205 C 
BRANCH  29  30
ATOM     30  C   UNL     1      35.279 -18.747 -22.899  0.00  0.00    +0.048 C 
BRANCH  30  31
ATOM     31  C   UNL     1      34.546 -17.724 -23.767  0.00  0.00    +0.009 C 
BRANCH  31  32
ATOM     32  C   UNL     1      35.220 -16.352 -23.695  0.00  0.00    +0.026 C 
BRANCH  32  33
ATOM     33  C   UNL     1      34.448 -15.398 -22.819  0.00  0.00    -0.022 C 
ATOM     34  C   UNL     1      33.532 -14.515 -23.389  0.00  0.00    -0.004 C 
ATOM     35  C   UNL     1      34.649 -15.398 -21.440  0.00  0.00    -0.004 C 
ATOM     36  C   UNL     1      32.817 -13.631 -22.581  0.00  0.00    -0.000 C 
ATOM     37  C   UNL     1      33.935 -14.515 -20.630  0.00  0.00    -0.000 C 
ATOM     38  C   UNL     1      33.019 -13.632 -21.200  0.00  0.00    -0.000 C 
ENDBRANCH  32  33
ENDBRANCH  31  32
ENDBRANCH  30  31
ENDBRANCH  29  30
ENDBRANCH  28  29
ENDBRANCH  22  28
ENDBRANCH   3  23
TORSDOF 9
ENDMDL
MODEL 5
REMARK VINA RESULT:     -11.6      7.013     13.440
REMARK  Name = 4887
REMARK  9 active torsions:
REMARK  status: ('A' for Active; 'I' for Inactive)
REMARK    1  A    between atoms: N_2  and  C_8
REMARK    2  A    between atoms: C_3  and  C_23
REMARK    3  A    between atoms: C_14  and  C_20
REMARK    4  A    between atoms: C_22  and  O_28
REMARK    5  A    between atoms: O_28  and  C_29
REMARK    6  A    between atoms: C_29  and  C_30
REMARK    7  A    between atoms: C_30  and  C_31
REMARK    8  A    between atoms: C_31  and  C_32
REMARK    9  A    between atoms: C_32  and  C_33
REMARK                            x       y       z     vdW  Elec       q    Type
REMARK                         _______ _______ _______ _____ _____    ______ ____
ROOT
ATOM      1  O   UNL     1      32.122 -11.076 -23.575  0.00  0.00    -0.270 OA
ATOM      2  N   UNL     1      34.370 -10.391 -23.507  0.00  0.00    -0.278 N 
ATOM      3  C   UNL     1      33.323 -11.320 -23.532  0.00  0.00    +0.250 C 
ATOM      4  H   UNL     1      35.279 -10.765 -23.474  0.00  0.00    +0.155 HD
ENDROOT
BRANCH   2   8
ATOM      5  O   UNL     1      33.079  -9.053 -21.490  0.00  0.00    -0.442 OA
ATOM      6  O   UNL     1      32.754  -4.994 -21.420  0.00  0.00    -0.286 OA
ATOM      7  C   UNL     1      33.626  -8.305 -22.502  0.00  0.00    +0.163 C 
ATOM      8  C   UNL     1      34.281  -8.996 -23.523  0.00  0.00    +0.086 C 
ATOM      9  C   UNL     1      33.552  -6.914 -22.541  0.00  0.00    +0.075 C 
ATOM     10  C   UNL     1      34.857  -8.291 -24.579  0.00  0.00    +0.018 C 
ATOM     11  C   UNL     1      34.129  -6.204 -23.596  0.00  0.00    +0.006 C 
ATOM     12  C   UNL     1      32.857  -6.213 -21.452  0.00  0.00    +0.202 C 
ATOM     13  C   UNL     1      34.782  -6.898 -24.615  0.00  0.00    +0.002 C 
ATOM     14  C   UNL     1      32.418  -8.399 -20.457  0.00  0.00    +0.213 C 
ATOM     15  C   UNL     1      32.285  -7.063 -20.390  0.00  0.00    +0.090 C 
BRANCH  14  20
ATOM     16  N   UNL     1      30.777 -10.037 -19.567  0.00  0.00    -0.107 NA
ATOM     17  N   UNL     1      32.556  -9.469 -18.285  0.00  0.00    -0.084 NA
ATOM     18  N   UNL     1      30.811 -10.653 -18.377  0.00  0.00    -0.140 N 
ATOM     19  N   UNL     1      31.848 -10.347 -17.585  0.00  0.00    -0.022 NA
ATOM     20  C   UNL     1      31.890  -9.306 -19.465  0.00  0.00    +0.109 C 
ATOM     21  H   UNL     1      30.116 -11.292 -18.101  0.00  0.00    +0.197 HD
ENDBRANCH  14  20
ENDBRANCH   2   8
BRANCH   3  23
ATOM     22  C   UNL     1      34.518 -15.422 -23.373  0.00  0.00    +0.139 C 
ATOM     23  C   UNL     1      33.738 -12.746 -23.477  0.00  0.00    +0.054 C 
ATOM     24  C   UNL     1      34.625 -14.620 -22.236  0.00  0.00    +0.037 C 
ATOM     25  C   UNL     1      34.021 -14.887 -24.561  0.00  0.00    +0.037 C 
ATOM     26  C   UNL     1      34.235 -13.282 -22.289  0.00  0.00    +0.008 C 
ATOM     27  C   UNL     1      33.631 -13.549 -24.614  0.00  0.00    +0.008 C 
BRANCH  22  28
ATOM     28  O   UNL     1      34.896 -16.729 -23.321  0.00  0.00    -0.475 OA
BRANCH  28  29
ATOM     29  C   UNL     1      34.314 -17.611 -24.280  0.00  0.00    +0.205 C 
BRANCH  29  30
ATOM     30  C   UNL     1      34.202 -18.999 -23.665  0.00  0.00    +0.048 C 
BRANCH  30  31
ATOM     31  C   UNL     1      35.357 -19.286 -22.707  0.00  0.00    +0.009 C 
BRANCH  31  32
ATOM     32  C   UNL     1      34.981 -18.937 -21.265  0.00  0.00    +0.026 C 
BRANCH  32  33
ATOM     33  C   UNL     1      34.714 -20.174 -20.445  0.00  0.00    -0.022 C 
ATOM     34  C   UNL     1      35.780 -20.920 -19.943  0.00  0.00    -0.004 C 
ATOM     35  C   UNL     1      33.404 -20.573 -20.190  0.00  0.00    -0.004 C 
ATOM     36  C   UNL     1      35.536 -22.065 -19.185  0.00  0.00    -0.000 C 
ATOM     37  C   UNL     1      33.157 -21.718 -19.431  0.00  0.00    -0.000 C 
ATOM     38  C   UNL     1      34.223 -22.464 -18.929  0.00  0.00    -0.000 C 
ENDBRANCH  32  33
ENDBRANCH  31  32
ENDBRANCH  30  31
ENDBRANCH  29  30
ENDBRANCH  28  29
ENDBRANCH  22  28
ENDBRANCH   3  23
TORSDOF 9
ENDMDL
MODEL 6
REMARK VINA RESULT:     -10.9      7.724     13.924
REMARK  Name = 4887
REMARK  9 active torsions:
REMARK  status: ('A' for Active; 'I' for Inactive)
REMARK    1  A    between atoms: N_2  and  C_8
REMARK    2  A    between atoms: C_3  and  C_23
REMARK    3  A    between atoms: C_14  and  C_20
REMARK    4  A    between atoms: C_22  and  O_28
REMARK    5  A    between atoms: O_28  and  C_29
REMARK    6  A    between atoms: C_29  and  C_30
REMARK    7  A    between atoms: C_30  and  C_31
REMARK    8  A    between atoms: C_31  and  C_32
REMARK    9  A    between atoms: C_32  and  C_33
REMARK                            x       y       z     vdW  Elec       q    Type
REMARK                         _______ _______ _______ _____ _____    ______ ____
ROOT
ATOM      1  O   UNL     1      31.421 -12.481 -20.852  0.00  0.00    -0.270 OA
ATOM      2  N   UNL     1      32.756 -10.831 -21.862  0.00  0.00    -0.278 N 
ATOM      3  C   UNL     1      32.254 -12.125 -21.678  0.00  0.00    +0.250 C 
ATOM      4  H   UNL     1      33.424 -10.724 -22.577  0.00  0.00    +0.155 HD
ENDROOT
BRANCH   2   8
ATOM      5  O   UNL     1      33.225  -8.353 -22.940  0.00  0.00    -0.442 OA
ATOM      6  O   UNL     1      32.303  -4.906 -20.977  0.00  0.00    -0.286 OA
ATOM      7  C   UNL     1      32.659  -8.407 -21.692  0.00  0.00    +0.163 C 
ATOM      8  C   UNL     1      32.425  -9.673 -21.153  0.00  0.00    +0.086 C 
ATOM      9  C   UNL     1      32.319  -7.268 -20.965  0.00  0.00    +0.075 C 
ATOM     10  C   UNL     1      31.852  -9.793 -19.887  0.00  0.00    +0.018 C 
ATOM     11  C   UNL     1      31.745  -7.384 -19.697  0.00  0.00    +0.006 C 
ATOM     12  C   UNL     1      32.577  -5.948 -21.557  0.00  0.00    +0.202 C 
ATOM     13  C   UNL     1      31.513  -8.651 -19.160  0.00  0.00    +0.002 C 
ATOM     14  C   UNL     1      33.474  -7.108 -23.509  0.00  0.00    +0.213 C 
ATOM     15  C   UNL     1      33.188  -5.945 -22.901  0.00  0.00    +0.090 C 
BRANCH  14  20
ATOM     16  N   UNL     1      35.281  -7.687 -25.111  0.00  0.00    -0.107 NA
ATOM     17  N   UNL     1      33.376  -6.757 -25.906  0.00  0.00    -0.084 NA
ATOM     18  N   UNL     1      35.272  -7.512 -26.440  0.00  0.00    -0.140 N 
ATOM     19  N   UNL     1      34.163  -6.964 -26.954  0.00  0.00    -0.022 NA
ATOM     20  C   UNL     1      34.072  -7.200 -24.820  0.00  0.00    +0.109 C 
ATOM     21  H   UNL     1      36.035  -7.771 -27.004  0.00  0.00    +0.197 HD
ENDBRANCH  14  20
ENDBRANCH   2   8
BRANCH   3  23
ATOM     22  C   UNL     1      33.899 -15.106 -24.265  0.00  0.00    +0.139 C 
ATOM     23  C   UNL     1      32.825 -13.161 -22.578  0.00  0.00    +0.054 C 
ATOM     24  C   UNL     1      34.187 -15.131 -22.899  0.00  0.00    +0.037 C 
ATOM     25  C   UNL     1      33.074 -14.110 -24.786  0.00  0.00    +0.037 C 
ATOM     26  C   UNL     1      33.651 -14.158 -22.056  0.00  0.00    +0.008 C 
ATOM     27  C   UNL     1      32.537 -13.137 -23.943  0.00  0.00    +0.008 C 
BRANCH  22  28
ATOM     28  O   UNL     1      34.420 -16.057 -25.087  0.00  0.00    -0.475 OA
BRANCH  28  29
ATOM     29  C   UNL     1      35.043 -17.181 -24.467  0.00  0.00    +0.205 C 
BRANCH  29  30
ATOM     30  C   UNL     1      34.016 -18.295 -24.323  0.00  0.00    +0.048 C 
BRANCH  30  31
ATOM     31  C   UNL     1      34.552 -19.449 -23.477  0.00  0.00    +0.009 C 
BRANCH  31  32
ATOM     32  C   UNL     1      35.016 -18.959 -22.103  0.00  0.00    +0.026 C 
BRANCH  32  33
ATOM     33  C   UNL     1      34.737 -19.977 -21.026  0.00  0.00    -0.022 C 
ATOM     34  C   UNL     1      33.423 -20.255 -20.652  0.00  0.00    -0.004 C 
ATOM     35  C   UNL     1      35.793 -20.641 -20.403  0.00  0.00    -0.004 C 
ATOM     36  C   UNL     1      33.164 -21.195 -19.656  0.00  0.00    -0.000 C 
ATOM     37  C   UNL     1      35.536 -21.582 -19.407  0.00  0.00    -0.000 C 
ATOM     38  C   UNL     1      34.221 -21.859 -19.033  0.00  0.00    -0.000 C 
ENDBRANCH  32  33
ENDBRANCH  31  32
ENDBRANCH  30  31
ENDBRANCH  29  30
ENDBRANCH  28  29
ENDBRANCH  22  28
ENDBRANCH   3  23
TORSDOF 9
ENDMDL
MODEL 7
REMARK VINA RESULT:     -10.8      8.952     15.694
REMARK  Name = 4887
REMARK  9 active torsions:
REMARK  status: ('A' for Active; 'I' for Inactive)
REMARK    1  A    between atoms: N_2  and  C_8
REMARK    2  A    between atoms: C_3  and  C_23
REMARK    3  A    between atoms: C_14  and  C_20
REMARK    4  A    between atoms: C_22  and  O_28
REMARK    5  A    between atoms: O_28  and  C_29
REMARK    6  A    between atoms: C_29  and  C_30
REMARK    7  A    between atoms: C_30  and  C_31
REMARK    8  A    between atoms: C_31  and  C_32
REMARK    9  A    between atoms: C_32  and  C_33
REMARK                            x       y       z     vdW  Elec       q    Type
REMARK                         _______ _______ _______ _____ _____    ______ ____
ROOT
ATOM      1  O   UNL     1      30.498  -9.748 -22.496  0.00  0.00    -0.270 OA
ATOM      2  N   UNL     1      32.495  -8.509 -22.454  0.00  0.00    -0.278 N 
ATOM      3  C   UNL     1      31.721  -9.672 -22.543  0.00  0.00    +0.250 C 
ATOM      4  H   UNL     1      33.469  -8.633 -22.512  0.00  0.00    +0.155 HD
ENDROOT
BRANCH   2   8
ATOM      5  O   UNL     1      33.148  -6.583 -24.295  0.00  0.00    -0.442 OA
ATOM      6  O   UNL     1      31.917  -2.717 -23.941  0.00  0.00    -0.286 OA
ATOM      7  C   UNL     1      32.378  -6.205 -23.224  0.00  0.00    +0.163 C 
ATOM      8  C   UNL     1      32.052  -7.193 -22.294  0.00  0.00    +0.086 C 
ATOM      9  C   UNL     1      31.924  -4.901 -23.041  0.00  0.00    +0.075 C 
ATOM     10  C   UNL     1      31.272  -6.871 -21.183  0.00  0.00    +0.018 C 
ATOM     11  C   UNL     1      31.142  -4.574 -21.930  0.00  0.00    +0.006 C 
ATOM     12  C   UNL     1      32.282  -3.881 -24.036  0.00  0.00    +0.202 C 
ATOM     13  C   UNL     1      30.818  -5.564 -21.002  0.00  0.00    +0.002 C 
ATOM     14  C   UNL     1      33.494  -5.625 -25.241  0.00  0.00    +0.213 C 
ATOM     15  C   UNL     1      33.112  -4.339 -25.168  0.00  0.00    +0.090 C 
BRANCH  14  20
ATOM     16  N   UNL     1      35.308  -7.033 -26.186  0.00  0.00    -0.107 NA
ATOM     17  N   UNL     1      34.067  -5.763 -27.593  0.00  0.00    -0.084 NA
ATOM     18  N   UNL     1      35.661  -7.141 -27.475  0.00  0.00    -0.140 N 
ATOM     19  N   UNL     1      34.953  -6.407 -28.344  0.00  0.00    -0.022 NA
ATOM     20  C   UNL     1      34.305  -6.159 -26.310  0.00  0.00    +0.109 C 
ATOM     21  H   UNL     1      36.396  -7.726 -27.766  0.00  0.00    +0.197 HD
ENDBRANCH  14  20
ENDBRANCH   2   8
BRANCH   3  23
ATOM     22  C   UNL     1      33.929 -13.311 -22.949  0.00  0.00    +0.139 C 
ATOM     23  C   UNL     1      32.488 -10.937 -22.685  0.00  0.00    +0.054 C 
ATOM     24  C   UNL     1      32.887 -13.227 -22.025  0.00  0.00    +0.037 C 
ATOM     25  C   UNL     1      34.250 -12.208 -23.741  0.00  0.00    +0.037 C 
ATOM     26  C   UNL     1      32.167 -12.039 -21.892  0.00  0.00    +0.008 C 
ATOM     27  C   UNL     1      33.530 -11.021 -23.609  0.00  0.00    +0.008 C 
BRANCH  22  28
ATOM     28  O   UNL     1      34.630 -14.470 -23.080  0.00  0.00    -0.475 OA
BRANCH  28  29
ATOM     29  C   UNL     1      34.601 -15.374 -21.977  0.00  0.00    +0.205 C 
BRANCH  29  30
ATOM     30  C   UNL     1      35.047 -16.749 -22.456  0.00  0.00    +0.048 C 
BRANCH  30  31
ATOM     31  C   UNL     1      35.386 -17.670 -21.286  0.00  0.00    +0.009 C 
BRANCH  31  32
ATOM     32  C   UNL     1      35.615 -19.107 -21.760  0.00  0.00    +0.026 C 
BRANCH  32  33
ATOM     33  C   UNL     1      35.058 -20.112 -20.783  0.00  0.00    -0.022 C 
ATOM     34  C   UNL     1      33.678 -20.245 -20.631  0.00  0.00    -0.004 C 
ATOM     35  C   UNL     1      35.922 -20.906 -20.031  0.00  0.00    -0.004 C 
ATOM     36  C   UNL     1      33.162 -21.173 -19.727  0.00  0.00    -0.000 C 
ATOM     37  C   UNL     1      35.407 -21.835 -19.127  0.00  0.00    -0.000 C 
ATOM     38  C   UNL     1      34.027 -21.968 -18.975  0.00  0.00    -0.000 C 
ENDBRANCH  32  33
ENDBRANCH  31  32
ENDBRANCH  30  31
ENDBRANCH  29  30
ENDBRANCH  28  29
ENDBRANCH  22  28
ENDBRANCH   3  23
TORSDOF 9
ENDMDL
