MODEL 1
REMARK VINA RESULT:     -12.2      0.000      0.000
REMARK  Name = 10224714
REMARK  8 active torsions:
REMARK  status: ('A' for Active; 'I' for Inactive)
REMARK    1  A    between atoms: N_1  and  C_12
REMARK    2  A    between atoms: N_2  and  CA_30
REMARK    3  A    between atoms: N_15  and  C_17
REMARK    4  A    between atoms: C_17  and  C_18
REMARK    5  A    between atoms: C_21  and  C_25
REMARK    6  A    between atoms: CA_30  and  C_31
REMARK    7  A    between atoms: CA_30  and  C_33
REMARK    8  A    between atoms: C_33  and  O_34
REMARK                            x       y       z     vdW  Elec       q    Type
REMARK                         _______ _______ _______ _____ _____    ______ ____
ROOT
ATOM      1  N   UNL     1      31.919 -24.285 -14.751  0.00  0.00    -0.262 N 
ATOM      2  N   UNL     1      36.651 -24.527 -14.406  0.00  0.00    -0.258 N 
ATOM      3  N   UNL     1      34.311 -24.512 -14.394  0.00  0.00    -0.311 NA
ATOM      4  N   UNL     1      31.924 -23.187 -16.691  0.00  0.00    -0.240 NA
ATOM      5  N   UNL     1      35.579 -23.494 -16.214  0.00  0.00    -0.311 NA
ATOM      6  C   UNL     1      33.233 -24.110 -15.083  0.00  0.00    +0.220 C 
ATOM      7  C   UNL     1      33.213 -23.427 -16.288  0.00  0.00    +0.167 C 
ATOM      8  C   UNL     1      34.446 -23.118 -16.855  0.00  0.00    +0.215 C 
ATOM      9  C   UNL     1      35.471 -24.165 -15.026  0.00  0.00    +0.202 C 
ATOM     10  C   UNL     1      31.172 -23.713 -15.747  0.00  0.00    +0.222 C 
ATOM     11  H   UNL     1      37.500 -24.289 -14.844  0.00  0.00    +0.160 HD
ATOM     12  N   UNL     1      34.522 -22.426 -18.077  0.00  0.00    -0.302 N 
ATOM     13  H   UNL     1      33.683 -22.166 -18.522  0.00  0.00    +0.150 HD
ENDROOT
BRANCH   1  14
ATOM     14  C   UNL     1      31.405 -24.945 -13.576  0.00  0.00    +0.077 C 
ATOM     15  C   UNL     1      31.159 -23.963 -12.428  0.00  0.00    +0.022 C 
ATOM     16  C   UNL     1      30.158 -25.775 -13.884  0.00  0.00    +0.022 C 
ENDBRANCH   1  14
BRANCH  12  17
ATOM     17  C   UNL     1      35.763 -22.084 -18.705  0.00  0.00    +0.116 C 
BRANCH  17  18
ATOM     18  C   UNL     1      35.557 -20.991 -19.718  0.00  0.00    -0.003 C 
ATOM     19  C   UNL     1      34.295 -20.790 -20.262  0.00  0.00    -0.003 C 
ATOM     20  C   UNL     1      36.631 -20.197 -20.096  0.00  0.00    -0.003 C 
ATOM     21  C   UNL     1      35.177 -18.974 -21.589  0.00  0.00    +0.018 C 
ATOM     22  C   UNL     1      34.105 -19.778 -21.202  0.00  0.00    +0.001 C 
ATOM     23  C   UNL     1      36.440 -19.183 -21.036  0.00  0.00    +0.001 C 
BRANCH  21  25
ATOM     24  N   UNL     1      35.186 -16.672 -22.099  0.00  0.00    -0.244 NA
ATOM     25  C   UNL     1      34.978 -17.923 -22.563  0.00  0.00    +0.081 C 
ATOM     26  C   UNL     1      34.602 -18.221 -23.862  0.00  0.00    +0.019 C 
ATOM     27  C   UNL     1      34.429 -17.162 -24.745  0.00  0.00    +0.003 C 
ATOM     28  C   UNL     1      35.008 -15.668 -22.987  0.00  0.00    +0.099 C 
ATOM     29  C   UNL     1      34.633 -15.858 -24.308  0.00  0.00    +0.021 C 
ENDBRANCH  21  25
ENDBRANCH  17  18
ENDBRANCH  12  17
BRANCH   2  30
ATOM     30  CA  UNL     1      36.706 -25.238 -13.142  0.00  0.00    +0.109 C 
BRANCH  30  31
ATOM     31  C   UNL     1      37.716 -24.562 -12.207  0.00  0.00    +0.023 C 
ATOM     32  C   UNL     1      37.082 -23.485 -11.337  0.00  0.00    +0.002 C 
ENDBRANCH  30  31
BRANCH  30  33
ATOM     33  C   UNL     1      37.102 -26.690 -13.413  0.00  0.00    +0.157 C 
BRANCH  33  34
ATOM     34  O   UNL     1      36.129 -27.294 -14.260  0.00  0.00    -0.380 OA
ATOM     35  H   UNL     1      36.217 -26.938 -15.158  0.00  0.00    +0.211 HD
ENDBRANCH  33  34
ENDBRANCH  30  33
ENDBRANCH   2  30
TORSDOF 8
ENDMDL
MODEL 2
REMARK VINA RESULT:     -11.1      1.584      4.103
REMARK  Name = 10224714
REMARK  8 active torsions:
REMARK  status: ('A' for Active; 'I' for Inactive)
REMARK    1  A    between atoms: N_1  and  C_12
REMARK    2  A    between atoms: N_2  and  CA_30
REMARK    3  A    between atoms: N_15  and  C_17
REMARK    4  A    between atoms: C_17  and  C_18
REMARK    5  A    between atoms: C_21  and  C_25
REMARK    6  A    between atoms: CA_30  and  C_31
REMARK    7  A    between atoms: CA_30  and  C_33
REMARK    8  A    between atoms: C_33  and  O_34
REMARK                            x       y       z     vdW  Elec       q    Type
REMARK                         _______ _______ _______ _____ _____    ______ ____
ROOT
ATOM      1  N   UNL     1      36.327 -23.564 -13.411  0.00  0.00    -0.262 N 
ATOM      2  N   UNL     1      31.799 -24.276 -14.657  0.00  0.00    -0.258 N 
ATOM      3  N   UNL     1      33.974 -23.979 -13.848  0.00  0.00    -0.311 NA
ATOM      4  N   UNL     1      36.997 -22.974 -15.454  0.00  0.00    -0.240 NA
ATOM      5  N   UNL     1      33.426 -23.587 -16.194  0.00  0.00    -0.311 NA
ATOM      6  C   UNL     1      35.219 -23.632 -14.207  0.00  0.00    +0.220 C 
ATOM      7  C   UNL     1      35.656 -23.262 -15.468  0.00  0.00    +0.167 C 
ATOM      8  C   UNL     1      34.705 -23.248 -16.484  0.00  0.00    +0.215 C 
ATOM      9  C   UNL     1      33.113 -23.935 -14.908  0.00  0.00    +0.202 C 
ATOM     10  C   UNL     1      37.370 -23.165 -14.205  0.00  0.00    +0.222 C 
ATOM     11  H   UNL     1      31.159 -24.250 -15.405  0.00  0.00    +0.160 HD
ATOM     12  N   UNL     1      35.060 -22.887 -17.796  0.00  0.00    -0.302 N 
ATOM     13  H   UNL     1      35.997 -22.643 -17.978  0.00  0.00    +0.150 HD
ENDROOT
BRANCH   1  14
ATOM     14  C   UNL     1      36.397 -23.856 -12.000  0.00  0.00    +0.077 C 
ATOM     15  C   UNL     1      36.436 -25.361 -11.727  0.00  0.00    +0.022 C 
ATOM     16  C   UNL     1      37.560 -23.130 -11.321  0.00  0.00    +0.022 C 
ENDBRANCH   1  14
BRANCH  12  17
ATOM     17  C   UNL     1      34.122 -22.854 -18.878  0.00  0.00    +0.116 C 
BRANCH  17  18
ATOM     18  C   UNL     1      34.293 -21.597 -19.686  0.00  0.00    -0.003 C 
ATOM     19  C   UNL     1      33.173 -20.937 -20.173  0.00  0.00    -0.003 C 
ATOM     20  C   UNL     1      35.571 -21.113 -19.936  0.00  0.00    -0.003 C 
ATOM     21  C   UNL     1      34.611 -19.277 -21.179  0.00  0.00    +0.018 C 
ATOM     22  C   UNL     1      33.332 -19.772 -20.923  0.00  0.00    +0.001 C 
ATOM     23  C   UNL     1      35.730 -19.947 -20.686  0.00  0.00    +0.001 C 
BRANCH  21  25
ATOM     24  N   UNL     1      34.901 -16.938 -21.229  0.00  0.00    -0.244 NA
ATOM     25  C   UNL     1      34.776 -18.068 -21.957  0.00  0.00    +0.081 C 
ATOM     26  C   UNL     1      34.796 -18.111 -23.341  0.00  0.00    +0.019 C 
ATOM     27  C   UNL     1      34.958 -16.912 -24.024  0.00  0.00    +0.003 C 
ATOM     28  C   UNL     1      35.056 -15.791 -21.928  0.00  0.00    +0.099 C 
ATOM     29  C   UNL     1      35.091 -15.725 -23.312  0.00  0.00    +0.021 C 
ENDBRANCH  21  25
ENDBRANCH  17  18
ENDBRANCH  12  17
BRANCH   2  30
ATOM     30  CA  UNL     1      31.309 -24.671 -13.349  0.00  0.00    +0.109 C 
BRANCH  30  31
ATOM     31  C   UNL     1      30.132 -25.641 -13.505  0.00  0.00    +0.023 C 
ATOM     32  C   UNL     1      29.162 -25.220 -14.602  0.00  0.00    +0.002 C 
ENDBRANCH  30  31
BRANCH  30  33
ATOM     33  C   UNL     1      30.884 -23.417 -12.585  0.00  0.00    +0.157 C 
BRANCH  33  34
ATOM     34  O   UNL     1      32.020 -22.845 -11.946  0.00  0.00    -0.380 OA
ATOM     35  H   UNL     1      32.480 -22.259 -12.568  0.00  0.00    +0.211 HD
ENDBRANCH  33  34
ENDBRANCH  30  33
ENDBRANCH   2  30
TORSDOF 8
ENDMDL
MODEL 3
REMARK VINA RESULT:     -10.3      1.690      4.279
REMARK  Name = 10224714
REMARK  8 active torsions:
REMARK  status: ('A' for Active; 'I' for Inactive)
REMARK    1  A    between atoms: N_1  and  C_12
REMARK    2  A    between atoms: N_2  and  CA_30
REMARK    3  A    between atoms: N_15  and  C_17
REMARK    4  A    between atoms: C_17  and  C_18
REMARK    5  A    between atoms: C_21  and  C_25
REMARK    6  A    between atoms: CA_30  and  C_31
REMARK    7  A    between atoms: CA_30  and  C_33
REMARK    8  A    between atoms: C_33  and  O_34
REMARK                            x       y       z     vdW  Elec       q    Type
REMARK                         _______ _______ _______ _____ _____    ______ ____
ROOT
ATOM      1  N   UNL     1      36.349 -23.221 -13.927  0.00  0.00    -0.262 N 
ATOM      2  N   UNL     1      32.181 -23.879 -16.109  0.00  0.00    -0.258 N 
ATOM      3  N   UNL     1      34.139 -23.612 -14.856  0.00  0.00    -0.311 NA
ATOM      4  N   UNL     1      37.432 -22.586 -15.769  0.00  0.00    -0.240 NA
ATOM      5  N   UNL     1      34.095 -23.163 -17.255  0.00  0.00    -0.311 NA
ATOM      6  C   UNL     1      35.431 -23.264 -14.938  0.00  0.00    +0.220 C 
ATOM      7  C   UNL     1      36.123 -22.867 -16.071  0.00  0.00    +0.167 C 
ATOM      8  C   UNL     1      35.406 -22.824 -17.262  0.00  0.00    +0.215 C 
ATOM      9  C   UNL     1      33.519 -23.539 -16.071  0.00  0.00    +0.202 C 
ATOM     10  C   UNL     1      37.534 -22.809 -14.475  0.00  0.00    +0.222 C 
ATOM     11  H   UNL     1      31.713 -23.833 -16.974  0.00  0.00    +0.160 HD
ATOM     12  N   UNL     1      36.028 -22.434 -18.462  0.00  0.00    -0.302 N 
ATOM     13  H   UNL     1      36.982 -22.192 -18.439  0.00  0.00    +0.150 HD
ENDROOT
BRANCH   1  14
ATOM     14  C   UNL     1      36.121 -23.545 -12.539  0.00  0.00    +0.077 C 
ATOM     15  C   UNL     1      35.756 -25.019 -12.348  0.00  0.00    +0.022 C 
ATOM     16  C   UNL     1      37.301 -23.139 -11.655  0.00  0.00    +0.022 C 
ENDBRANCH   1  14
BRANCH  12  17
ATOM     17  C   UNL     1      35.337 -22.372 -19.716  0.00  0.00    +0.116 C 
BRANCH  17  18
ATOM     18  C   UNL     1      35.220 -20.946 -20.182  0.00  0.00    -0.003 C 
ATOM     19  C   UNL     1      36.361 -20.161 -20.279  0.00  0.00    -0.003 C 
ATOM     20  C   UNL     1      33.971 -20.434 -20.508  0.00  0.00    -0.003 C 
ATOM     21  C   UNL     1      35.002 -18.315 -21.042  0.00  0.00    +0.018 C 
ATOM     22  C   UNL     1      36.251 -18.839 -20.710  0.00  0.00    +0.001 C 
ATOM     23  C   UNL     1      33.862 -19.111 -20.941  0.00  0.00    +0.001 C 
BRANCH  21  25
ATOM     24  N   UNL     1      34.970 -16.775 -22.827  0.00  0.00    -0.244 NA
ATOM     25  C   UNL     1      34.890 -16.944 -21.490  0.00  0.00    +0.081 C 
ATOM     26  C   UNL     1      34.716 -15.912 -20.583  0.00  0.00    +0.019 C 
ATOM     27  C   UNL     1      34.615 -14.620 -21.083  0.00  0.00    +0.003 C 
ATOM     28  C   UNL     1      34.868 -15.504 -23.277  0.00  0.00    +0.099 C 
ATOM     29  C   UNL     1      34.692 -14.403 -22.455  0.00  0.00    +0.021 C 
ENDBRANCH  21  25
ENDBRANCH  17  18
ENDBRANCH  12  17
BRANCH   2  30
ATOM     30  CA  UNL     1      31.428 -24.301 -14.943  0.00  0.00    +0.109 C 
BRANCH  30  31
ATOM     31  C   UNL     1      30.103 -24.938 -15.380  0.00  0.00    +0.023 C 
ATOM     32  C   UNL     1      29.333 -25.551 -14.219  0.00  0.00    +0.002 C 
ENDBRANCH  30  31
BRANCH  30  33
ATOM     33  C   UNL     1      31.180 -23.085 -14.052  0.00  0.00    +0.157 C 
BRANCH  33  34
ATOM     34  O   UNL     1      31.967 -23.196 -12.871  0.00  0.00    -0.380 OA
ATOM     35  H   UNL     1      31.479 -22.823 -12.120  0.00  0.00    +0.211 HD
ENDBRANCH  33  34
ENDBRANCH  30  33
ENDBRANCH   2  30
TORSDOF 8
ENDMDL
