MODEL 1
REMARK VINA RESULT:     -11.3      0.000      0.000
REMARK  Name = 8969
REMARK  3 active torsions:
REMARK  status: ('A' for Active; 'I' for Inactive)
REMARK    1  A    between atoms: C_7  and  C_27
REMARK    2  A    between atoms: C_10  and  O_24
REMARK    3  A    between atoms: C_27  and  O_28
REMARK                            x       y       z     vdW  Elec       q    Type
REMARK                         _______ _______ _______ _____ _____    ______ ____
ROOT
ATOM      1  N   UNL     1      34.327 -23.280 -16.078  0.00  0.00    +0.392 N 
ATOM      2  N   UNL     1      33.189 -21.818 -19.330  0.00  0.00    -0.358 N 
ATOM      3  C   UNL     1      31.500 -23.937 -15.685  0.00  0.00    +0.009 C 
ATOM      4  C   UNL     1      32.537 -23.983 -14.541  0.00  0.00    -0.020 C 
ATOM      5  C   UNL     1      31.971 -22.931 -16.752  0.00  0.00    -0.015 C 
ATOM      6  C   UNL     1      33.389 -23.277 -17.235  0.00  0.00    -0.019 C 
ATOM      7  C   UNL     1      30.106 -23.601 -15.121  0.00  0.00    +0.126 C 
ATOM      8  C   UNL     1      33.940 -24.292 -15.087  0.00  0.00    -0.077 C 
ATOM      9  C   UNL     1      32.124 -24.990 -13.461  0.00  0.00    +0.000 C 
ATOM     10  C   UNL     1      29.683 -24.599 -14.029  0.00  0.00    +0.121 C 
ATOM     11  C   UNL     1      30.729 -24.675 -12.915  0.00  0.00    +0.030 C 
ATOM     12  C   UNL     1      33.893 -22.321 -18.273  0.00  0.00    +0.010 A 
ATOM     13  C   UNL     1      35.731 -23.452 -16.508  0.00  0.00    -0.072 C 
ATOM     14  C   UNL     1      35.189 -21.856 -18.355  0.00  0.00    -0.013 A 
ATOM     15  C   UNL     1      36.212 -22.244 -17.346  0.00  0.00    +0.005 C 
ATOM     16  C   UNL     1      35.273 -21.008 -19.492  0.00  0.00    +0.013 A 
ATOM     17  C   UNL     1      34.005 -21.001 -20.085  0.00  0.00    +0.056 A 
ATOM     18  C   UNL     1      36.300 -20.246 -20.082  0.00  0.00    +0.001 C 
ATOM     19  C   UNL     1      33.718 -20.267 -21.242  0.00  0.00    +0.017 C 
ATOM     20  C   UNL     1      36.026 -19.506 -21.238  0.00  0.00    +0.000 C 
ATOM     21  C   UNL     1      34.755 -19.518 -21.807  0.00  0.00    +0.001 C 
ATOM     22  H   UNL     1      34.262 -22.365 -15.631  0.00  0.00    -0.079 HD
ATOM     23  H   UNL     1      32.243 -22.008 -19.524  0.00  0.00    +0.166 HD
ENDROOT
BRANCH  10  24
ATOM     24  O   UNL     1      29.526 -25.899 -14.600  0.00  0.00    -0.384 OA
ATOM     25  H   UNL     1      28.583 -26.119 -14.651  0.00  0.00    +0.210 HD
ENDBRANCH  10  24
BRANCH   7  27
ATOM     26  O   UNL     1      28.791 -24.569 -16.896  0.00  0.00    -0.250 OA
ATOM     27  C   UNL     1      29.064 -23.597 -16.202  0.00  0.00    +0.319 C 
BRANCH  27  28
ATOM     28  O   UNL     1      28.490 -22.363 -16.277  0.00  0.00    -0.444 OA
ATOM     29  C   UNL     1      27.060 -22.351 -16.325  0.00  0.00    +0.256 C 
ENDBRANCH  27  28
ENDBRANCH   7  27
TORSDOF 3
ENDMDL
MODEL 2
REMARK VINA RESULT:      -9.2     11.094     14.552
REMARK  Name = 8969
REMARK  3 active torsions:
REMARK  status: ('A' for Active; 'I' for Inactive)
REMARK    1  A    between atoms: C_7  and  C_27
REMARK    2  A    between atoms: C_10  and  O_24
REMARK    3  A    between atoms: C_27  and  O_28
REMARK                            x       y       z     vdW  Elec       q    Type
REMARK                         _______ _______ _______ _____ _____    ______ ____
ROOT
ATOM      1  N   UNL     1      32.450 -11.058 -20.769  0.00  0.00    +0.392 N 
ATOM      2  N   UNL     1      33.156 -12.892 -23.954  0.00  0.00    -0.358 N 
ATOM      3  C   UNL     1      32.172  -8.707 -22.492  0.00  0.00    +0.009 C 
ATOM      4  C   UNL     1      32.317  -8.607 -20.958  0.00  0.00    -0.020 C 
ATOM      5  C   UNL     1      32.834 -10.009 -22.978  0.00  0.00    -0.015 C 
ATOM      6  C   UNL     1      32.251 -11.224 -22.236  0.00  0.00    -0.019 C 
ATOM      7  C   UNL     1      32.762  -7.450 -23.162  0.00  0.00    +0.126 C 
ATOM      8  C   UNL     1      31.756  -9.863 -20.272  0.00  0.00    -0.077 C 
ATOM      9  C   UNL     1      31.652  -7.334 -20.421  0.00  0.00    +0.000 C 
ATOM     10  C   UNL     1      32.110  -6.165 -22.625  0.00  0.00    +0.121 C 
ATOM     11  C   UNL     1      32.218  -6.085 -21.101  0.00  0.00    +0.030 C 
ATOM     12  C   UNL     1      32.869 -12.517 -22.672  0.00  0.00    +0.010 A 
ATOM     13  C   UNL     1      32.051 -12.268 -20.019  0.00  0.00    -0.072 C 
ATOM     14  C   UNL     1      33.180 -13.567 -21.834  0.00  0.00    -0.013 A 
ATOM     15  C   UNL     1      32.963 -13.468 -20.364  0.00  0.00    +0.005 C 
ATOM     16  C   UNL     1      33.707 -14.617 -22.632  0.00  0.00    +0.013 A 
ATOM     17  C   UNL     1      33.682 -14.168 -23.958  0.00  0.00    +0.056 A 
ATOM     18  C   UNL     1      34.202 -15.908 -22.363  0.00  0.00    +0.001 C 
ATOM     19  C   UNL     1      34.128 -14.953 -25.028  0.00  0.00    +0.017 C 
ATOM     20  C   UNL     1      34.654 -16.702 -23.424  0.00  0.00    +0.000 C 
ATOM     21  C   UNL     1      34.616 -16.230 -24.734  0.00  0.00    +0.001 C 
ATOM     22  H   UNL     1      33.449 -10.926 -20.611  0.00  0.00    -0.079 HD
ATOM     23  H   UNL     1      33.010 -12.338 -24.755  0.00  0.00    +0.166 HD
ENDROOT
BRANCH  10  24
ATOM     24  O   UNL     1      30.728  -6.138 -22.988  0.00  0.00    -0.384 OA
ATOM     25  H   UNL     1      30.622  -5.652 -23.821  0.00  0.00    +0.210 HD
ENDBRANCH  10  24
BRANCH   7  27
ATOM     26  O   UNL     1      31.589  -7.910 -25.217  0.00  0.00    -0.250 OA
ATOM     27  C   UNL     1      32.592  -7.493 -24.653  0.00  0.00    +0.319 C 
BRANCH  27  28
ATOM     28  O   UNL     1      33.712  -7.001 -25.254  0.00  0.00    -0.444 OA
ATOM     29  C   UNL     1      34.954  -7.430 -24.686  0.00  0.00    +0.256 C 
ENDBRANCH  27  28
ENDBRANCH   7  27
TORSDOF 3
ENDMDL
MODEL 3
REMARK VINA RESULT:      -8.9     12.071     15.269
REMARK  Name = 8969
REMARK  3 active torsions:
REMARK  status: ('A' for Active; 'I' for Inactive)
REMARK    1  A    between atoms: C_7  and  C_27
REMARK    2  A    between atoms: C_10  and  O_24
REMARK    3  A    between atoms: C_27  and  O_28
REMARK                            x       y       z     vdW  Elec       q    Type
REMARK                         _______ _______ _______ _____ _____    ______ ____
ROOT
ATOM      1  N   UNL     1      31.857  -8.573 -21.111  0.00  0.00    +0.392 N 
ATOM      2  N   UNL     1      33.126  -7.308 -24.397  0.00  0.00    -0.358 N 
ATOM      3  C   UNL     1      32.790 -11.183 -22.053  0.00  0.00    +0.009 C 
ATOM      4  C   UNL     1      31.843 -11.020 -20.844  0.00  0.00    -0.020 C 
ATOM      5  C   UNL     1      32.612  -9.983 -23.000  0.00  0.00    -0.015 C 
ATOM      6  C   UNL     1      32.819  -8.659 -22.244  0.00  0.00    -0.019 C 
ATOM      7  C   UNL     1      32.534 -12.535 -22.747  0.00  0.00    +0.126 C 
ATOM      8  C   UNL     1      32.067  -9.666 -20.153  0.00  0.00    -0.077 C 
ATOM      9  C   UNL     1      32.000 -12.183 -19.857  0.00  0.00    +0.000 C 
ATOM     10  C   UNL     1      32.679 -13.711 -21.765  0.00  0.00    +0.121 C 
ATOM     11  C   UNL     1      31.770 -13.530 -20.548  0.00  0.00    +0.030 C 
ATOM     12  C   UNL     1      32.650  -7.460 -23.125  0.00  0.00    +0.010 A 
ATOM     13  C   UNL     1      31.906  -7.253 -20.446  0.00  0.00    -0.072 C 
ATOM     14  C   UNL     1      32.040  -6.282 -22.747  0.00  0.00    -0.013 A 
ATOM     15  C   UNL     1      31.432  -6.129 -21.397  0.00  0.00    +0.005 C 
ATOM     16  C   UNL     1      32.117  -5.383 -23.845  0.00  0.00    +0.013 A 
ATOM     17  C   UNL     1      32.802  -6.051 -24.866  0.00  0.00    +0.056 A 
ATOM     18  C   UNL     1      31.677  -4.065 -24.074  0.00  0.00    +0.001 C 
ATOM     19  C   UNL     1      33.068  -5.460 -26.107  0.00  0.00    +0.017 C 
ATOM     20  C   UNL     1      31.934  -3.463 -25.312  0.00  0.00    +0.000 C 
ATOM     21  C   UNL     1      32.619  -4.151 -26.310  0.00  0.00    +0.001 C 
ATOM     22  H   UNL     1      30.919  -8.676 -21.500  0.00  0.00    -0.079 HD
ATOM     23  H   UNL     1      33.623  -7.990 -24.902  0.00  0.00    +0.166 HD
ENDROOT
BRANCH  10  24
ATOM     24  O   UNL     1      34.032 -13.800 -21.317  0.00  0.00    -0.384 OA
ATOM     25  H   UNL     1      34.627 -13.813 -22.083  0.00  0.00    +0.210 HD
ENDBRANCH  10  24
BRANCH   7  27
ATOM     26  O   UNL     1      34.601 -12.273 -23.960  0.00  0.00    -0.250 OA
ATOM     27  C   UNL     1      33.474 -12.748 -23.898  0.00  0.00    +0.319 C 
BRANCH  27  28
ATOM     28  O   UNL     1      32.875 -13.536 -24.836  0.00  0.00    -0.444 OA
ATOM     29  C   UNL     1      33.508 -14.797 -25.074  0.00  0.00    +0.256 C 
ENDBRANCH  27  28
ENDBRANCH   7  27
TORSDOF 3
ENDMDL
MODEL 4
REMARK VINA RESULT:      -8.5     11.539     15.309
REMARK  Name = 8969
REMARK  3 active torsions:
REMARK  status: ('A' for Active; 'I' for Inactive)
REMARK    1  A    between atoms: C_7  and  C_27
REMARK    2  A    between atoms: C_10  and  O_24
REMARK    3  A    between atoms: C_27  and  O_28
REMARK                            x       y       z     vdW  Elec       q    Type
REMARK                         _______ _______ _______ _____ _____    ______ ____
ROOT
ATOM      1  N   UNL     1      32.019  -9.981 -20.689  0.00  0.00    +0.392 N 
ATOM      2  N   UNL     1      33.333 -12.226 -23.380  0.00  0.00    -0.358 N 
ATOM      3  C   UNL     1      32.188  -7.881 -22.722  0.00  0.00    +0.009 C 
ATOM      4  C   UNL     1      32.004  -7.577 -21.219  0.00  0.00    -0.020 C 
ATOM      5  C   UNL     1      32.898  -9.238 -22.880  0.00  0.00    -0.015 C 
ATOM      6  C   UNL     1      32.133 -10.341 -22.130  0.00  0.00    -0.019 C 
ATOM      7  C   UNL     1      32.946  -6.726 -23.406  0.00  0.00    +0.126 C 
ATOM      8  C   UNL     1      31.271  -8.729 -20.514  0.00  0.00    -0.077 C 
ATOM      9  C   UNL     1      31.279  -6.243 -21.009  0.00  0.00    +0.000 C 
ATOM     10  C   UNL     1      32.234  -5.379 -23.195  0.00  0.00    +0.121 C 
ATOM     11  C   UNL     1      32.016  -5.096 -21.707  0.00  0.00    +0.030 C 
ATOM     12  C   UNL     1      32.791 -11.682 -22.250  0.00  0.00    +0.010 A 
ATOM     13  C   UNL     1      31.431 -11.079 -19.893  0.00  0.00    -0.072 C 
ATOM     14  C   UNL     1      32.881 -12.611 -21.235  0.00  0.00    -0.013 A 
ATOM     15  C   UNL     1      32.359 -12.317 -19.873  0.00  0.00    +0.005 C 
ATOM     16  C   UNL     1      33.536 -13.759 -21.757  0.00  0.00    +0.013 A 
ATOM     17  C   UNL     1      33.808 -13.492 -23.103  0.00  0.00    +0.056 A 
ATOM     18  C   UNL     1      33.922 -15.004 -21.222  0.00  0.00    +0.001 C 
ATOM     19  C   UNL     1      34.449 -14.413 -23.940  0.00  0.00    +0.017 C 
ATOM     20  C   UNL     1      34.565 -15.934 -22.048  0.00  0.00    +0.000 C 
ATOM     21  C   UNL     1      34.823 -15.641 -23.385  0.00  0.00    +0.001 C 
ATOM     22  H   UNL     1      32.964  -9.831 -20.337  0.00  0.00    -0.079 HD
ATOM     23  H   UNL     1      33.379 -11.784 -24.258  0.00  0.00    +0.166 HD
ENDROOT
BRANCH  10  24
ATOM     24  O   UNL     1      30.964  -5.399 -23.849  0.00  0.00    -0.384 OA
ATOM     25  H   UNL     1      30.345  -4.823 -23.373  0.00  0.00    +0.210 HD
ENDBRANCH  10  24
BRANCH   7  27
ATOM     26  O   UNL     1      32.209  -7.406 -25.599  0.00  0.00    -0.250 OA
ATOM     27  C   UNL     1      33.098  -6.967 -24.881  0.00  0.00    +0.319 C 
BRANCH  27  28
ATOM     28  O   UNL     1      34.358  -6.624 -25.271  0.00  0.00    -0.444 OA
ATOM     29  C   UNL     1      35.328  -6.547 -24.221  0.00  0.00    +0.256 C 
ENDBRANCH  27  28
ENDBRANCH   7  27
TORSDOF 3
ENDMDL
