MODEL 1
REMARK VINA RESULT:     -12.0      0.000      0.000
REMARK  Name = 24779724
REMARK  3 active torsions:
REMARK  status: ('A' for Active; 'I' for Inactive)
REMARK    1  A    between atoms: C_5  and  C_12
REMARK    2  A    between atoms: C_7  and  S_16
REMARK    3  A    between atoms: S_16  and  C_19
REMARK                            x       y       z     vdW  Elec       q    Type
REMARK                         _______ _______ _______ _____ _____    ______ ____
ROOT
ATOM      1  N   UNL     1      34.537 -21.988 -18.475  0.00  0.00    -0.186 N 
ATOM      2  N   UNL     1      35.561 -22.343 -17.660  0.00  0.00    -0.162 NA
ATOM      3  N   UNL     1      32.529 -21.791 -19.341  0.00  0.00    -0.126 NA
ATOM      4  N   UNL     1      33.414 -21.073 -20.120  0.00  0.00    -0.120 NA
ATOM      5  C   UNL     1      35.201 -23.097 -16.660  0.00  0.00    +0.104 C 
ATOM      6  C   UNL     1      33.212 -22.336 -18.357  0.00  0.00    +0.187 A 
ATOM      7  C   UNL     1      34.609 -21.203 -19.590  0.00  0.00    +0.217 A 
ATOM      8  C   UNL     1      33.799 -23.569 -16.416  0.00  0.00    +0.024 C 
ATOM      9  C   UNL     1      32.855 -23.166 -17.277  0.00  0.00    +0.042 C 
ENDROOT
BRANCH   5  12
ATOM     10  N   UNL     1      37.289 -24.650 -14.128  0.00  0.00    -0.208 N 
ATOM     11  N   UNL     1      38.170 -23.702 -14.491  0.00  0.00    -0.176 NA
ATOM     12  C   UNL     1      36.232 -23.549 -15.692  0.00  0.00    +0.056 C 
ATOM     13  C   UNL     1      36.112 -24.601 -14.816  0.00  0.00    +0.087 C 
ATOM     14  C   UNL     1      37.520 -23.034 -15.447  0.00  0.00    +0.121 C 
ATOM     15  C   UNL     1      37.637 -25.594 -13.093  0.00  0.00    +0.140 C 
ENDBRANCH   5  12
BRANCH   7  16
ATOM     16  S   UNL     1      36.128 -20.482 -20.192  0.00  0.00    -0.051 S 
BRANCH  16  19
ATOM     17  N   UNL     1      34.117 -17.155 -24.696  0.00  0.00    -0.248 NA
ATOM     18  C   UNL     1      34.999 -17.295 -22.457  0.00  0.00    -0.003 C 
ATOM     19  C   UNL     1      35.528 -19.476 -21.535  0.00  0.00    +0.011 C 
ATOM     20  C   UNL     1      34.576 -17.889 -23.665  0.00  0.00    +0.060 C 
ATOM     21  C   UNL     1      35.472 -18.092 -21.402  0.00  0.00    +0.060 C 
ATOM     22  C   UNL     1      35.113 -20.068 -22.720  0.00  0.00    -0.017 C 
ATOM     23  C   UNL     1      34.642 -19.276 -23.770  0.00  0.00    +0.072 C 
ATOM     24  C   UNL     1      34.932 -15.900 -22.351  0.00  0.00    -0.001 C 
ATOM     25  C   UNL     1      34.460 -15.140 -23.412  0.00  0.00    +0.020 C 
ATOM     26  C   UNL     1      34.069 -15.812 -24.552  0.00  0.00    +0.098 C 
ENDBRANCH  16  19
ENDBRANCH   7  16
TORSDOF 3
ENDMDL
MODEL 2
REMARK VINA RESULT:     -11.1      1.003      1.646
REMARK  Name = 24779724
REMARK  3 active torsions:
REMARK  status: ('A' for Active; 'I' for Inactive)
REMARK    1  A    between atoms: C_5  and  C_12
REMARK    2  A    between atoms: C_7  and  S_16
REMARK    3  A    between atoms: S_16  and  C_19
REMARK                            x       y       z     vdW  Elec       q    Type
REMARK                         _______ _______ _______ _____ _____    ______ ____
ROOT
ATOM      1  N   UNL     1      34.515 -22.460 -17.971  0.00  0.00    -0.186 N 
ATOM      2  N   UNL     1      35.480 -22.857 -17.104  0.00  0.00    -0.162 NA
ATOM      3  N   UNL     1      32.555 -22.110 -18.898  0.00  0.00    -0.126 NA
ATOM      4  N   UNL     1      33.528 -21.572 -19.715  0.00  0.00    -0.120 NA
ATOM      5  C   UNL     1      35.020 -23.472 -16.052  0.00  0.00    +0.104 C 
ATOM      6  C   UNL     1      33.157 -22.640 -17.854  0.00  0.00    +0.187 A 
ATOM      7  C   UNL     1      34.693 -21.791 -19.148  0.00  0.00    +0.217 A 
ATOM      8  C   UNL     1      33.569 -23.754 -15.800  0.00  0.00    +0.024 C 
ATOM      9  C   UNL     1      32.690 -23.323 -16.714  0.00  0.00    +0.042 C 
ENDROOT
BRANCH   5  12
ATOM     10  N   UNL     1      36.958 -25.143 -13.475  0.00  0.00    -0.208 N 
ATOM     11  N   UNL     1      37.781 -24.092 -13.627  0.00  0.00    -0.176 NA
ATOM     12  C   UNL     1      35.978 -23.952 -15.023  0.00  0.00    +0.056 C 
ATOM     13  C   UNL     1      35.863 -25.107 -14.288  0.00  0.00    +0.087 C 
ATOM     14  C   UNL     1      37.179 -23.368 -14.574  0.00  0.00    +0.121 C 
ATOM     15  C   UNL     1      37.279 -26.173 -12.516  0.00  0.00    +0.140 C 
ENDBRANCH   5  12
BRANCH   7  16
ATOM     16  S   UNL     1      36.294 -21.307 -19.775  0.00  0.00    -0.051 S 
BRANCH  16  19
ATOM     17  N   UNL     1      34.848 -16.759 -23.325  0.00  0.00    -0.248 NA
ATOM     18  C   UNL     1      34.760 -19.118 -22.843  0.00  0.00    -0.003 C 
ATOM     19  C   UNL     1      35.855 -19.953 -20.844  0.00  0.00    +0.011 C 
ATOM     20  C   UNL     1      35.164 -17.802 -22.536  0.00  0.00    +0.060 C 
ATOM     21  C   UNL     1      35.108 -20.183 -21.996  0.00  0.00    +0.060 C 
ATOM     22  C   UNL     1      36.256 -18.659 -20.536  0.00  0.00    -0.017 C 
ATOM     23  C   UNL     1      35.910 -17.600 -21.377  0.00  0.00    +0.072 C 
ATOM     24  C   UNL     1      34.009 -19.321 -24.009  0.00  0.00    -0.001 C 
ATOM     25  C   UNL     1      33.682 -18.248 -24.825  0.00  0.00    +0.020 C 
ATOM     26  C   UNL     1      34.122 -16.998 -24.441  0.00  0.00    +0.098 C 
ENDBRANCH  16  19
ENDBRANCH   7  16
TORSDOF 3
ENDMDL
MODEL 3
REMARK VINA RESULT:     -11.1      2.769      3.947
REMARK  Name = 24779724
REMARK  3 active torsions:
REMARK  status: ('A' for Active; 'I' for Inactive)
REMARK    1  A    between atoms: C_5  and  C_12
REMARK    2  A    between atoms: C_7  and  S_16
REMARK    3  A    between atoms: S_16  and  C_19
REMARK                            x       y       z     vdW  Elec       q    Type
REMARK                         _______ _______ _______ _____ _____    ______ ____
ROOT
ATOM      1  N   UNL     1      32.845 -23.649 -15.655  0.00  0.00    -0.186 N 
ATOM      2  N   UNL     1      33.917 -24.163 -15.002  0.00  0.00    -0.162 NA
ATOM      3  N   UNL     1      30.883 -22.753 -16.068  0.00  0.00    -0.126 NA
ATOM      4  N   UNL     1      31.532 -22.959 -17.268  0.00  0.00    -0.120 NA
ATOM      5  C   UNL     1      33.783 -24.181 -13.705  0.00  0.00    +0.104 C 
ATOM      6  C   UNL     1      31.679 -23.170 -15.106  0.00  0.00    +0.187 A 
ATOM      7  C   UNL     1      32.701 -23.496 -17.004  0.00  0.00    +0.217 A 
ATOM      8  C   UNL     1      32.564 -23.710 -12.972  0.00  0.00    +0.024 C 
ATOM      9  C   UNL     1      31.556 -23.218 -13.703  0.00  0.00    +0.042 C 
ENDROOT
BRANCH   5  12
ATOM     10  N   UNL     1      36.790 -25.595 -12.240  0.00  0.00    -0.208 N 
ATOM     11  N   UNL     1      36.149 -25.365 -11.081  0.00  0.00    -0.176 NA
ATOM     12  C   UNL     1      34.893 -24.716 -12.875  0.00  0.00    +0.056 C 
ATOM     13  C   UNL     1      36.080 -25.224 -13.344  0.00  0.00    +0.087 C 
ATOM     14  C   UNL     1      34.992 -24.828 -11.475  0.00  0.00    +0.121 C 
ATOM     15  C   UNL     1      38.107 -26.184 -12.226  0.00  0.00    +0.140 C 
ENDBRANCH   5  12
BRANCH   7  16
ATOM     16  S   UNL     1      33.951 -23.970 -18.189  0.00  0.00    -0.051 S 
BRANCH  16  19
ATOM     17  N   UNL     1      34.737 -18.856 -21.124  0.00  0.00    -0.248 NA
ATOM     18  C   UNL     1      35.684 -20.748 -19.970  0.00  0.00    -0.003 C 
ATOM     19  C   UNL     1      34.197 -22.441 -19.067  0.00  0.00    +0.011 C 
ATOM     20  C   UNL     1      34.581 -20.016 -20.458  0.00  0.00    +0.060 C 
ATOM     21  C   UNL     1      35.484 -21.954 -19.279  0.00  0.00    +0.060 C 
ATOM     22  C   UNL     1      33.107 -21.724 -19.544  0.00  0.00    -0.017 C 
ATOM     23  C   UNL     1      33.305 -20.525 -20.232  0.00  0.00    +0.072 C 
ATOM     24  C   UNL     1      36.968 -20.235 -20.198  0.00  0.00    -0.001 C 
ATOM     25  C   UNL     1      37.132 -19.041 -20.884  0.00  0.00    +0.020 C 
ATOM     26  C   UNL     1      35.993 -18.396 -21.322  0.00  0.00    +0.098 C 
ENDBRANCH  16  19
ENDBRANCH   7  16
TORSDOF 3
ENDMDL
MODEL 4
REMARK VINA RESULT:     -11.1      2.718      3.975
REMARK  Name = 24779724
REMARK  3 active torsions:
REMARK  status: ('A' for Active; 'I' for Inactive)
REMARK    1  A    between atoms: C_5  and  C_12
REMARK    2  A    between atoms: C_7  and  S_16
REMARK    3  A    between atoms: S_16  and  C_19
REMARK                            x       y       z     vdW  Elec       q    Type
REMARK                         _______ _______ _______ _____ _____    ______ ____
ROOT
ATOM      1  N   UNL     1      33.917 -24.034 -15.757  0.00  0.00    -0.186 N 
ATOM      2  N   UNL     1      35.069 -24.748 -15.742  0.00  0.00    -0.162 NA
ATOM      3  N   UNL     1      32.170 -22.874 -15.104  0.00  0.00    -0.126 NA
ATOM      4  N   UNL     1      32.128 -22.994 -16.479  0.00  0.00    -0.120 NA
ATOM      5  C   UNL     1      35.566 -24.921 -14.550  0.00  0.00    +0.104 C 
ATOM      6  C   UNL     1      33.247 -23.501 -14.681  0.00  0.00    +0.187 A 
ATOM      7  C   UNL     1      33.177 -23.690 -16.852  0.00  0.00    +0.217 A 
ATOM      8  C   UNL     1      34.936 -24.414 -13.287  0.00  0.00    +0.024 C 
ATOM      9  C   UNL     1      33.798 -23.719 -13.403  0.00  0.00    +0.042 C 
ENDROOT
BRANCH   5  12
ATOM     10  N   UNL     1      38.937 -26.206 -14.135  0.00  0.00    -0.208 N 
ATOM     11  N   UNL     1      38.332 -27.400 -14.249  0.00  0.00    -0.176 NA
ATOM     12  C   UNL     1      36.832 -25.684 -14.401  0.00  0.00    +0.056 C 
ATOM     13  C   UNL     1      38.083 -25.145 -14.220  0.00  0.00    +0.087 C 
ATOM     14  C   UNL     1      37.047 -27.075 -14.410  0.00  0.00    +0.121 C 
ATOM     15  C   UNL     1      40.366 -26.141 -13.943  0.00  0.00    +0.140 C 
ENDBRANCH   5  12
BRANCH   7  16
ATOM     16  S   UNL     1      33.618 -24.145 -18.522  0.00  0.00    -0.051 S 
BRANCH  16  19
ATOM     17  N   UNL     1      34.753 -18.815 -20.908  0.00  0.00    -0.248 NA
ATOM     18  C   UNL     1      35.568 -20.878 -19.966  0.00  0.00    -0.003 C 
ATOM     19  C   UNL     1      33.969 -22.552 -19.236  0.00  0.00    +0.011 C 
ATOM     20  C   UNL     1      34.518 -20.025 -20.367  0.00  0.00    +0.060 C 
ATOM     21  C   UNL     1      35.286 -22.134 -19.404  0.00  0.00    +0.060 C 
ATOM     22  C   UNL     1      32.930 -21.716 -19.627  0.00  0.00    -0.017 C 
ATOM     23  C   UNL     1      33.210 -20.467 -20.186  0.00  0.00    +0.072 C 
ATOM     24  C   UNL     1      36.884 -20.433 -20.148  0.00  0.00    -0.001 C 
ATOM     25  C   UNL     1      37.130 -19.187 -20.706  0.00  0.00    +0.020 C 
ATOM     26  C   UNL     1      36.038 -18.423 -21.066  0.00  0.00    +0.098 C 
ENDBRANCH  16  19
ENDBRANCH   7  16
TORSDOF 3
ENDMDL
MODEL 5
REMARK VINA RESULT:     -10.9      2.298      9.351
REMARK  Name = 24779724
REMARK  3 active torsions:
REMARK  status: ('A' for Active; 'I' for Inactive)
REMARK    1  A    between atoms: C_5  and  C_12
REMARK    2  A    between atoms: C_7  and  S_16
REMARK    3  A    between atoms: S_16  and  C_19
REMARK                            x       y       z     vdW  Elec       q    Type
REMARK                         _______ _______ _______ _____ _____    ______ ____
ROOT
ATOM      1  N   UNL     1      35.325 -20.393 -20.340  0.00  0.00    -0.186 N 
ATOM      2  N   UNL     1      34.629 -19.804 -21.344  0.00  0.00    -0.162 NA
ATOM      3  N   UNL     1      36.947 -20.947 -18.967  0.00  0.00    -0.126 NA
ATOM      4  N   UNL     1      35.815 -21.653 -18.615  0.00  0.00    -0.120 NA
ATOM      5  C   UNL     1      35.330 -18.955 -22.042  0.00  0.00    +0.104 C 
ATOM      6  C   UNL     1      36.643 -20.194 -20.003  0.00  0.00    +0.187 A 
ATOM      7  C   UNL     1      34.856 -21.312 -19.445  0.00  0.00    +0.217 A 
ATOM      8  C   UNL     1      36.779 -18.651 -21.801  0.00  0.00    +0.024 C 
ATOM      9  C   UNL     1      37.380 -19.283 -20.785  0.00  0.00    +0.042 C 
ENDROOT
BRANCH   5  12
ATOM     10  N   UNL     1      33.974 -16.673 -24.519  0.00  0.00    -0.208 N 
ATOM     11  N   UNL     1      33.495 -17.800 -25.072  0.00  0.00    -0.176 NA
ATOM     12  C   UNL     1      34.679 -18.239 -23.169  0.00  0.00    +0.056 C 
ATOM     13  C   UNL     1      34.690 -16.881 -23.376  0.00  0.00    +0.087 C 
ATOM     14  C   UNL     1      33.929 -18.753 -24.244  0.00  0.00    +0.121 C 
ATOM     15  C   UNL     1      33.708 -15.399 -25.142  0.00  0.00    +0.140 C 
ENDBRANCH   5  12
BRANCH   7  16
ATOM     16  S   UNL     1      33.178 -21.923 -19.447  0.00  0.00    -0.051 S 
BRANCH  16  19
ATOM     17  N   UNL     1      32.872 -24.407 -14.051  0.00  0.00    -0.248 NA
ATOM     18  C   UNL     1      31.768 -23.312 -15.891  0.00  0.00    -0.003 C 
ATOM     19  C   UNL     1      33.075 -22.665 -17.832  0.00  0.00    +0.011 C 
ATOM     20  C   UNL     1      32.919 -23.842 -15.271  0.00  0.00    +0.060 C 
ATOM     21  C   UNL     1      31.854 -22.728 -17.166  0.00  0.00    +0.060 C 
ATOM     22  C   UNL     1      34.213 -23.185 -17.227  0.00  0.00    -0.017 C 
ATOM     23  C   UNL     1      34.128 -23.765 -15.959  0.00  0.00    +0.072 C 
ATOM     24  C   UNL     1      30.553 -23.388 -15.199  0.00  0.00    -0.001 C 
ATOM     25  C   UNL     1      30.500 -23.971 -13.941  0.00  0.00    +0.020 C 
ATOM     26  C   UNL     1      31.679 -24.461 -13.416  0.00  0.00    +0.098 C 
ENDBRANCH  16  19
ENDBRANCH   7  16
TORSDOF 3
ENDMDL
MODEL 6
REMARK VINA RESULT:     -10.9      1.156      1.730
REMARK  Name = 24779724
REMARK  3 active torsions:
REMARK  status: ('A' for Active; 'I' for Inactive)
REMARK    1  A    between atoms: C_5  and  C_12
REMARK    2  A    between atoms: C_7  and  S_16
REMARK    3  A    between atoms: S_16  and  C_19
REMARK                            x       y       z     vdW  Elec       q    Type
REMARK                         _______ _______ _______ _____ _____    ______ ____
ROOT
ATOM      1  N   UNL     1      34.548 -21.367 -19.176  0.00  0.00    -0.186 N 
ATOM      2  N   UNL     1      35.569 -21.709 -18.351  0.00  0.00    -0.162 NA
ATOM      3  N   UNL     1      32.551 -21.219 -20.077  0.00  0.00    -0.126 NA
ATOM      4  N   UNL     1      33.424 -20.446 -20.817  0.00  0.00    -0.120 NA
ATOM      5  C   UNL     1      35.217 -22.506 -17.381  0.00  0.00    +0.104 C 
ATOM      6  C   UNL     1      33.235 -21.767 -19.096  0.00  0.00    +0.187 A 
ATOM      7  C   UNL     1      34.612 -20.548 -20.266  0.00  0.00    +0.217 A 
ATOM      8  C   UNL     1      33.829 -23.035 -17.180  0.00  0.00    +0.024 C 
ATOM      9  C   UNL     1      32.888 -22.642 -18.047  0.00  0.00    +0.042 C 
ENDROOT
BRANCH   5  12
ATOM     10  N   UNL     1      37.268 -23.976 -14.771  0.00  0.00    -0.208 N 
ATOM     11  N   UNL     1      38.211 -23.153 -15.259  0.00  0.00    -0.176 NA
ATOM     12  C   UNL     1      36.245 -22.948 -16.405  0.00  0.00    +0.056 C 
ATOM     13  C   UNL     1      36.072 -23.892 -15.422  0.00  0.00    +0.087 C 
ATOM     14  C   UNL     1      37.581 -22.528 -16.257  0.00  0.00    +0.121 C 
ATOM     15  C   UNL     1      37.577 -24.838 -13.655  0.00  0.00    +0.140 C 
ENDBRANCH   5  12
BRANCH   7  16
ATOM     16  S   UNL     1      36.115 -19.754 -20.816  0.00  0.00    -0.051 S 
BRANCH  16  19
ATOM     17  N   UNL     1      34.013 -14.592 -22.894  0.00  0.00    -0.248 NA
ATOM     18  C   UNL     1      34.685 -16.869 -23.304  0.00  0.00    -0.003 C 
ATOM     19  C   UNL     1      35.484 -18.213 -21.448  0.00  0.00    +0.011 C 
ATOM     20  C   UNL     1      34.487 -15.768 -22.445  0.00  0.00    +0.060 C 
ATOM     21  C   UNL     1      35.182 -18.082 -22.801  0.00  0.00    +0.060 C 
ATOM     22  C   UNL     1      35.292 -17.133 -20.596  0.00  0.00    -0.017 C 
ATOM     23  C   UNL     1      34.798 -15.927 -21.096  0.00  0.00    +0.072 C 
ATOM     24  C   UNL     1      34.372 -16.710 -24.661  0.00  0.00    -0.001 C 
ATOM     25  C   UNL     1      33.883 -15.498 -25.128  0.00  0.00    +0.020 C 
ATOM     26  C   UNL     1      33.723 -14.480 -24.211  0.00  0.00    +0.098 C 
ENDBRANCH  16  19
ENDBRANCH   7  16
TORSDOF 3
ENDMDL
MODEL 7
REMARK VINA RESULT:     -10.6      6.217     12.750
REMARK  Name = 24779724
REMARK  3 active torsions:
REMARK  status: ('A' for Active; 'I' for Inactive)
REMARK    1  A    between atoms: C_5  and  C_12
REMARK    2  A    between atoms: C_7  and  S_16
REMARK    3  A    between atoms: S_16  and  C_19
REMARK                            x       y       z     vdW  Elec       q    Type
REMARK                         _______ _______ _______ _____ _____    ______ ____
ROOT
ATOM      1  N   UNL     1      32.649 -10.968 -22.512  0.00  0.00    -0.186 N 
ATOM      2  N   UNL     1      33.355 -10.037 -23.199  0.00  0.00    -0.162 NA
ATOM      3  N   UNL     1      31.249 -11.911 -21.106  0.00  0.00    -0.126 NA
ATOM      4  N   UNL     1      31.882 -12.904 -21.826  0.00  0.00    -0.120 NA
ATOM      5  C   UNL     1      33.082  -8.810 -22.855  0.00  0.00    +0.104 C 
ATOM      6  C   UNL     1      31.716 -10.754 -21.525  0.00  0.00    +0.187 A 
ATOM      7  C   UNL     1      32.716 -12.324 -22.660  0.00  0.00    +0.217 A 
ATOM      8  C   UNL     1      32.103  -8.427 -21.785  0.00  0.00    +0.024 C 
ATOM      9  C   UNL     1      31.454  -9.418 -21.161  0.00  0.00    +0.042 C 
ENDROOT
BRANCH   5  12
ATOM     10  N   UNL     1      34.231  -5.960 -24.790  0.00  0.00    -0.208 N 
ATOM     11  N   UNL     1      35.417  -6.253 -24.232  0.00  0.00    -0.176 NA
ATOM     12  C   UNL     1      33.787  -7.696 -23.540  0.00  0.00    +0.056 C 
ATOM     13  C   UNL     1      33.221  -6.796 -24.409  0.00  0.00    +0.087 C 
ATOM     14  C   UNL     1      35.140  -7.314 -23.469  0.00  0.00    +0.121 C 
ATOM     15  C   UNL     1      34.122  -4.846 -25.701  0.00  0.00    +0.140 C 
ENDBRANCH   5  12
BRANCH   7  16
ATOM     16  S   UNL     1      33.793 -13.136 -23.831  0.00  0.00    -0.051 S 
BRANCH  16  19
ATOM     17  N   UNL     1      35.346 -17.991 -20.764  0.00  0.00    -0.248 NA
ATOM     18  C   UNL     1      34.814 -16.958 -22.875  0.00  0.00    -0.003 C 
ATOM     19  C   UNL     1      34.259 -14.595 -22.922  0.00  0.00    +0.011 C 
ATOM     20  C   UNL     1      34.996 -16.904 -21.477  0.00  0.00    +0.060 C 
ATOM     21  C   UNL     1      34.447 -15.804 -23.587  0.00  0.00    +0.060 C 
ATOM     22  C   UNL     1      34.435 -14.536 -21.546  0.00  0.00    -0.017 C 
ATOM     23  C   UNL     1      34.800 -15.683 -20.837  0.00  0.00    +0.072 C 
ATOM     24  C   UNL     1      35.011 -18.187 -23.518  0.00  0.00    -0.001 C 
ATOM     25  C   UNL     1      35.373 -19.308 -22.787  0.00  0.00    +0.020 C 
ATOM     26  C   UNL     1      35.527 -19.158 -21.423  0.00  0.00    +0.098 C 
ENDBRANCH  16  19
ENDBRANCH   7  16
TORSDOF 3
ENDMDL
MODEL 8
REMARK VINA RESULT:     -10.6      5.894     12.169
REMARK  Name = 24779724
REMARK  3 active torsions:
REMARK  status: ('A' for Active; 'I' for Inactive)
REMARK    1  A    between atoms: C_5  and  C_12
REMARK    2  A    between atoms: C_7  and  S_16
REMARK    3  A    between atoms: S_16  and  C_19
REMARK                            x       y       z     vdW  Elec       q    Type
REMARK                         _______ _______ _______ _____ _____    ______ ____
ROOT
ATOM      1  N   UNL     1      32.435 -11.890 -22.036  0.00  0.00    -0.186 N 
ATOM      2  N   UNL     1      32.453 -10.765 -22.792  0.00  0.00    -0.162 NA
ATOM      3  N   UNL     1      32.048 -13.298 -20.395  0.00  0.00    -0.126 NA
ATOM      4  N   UNL     1      32.770 -13.953 -21.373  0.00  0.00    -0.120 NA
ATOM      5  C   UNL     1      31.830  -9.757 -22.250  0.00  0.00    +0.104 C 
ATOM      6  C   UNL     1      31.852 -12.062 -20.802  0.00  0.00    +0.187 A 
ATOM      7  C   UNL     1      32.993 -13.097 -22.345  0.00  0.00    +0.217 A 
ATOM      8  C   UNL     1      31.166  -9.793 -20.906  0.00  0.00    +0.024 C 
ATOM      9  C   UNL     1      31.201 -10.950 -20.232  0.00  0.00    +0.042 C 
ENDROOT
BRANCH   5  12
ATOM     10  N   UNL     1      31.596  -6.342 -23.464  0.00  0.00    -0.208 N 
ATOM     11  N   UNL     1      31.799  -6.916 -24.662  0.00  0.00    -0.176 NA
ATOM     12  C   UNL     1      31.774  -8.467 -22.984  0.00  0.00    +0.056 C 
ATOM     13  C   UNL     1      31.572  -7.228 -22.426  0.00  0.00    +0.087 C 
ATOM     14  C   UNL     1      31.907  -8.213 -24.363  0.00  0.00    +0.121 C 
ATOM     15  C   UNL     1      31.427  -4.912 -23.373  0.00  0.00    +0.140 C 
ENDBRANCH   5  12
BRANCH   7  16
ATOM     16  S   UNL     1      33.883 -13.412 -23.861  0.00  0.00    -0.051 S 
BRANCH  16  19
ATOM     17  N   UNL     1      34.731 -19.291 -23.542  0.00  0.00    -0.248 NA
ATOM     18  C   UNL     1      34.947 -17.111 -22.540  0.00  0.00    -0.003 C 
ATOM     19  C   UNL     1      34.141 -15.171 -23.755  0.00  0.00    +0.011 C 
ATOM     20  C   UNL     1      34.548 -17.959 -23.594  0.00  0.00    +0.060 C 
ATOM     21  C   UNL     1      34.741 -15.724 -22.627  0.00  0.00    +0.060 C 
ATOM     22  C   UNL     1      33.746 -16.000 -24.797  0.00  0.00    -0.017 C 
ATOM     23  C   UNL     1      33.951 -17.379 -24.710  0.00  0.00    +0.072 C 
ATOM     24  C   UNL     1      35.548 -17.695 -21.416  0.00  0.00    -0.001 C 
ATOM     25  C   UNL     1      35.738 -19.068 -21.360  0.00  0.00    +0.020 C 
ATOM     26  C   UNL     1      35.315 -19.815 -22.440  0.00  0.00    +0.098 C 
ENDBRANCH  16  19
ENDBRANCH   7  16
TORSDOF 3
ENDMDL
MODEL 9
REMARK VINA RESULT:     -10.5      3.327      6.282
REMARK  Name = 24779724
REMARK  3 active torsions:
REMARK  status: ('A' for Active; 'I' for Inactive)
REMARK    1  A    between atoms: C_5  and  C_12
REMARK    2  A    between atoms: C_7  and  S_16
REMARK    3  A    between atoms: S_16  and  C_19
REMARK                            x       y       z     vdW  Elec       q    Type
REMARK                         _______ _______ _______ _____ _____    ______ ____
ROOT
ATOM      1  N   UNL     1      34.812 -17.561 -22.036  0.00  0.00    -0.186 N 
ATOM      2  N   UNL     1      34.832 -18.414 -20.982  0.00  0.00    -0.162 NA
ATOM      3  N   UNL     1      34.796 -16.773 -24.087  0.00  0.00    -0.126 NA
ATOM      4  N   UNL     1      34.754 -15.710 -23.209  0.00  0.00    -0.120 NA
ATOM      5  C   UNL     1      34.869 -19.671 -21.324  0.00  0.00    +0.104 C 
ATOM      6  C   UNL     1      34.831 -17.880 -23.374  0.00  0.00    +0.187 A 
ATOM      7  C   UNL     1      34.765 -16.197 -21.989  0.00  0.00    +0.217 A 
ATOM      8  C   UNL     1      34.912 -20.164 -22.739  0.00  0.00    +0.024 C 
ATOM      9  C   UNL     1      34.888 -19.246 -23.713  0.00  0.00    +0.042 C 
ENDROOT
BRANCH   5  12
ATOM     10  N   UNL     1      34.276 -22.170 -18.757  0.00  0.00    -0.208 N 
ATOM     11  N   UNL     1      35.618 -22.209 -18.700  0.00  0.00    -0.176 NA
ATOM     12  C   UNL     1      34.889 -20.706 -20.258  0.00  0.00    +0.056 C 
ATOM     13  C   UNL     1      33.789 -21.285 -19.674  0.00  0.00    +0.087 C 
ATOM     14  C   UNL     1      35.987 -21.314 -19.619  0.00  0.00    +0.121 C 
ATOM     15  C   UNL     1      33.496 -23.020 -17.890  0.00  0.00    +0.140 C 
ENDBRANCH   5  12
BRANCH   7  16
ATOM     16  S   UNL     1      34.725 -15.264 -20.466  0.00  0.00    -0.051 S 
BRANCH  16  19
ATOM     17  N   UNL     1      30.886 -10.931 -21.832  0.00  0.00    -0.248 NA
ATOM     18  C   UNL     1      32.998 -12.025 -22.220  0.00  0.00    -0.003 C 
ATOM     19  C   UNL     1      33.582 -13.964 -20.883  0.00  0.00    +0.011 C 
ATOM     20  C   UNL     1      31.768 -11.904 -21.539  0.00  0.00    +0.060 C 
ATOM     21  C   UNL     1      33.895 -13.053 -21.888  0.00  0.00    +0.060 C 
ATOM     22  C   UNL     1      32.374 -13.851 -20.208  0.00  0.00    -0.017 C 
ATOM     23  C   UNL     1      31.481 -12.829 -20.538  0.00  0.00    +0.072 C 
ATOM     24  C   UNL     1      33.287 -11.094 -23.227  0.00  0.00    -0.001 C 
ATOM     25  C   UNL     1      32.379 -10.090 -23.532  0.00  0.00    +0.020 C 
ATOM     26  C   UNL     1      31.203 -10.053 -22.811  0.00  0.00    +0.098 C 
ENDBRANCH  16  19
ENDBRANCH   7  16
TORSDOF 3
ENDMDL
