MODEL 1
REMARK VINA RESULT:     -12.1      0.000      0.000
REMARK  Name = 24771824
REMARK  4 active torsions:
REMARK  status: ('A' for Active; 'I' for Inactive)
REMARK    1  A    between atoms: C_11  and  C_18
REMARK    2  A    between atoms: C_21  and  O_24
REMARK    3  A    between atoms: O_24  and  C_26
REMARK    4  A    between atoms: C_28  and  C_34
REMARK                            x       y       z     vdW  Elec       q    Type
REMARK                         _______ _______ _______ _____ _____    ______ ____
ROOT
ATOM      1  O   UNL     1      33.657 -23.661 -16.521  0.00  0.00    -0.252 OA
ATOM      2  N   UNL     1      33.716 -22.014 -18.145  0.00  0.00    -0.263 N 
ATOM      3  N   UNL     1      31.657 -22.732 -17.239  0.00  0.00    -0.252 N 
ATOM      4  N   UNL     1      31.184 -24.351 -15.554  0.00  0.00    -0.133 NA
ATOM      5  N   UNL     1      30.294 -25.025 -14.777  0.00  0.00    -0.145 NA
ATOM      6  C   UNL     1      35.678 -22.236 -19.648  0.00  0.00    +0.044 C 
ATOM      7  C   UNL     1      33.556 -21.133 -20.467  0.00  0.00    +0.044 C 
ATOM      8  C   UNL     1      35.183 -22.057 -18.214  0.00  0.00    +0.099 C 
ATOM      9  C   UNL     1      33.082 -21.004 -19.015  0.00  0.00    +0.099 C 
ATOM     10  C   UNL     1      35.058 -21.195 -20.540  0.00  0.00    -0.041 C 
ATOM     11  C   UNL     1      35.782 -20.376 -21.316  0.00  0.00    -0.008 C 
ATOM     12  C   UNL     1      33.044 -22.874 -17.248  0.00  0.00    +0.309 C 
ATOM     13  C   UNL     1      30.727 -23.431 -16.431  0.00  0.00    +0.157 C 
ATOM     14  C   UNL     1      29.386 -23.138 -16.580  0.00  0.00    +0.038 C 
ATOM     15  C   UNL     1      28.481 -23.824 -15.789  0.00  0.00    +0.025 C 
ATOM     16  C   UNL     1      28.977 -24.759 -14.902  0.00  0.00    +0.122 C 
ATOM     17  H   UNL     1      31.282 -22.070 -17.865  0.00  0.00    +0.158 HD
ENDROOT
BRANCH  11  18
ATOM     18  C   UNL     1      35.242 -19.339 -22.209  0.00  0.00    +0.002 C 
ATOM     19  C   UNL     1      35.659 -18.015 -22.071  0.00  0.00    +0.038 C 
ATOM     20  C   UNL     1      34.314 -19.679 -23.193  0.00  0.00    +0.000 C 
ATOM     21  C   UNL     1      35.148 -17.032 -22.919  0.00  0.00    +0.147 C 
ATOM     22  C   UNL     1      33.803 -18.697 -24.040  0.00  0.00    +0.003 C 
ATOM     23  C   UNL     1      34.221 -17.372 -23.903  0.00  0.00    +0.038 C 
BRANCH  21  24
ATOM     24  O   UNL     1      35.555 -15.740 -22.785  0.00  0.00    -0.436 OA
BRANCH  24  26
ATOM     25  N   UNL     1      34.199 -13.877 -23.151  0.00  0.00    -0.210 NA
ATOM     26  C   UNL     1      34.640 -14.824 -22.293  0.00  0.00    +0.230 C 
ATOM     27  C   UNL     1      34.232 -14.926 -20.973  0.00  0.00    +0.058 C 
ATOM     28  C   UNL     1      32.834 -13.006 -21.356  0.00  0.00    +0.091 C 
ATOM     29  C   UNL     1      33.312 -13.995 -20.503  0.00  0.00    +0.010 C 
ATOM     30  C   UNL     1      33.306 -12.990 -22.659  0.00  0.00    +0.106 C 
BRANCH  28  34
ATOM     31  F   UNL     1      32.124 -10.722 -21.302  0.00  0.00    -0.166 F 
ATOM     32  F   UNL     1      30.571 -12.236 -21.293  0.00  0.00    -0.166 F 
ATOM     33  F   UNL     1      31.787 -11.920 -19.519  0.00  0.00    -0.166 F 
ATOM     34  C   UNL     1      31.852 -11.995 -20.882  0.00  0.00    +0.420 C 
ENDBRANCH  28  34
ENDBRANCH  24  26
ENDBRANCH  21  24
ENDBRANCH  11  18
TORSDOF 4
ENDMDL
MODEL 2
REMARK VINA RESULT:     -11.7      4.704     10.514
REMARK  Name = 24771824
REMARK  4 active torsions:
REMARK  status: ('A' for Active; 'I' for Inactive)
REMARK    1  A    between atoms: C_11  and  C_18
REMARK    2  A    between atoms: C_21  and  O_24
REMARK    3  A    between atoms: O_24  and  C_26
REMARK    4  A    between atoms: C_28  and  C_34
REMARK                            x       y       z     vdW  Elec       q    Type
REMARK                         _______ _______ _______ _____ _____    ______ ____
ROOT
ATOM      1  O   UNL     1      32.624 -12.013 -23.218  0.00  0.00    -0.252 OA
ATOM      2  N   UNL     1      33.220 -14.079 -22.366  0.00  0.00    -0.263 N 
ATOM      3  N   UNL     1      32.637 -12.308 -20.918  0.00  0.00    -0.252 N 
ATOM      4  N   UNL     1      31.943 -10.078 -21.396  0.00  0.00    -0.133 NA
ATOM      5  N   UNL     1      31.537  -8.849 -20.977  0.00  0.00    -0.145 NA
ATOM      6  C   UNL     1      34.778 -15.306 -23.860  0.00  0.00    +0.044 C 
ATOM      7  C   UNL     1      34.784 -15.739 -21.370  0.00  0.00    +0.044 C 
ATOM      8  C   UNL     1      33.411 -14.641 -23.711  0.00  0.00    +0.099 C 
ATOM      9  C   UNL     1      33.427 -15.034 -21.260  0.00  0.00    +0.099 C 
ATOM     10  C   UNL     1      34.990 -16.300 -22.751  0.00  0.00    -0.041 C 
ATOM     11  C   UNL     1      35.311 -17.583 -22.974  0.00  0.00    -0.008 C 
ATOM     12  C   UNL     1      32.819 -12.731 -22.234  0.00  0.00    +0.309 C 
ATOM     13  C   UNL     1      32.214 -11.030 -20.477  0.00  0.00    +0.157 C 
ATOM     14  C   UNL     1      32.098 -10.816 -19.118  0.00  0.00    +0.038 C 
ATOM     15  C   UNL     1      31.685  -9.566 -18.692  0.00  0.00    +0.025 C 
ATOM     16  C   UNL     1      31.416  -8.612 -19.654  0.00  0.00    +0.122 C 
ATOM     17  H   UNL     1      32.824 -12.973 -20.216  0.00  0.00    +0.158 HD
ENDROOT
BRANCH  11  18
ATOM     18  C   UNL     1      35.531 -18.605 -21.939  0.00  0.00    +0.002 C 
ATOM     19  C   UNL     1      34.498 -19.474 -21.588  0.00  0.00    +0.038 C 
ATOM     20  C   UNL     1      36.772 -18.706 -21.311  0.00  0.00    +0.000 C 
ATOM     21  C   UNL     1      34.707 -20.444 -20.608  0.00  0.00    +0.147 C 
ATOM     22  C   UNL     1      36.981 -19.676 -20.332  0.00  0.00    +0.003 C 
ATOM     23  C   UNL     1      35.948 -20.546 -19.980  0.00  0.00    +0.038 C 
BRANCH  21  24
ATOM     24  O   UNL     1      33.699 -21.292 -20.264  0.00  0.00    -0.436 OA
BRANCH  24  26
ATOM     25  N   UNL     1      32.637 -22.361 -18.484  0.00  0.00    -0.210 NA
ATOM     26  C   UNL     1      33.794 -21.946 -19.047  0.00  0.00    +0.230 C 
ATOM     27  C   UNL     1      35.044 -22.137 -18.483  0.00  0.00    +0.058 C 
ATOM     28  C   UNL     1      33.945 -23.240 -16.650  0.00  0.00    +0.091 C 
ATOM     29  C   UNL     1      35.113 -22.797 -17.261  0.00  0.00    +0.010 C 
ATOM     30  C   UNL     1      32.743 -22.999 -17.296  0.00  0.00    +0.106 C 
BRANCH  28  34
ATOM     31  F   UNL     1      34.738 -25.088 -15.355  0.00  0.00    -0.166 F 
ATOM     32  F   UNL     1      34.503 -23.194 -14.325  0.00  0.00    -0.166 F 
ATOM     33  F   UNL     1      32.747 -24.335 -14.912  0.00  0.00    -0.166 F 
ATOM     34  C   UNL     1      33.985 -23.947 -15.342  0.00  0.00    +0.420 C 
ENDBRANCH  28  34
ENDBRANCH  24  26
ENDBRANCH  21  24
ENDBRANCH  11  18
TORSDOF 4
ENDMDL
MODEL 3
REMARK VINA RESULT:     -11.5      5.540     12.309
REMARK  Name = 24771824
REMARK  4 active torsions:
REMARK  status: ('A' for Active; 'I' for Inactive)
REMARK    1  A    between atoms: C_11  and  C_18
REMARK    2  A    between atoms: C_21  and  O_24
REMARK    3  A    between atoms: O_24  and  C_26
REMARK    4  A    between atoms: C_28  and  C_34
REMARK                            x       y       z     vdW  Elec       q    Type
REMARK                         _______ _______ _______ _____ _____    ______ ____
ROOT
ATOM      1  O   UNL     1      31.460  -7.540 -20.627  0.00  0.00    -0.252 OA
ATOM      2  N   UNL     1      32.394  -9.447 -21.544  0.00  0.00    -0.263 N 
ATOM      3  N   UNL     1      32.106  -7.505 -22.854  0.00  0.00    -0.252 N 
ATOM      4  N   UNL     1      31.230  -5.363 -22.280  0.00  0.00    -0.133 NA
ATOM      5  N   UNL     1      30.908  -4.086 -22.621  0.00  0.00    -0.145 NA
ATOM      6  C   UNL     1      31.590 -11.520 -20.439  0.00  0.00    +0.044 C 
ATOM      7  C   UNL     1      32.363 -11.568 -22.845  0.00  0.00    +0.044 C 
ATOM      8  C   UNL     1      32.295 -10.175 -20.271  0.00  0.00    +0.099 C 
ATOM      9  C   UNL     1      33.027 -10.202 -22.643  0.00  0.00    +0.099 C 
ATOM     10  C   UNL     1      32.245 -12.309 -21.540  0.00  0.00    -0.041 C 
ATOM     11  C   UNL     1      32.705 -13.557 -21.368  0.00  0.00    -0.008 C 
ATOM     12  C   UNL     1      31.938  -8.112 -21.610  0.00  0.00    +0.309 C 
ATOM     13  C   UNL     1      31.773  -6.175 -23.212  0.00  0.00    +0.157 C 
ATOM     14  C   UNL     1      32.021  -5.769 -24.508  0.00  0.00    +0.038 C 
ATOM     15  C   UNL     1      31.694  -4.470 -24.854  0.00  0.00    +0.025 C 
ATOM     16  C   UNL     1      31.140  -3.662 -23.881  0.00  0.00    +0.122 C 
ATOM     17  H   UNL     1      32.499  -8.063 -23.563  0.00  0.00    +0.158 HD
ENDROOT
BRANCH  11  18
ATOM     18  C   UNL     1      33.353 -14.382 -22.399  0.00  0.00    +0.002 C 
ATOM     19  C   UNL     1      34.422 -15.211 -22.056  0.00  0.00    +0.038 C 
ATOM     20  C   UNL     1      32.899 -14.337 -23.716  0.00  0.00    +0.000 C 
ATOM     21  C   UNL     1      35.036 -15.996 -23.033  0.00  0.00    +0.147 C 
ATOM     22  C   UNL     1      33.513 -15.121 -24.693  0.00  0.00    +0.003 C 
ATOM     23  C   UNL     1      34.582 -15.951 -24.351  0.00  0.00    +0.038 C 
BRANCH  21  24
ATOM     24  O   UNL     1      36.078 -16.804 -22.699  0.00  0.00    -0.436 OA
BRANCH  24  26
ATOM     25  N   UNL     1      36.655 -18.300 -21.005  0.00  0.00    -0.210 NA
ATOM     26  C   UNL     1      35.796 -17.961 -21.992  0.00  0.00    +0.230 C 
ATOM     27  C   UNL     1      34.669 -18.693 -22.325  0.00  0.00    +0.058 C 
ATOM     28  C   UNL     1      35.267 -20.232 -20.576  0.00  0.00    +0.091 C 
ATOM     29  C   UNL     1      34.406 -19.850 -21.599  0.00  0.00    +0.010 C 
ATOM     30  C   UNL     1      36.368 -19.430 -20.321  0.00  0.00    +0.106 C 
BRANCH  28  34
ATOM     31  F   UNL     1      35.607 -22.584 -20.300  0.00  0.00    -0.166 F 
ATOM     32  F   UNL     1      35.462 -21.392 -18.493  0.00  0.00    -0.166 F 
ATOM     33  F   UNL     1      33.685 -21.770 -19.688  0.00  0.00    -0.166 F 
ATOM     34  C   UNL     1      35.014 -21.465 -19.783  0.00  0.00    +0.420 C 
ENDBRANCH  28  34
ENDBRANCH  24  26
ENDBRANCH  21  24
ENDBRANCH  11  18
TORSDOF 4
ENDMDL
MODEL 4
REMARK VINA RESULT:     -11.3      3.339      4.360
REMARK  Name = 24771824
REMARK  4 active torsions:
REMARK  status: ('A' for Active; 'I' for Inactive)
REMARK    1  A    between atoms: C_11  and  C_18
REMARK    2  A    between atoms: C_21  and  O_24
REMARK    3  A    between atoms: O_24  and  C_26
REMARK    4  A    between atoms: C_28  and  C_34
REMARK                            x       y       z     vdW  Elec       q    Type
REMARK                         _______ _______ _______ _____ _____    ______ ____
ROOT
ATOM      1  O   UNL     1      33.504 -24.747 -14.651  0.00  0.00    -0.252 OA
ATOM      2  N   UNL     1      34.489 -23.519 -16.346  0.00  0.00    -0.263 N 
ATOM      3  N   UNL     1      35.467 -23.597 -14.199  0.00  0.00    -0.252 N 
ATOM      4  N   UNL     1      34.791 -24.757 -12.228  0.00  0.00    -0.133 NA
ATOM      5  N   UNL     1      34.991 -25.091 -10.925  0.00  0.00    -0.145 NA
ATOM      6  C   UNL     1      32.834 -22.696 -18.004  0.00  0.00    +0.044 C 
ATOM      7  C   UNL     1      34.995 -21.443 -17.622  0.00  0.00    +0.044 C 
ATOM      8  C   UNL     1      33.449 -23.909 -17.309  0.00  0.00    +0.099 C 
ATOM      9  C   UNL     1      35.562 -22.671 -16.901  0.00  0.00    +0.099 C 
ATOM     10  C   UNL     1      33.918 -21.839 -18.597  0.00  0.00    -0.041 C 
ATOM     11  C   UNL     1      33.937 -21.476 -19.887  0.00  0.00    -0.008 C 
ATOM     12  C   UNL     1      34.417 -24.003 -15.021  0.00  0.00    +0.309 C 
ATOM     13  C   UNL     1      35.678 -23.944 -12.842  0.00  0.00    +0.157 C 
ATOM     14  C   UNL     1      36.790 -23.430 -12.205  0.00  0.00    +0.038 C 
ATOM     15  C   UNL     1      36.992 -23.770 -10.879  0.00  0.00    +0.025 C 
ATOM     16  C   UNL     1      36.069 -24.603 -10.278  0.00  0.00    +0.122 C 
ATOM     17  H   UNL     1      36.137 -23.003 -14.608  0.00  0.00    +0.158 HD
ENDROOT
BRANCH  11  18
ATOM     18  C   UNL     1      34.964 -20.642 -20.530  0.00  0.00    +0.002 C 
ATOM     19  C   UNL     1      34.702 -20.039 -21.760  0.00  0.00    +0.038 C 
ATOM     20  C   UNL     1      36.199 -20.452 -19.909  0.00  0.00    +0.000 C 
ATOM     21  C   UNL     1      35.676 -19.246 -22.369  0.00  0.00    +0.147 C 
ATOM     22  C   UNL     1      37.171 -19.660 -20.517  0.00  0.00    +0.003 C 
ATOM     23  C   UNL     1      36.910 -19.057 -21.748  0.00  0.00    +0.038 C 
BRANCH  21  24
ATOM     24  O   UNL     1      35.420 -18.658 -23.570  0.00  0.00    -0.436 OA
BRANCH  24  26
ATOM     25  N   UNL     1      34.356 -16.915 -24.697  0.00  0.00    -0.210 NA
ATOM     26  C   UNL     1      34.940 -17.359 -23.562  0.00  0.00    +0.230 C 
ATOM     27  C   UNL     1      35.080 -16.599 -22.412  0.00  0.00    +0.058 C 
ATOM     28  C   UNL     1      33.981 -14.805 -23.579  0.00  0.00    +0.091 C 
ATOM     29  C   UNL     1      34.589 -15.298 -22.429  0.00  0.00    +0.010 C 
ATOM     30  C   UNL     1      33.891 -15.646 -24.676  0.00  0.00    +0.106 C 
BRANCH  28  34
ATOM     31  F   UNL     1      34.328 -12.472 -23.175  0.00  0.00    -0.166 F 
ATOM     32  F   UNL     1      33.102 -13.004 -24.885  0.00  0.00    -0.166 F 
ATOM     33  F   UNL     1      32.322 -13.256 -22.871  0.00  0.00    -0.166 F 
ATOM     34  C   UNL     1      33.448 -13.417 -23.628  0.00  0.00    +0.420 C 
ENDBRANCH  28  34
ENDBRANCH  24  26
ENDBRANCH  21  24
ENDBRANCH  11  18
TORSDOF 4
ENDMDL
MODEL 5
REMARK VINA RESULT:     -11.1      4.808     10.345
REMARK  Name = 24771824
REMARK  4 active torsions:
REMARK  status: ('A' for Active; 'I' for Inactive)
REMARK    1  A    between atoms: C_11  and  C_18
REMARK    2  A    between atoms: C_21  and  O_24
REMARK    3  A    between atoms: O_24  and  C_26
REMARK    4  A    between atoms: C_28  and  C_34
REMARK                            x       y       z     vdW  Elec       q    Type
REMARK                         _______ _______ _______ _____ _____    ______ ____
ROOT
ATOM      1  O   UNL     1      32.680 -10.471 -23.316  0.00  0.00    -0.252 OA
ATOM      2  N   UNL     1      32.878 -12.773 -23.197  0.00  0.00    -0.263 N 
ATOM      3  N   UNL     1      32.307 -11.518 -21.281  0.00  0.00    -0.252 N 
ATOM      4  N   UNL     1      31.977  -9.173 -21.004  0.00  0.00    -0.133 NA
ATOM      5  N   UNL     1      31.669  -8.105 -20.219  0.00  0.00    -0.145 NA
ATOM      6  C   UNL     1      34.480 -13.674 -24.866  0.00  0.00    +0.044 C 
ATOM      7  C   UNL     1      34.053 -14.910 -22.703  0.00  0.00    +0.044 C 
ATOM      8  C   UNL     1      33.199 -12.876 -24.628  0.00  0.00    +0.099 C 
ATOM      9  C   UNL     1      32.794 -14.064 -22.485  0.00  0.00    +0.099 C 
ATOM     10  C   UNL     1      34.394 -15.003 -24.166  0.00  0.00    -0.041 C 
ATOM     11  C   UNL     1      34.583 -16.172 -24.796  0.00  0.00    -0.008 C 
ATOM     12  C   UNL     1      32.632 -11.500 -22.636  0.00  0.00    +0.309 C 
ATOM     13  C   UNL     1      31.985 -10.409 -20.460  0.00  0.00    +0.157 C 
ATOM     14  C   UNL     1      31.692 -10.646 -19.132  0.00  0.00    +0.038 C 
ATOM     15  C   UNL     1      31.378  -9.560 -18.334  0.00  0.00    +0.025 C 
ATOM     16  C   UNL     1      31.379  -8.308 -18.918  0.00  0.00    +0.122 C 
ATOM     17  H   UNL     1      32.301 -12.401 -20.845  0.00  0.00    +0.158 HD
ENDROOT
BRANCH  11  18
ATOM     18  C   UNL     1      34.515 -17.503 -24.174  0.00  0.00    +0.002 C 
ATOM     19  C   UNL     1      35.157 -17.737 -22.958  0.00  0.00    +0.038 C 
ATOM     20  C   UNL     1      33.807 -18.529 -24.798  0.00  0.00    +0.000 C 
ATOM     21  C   UNL     1      35.091 -18.999 -22.367  0.00  0.00    +0.147 C 
ATOM     22  C   UNL     1      33.741 -19.791 -24.208  0.00  0.00    +0.003 C 
ATOM     23  C   UNL     1      34.384 -20.026 -22.991  0.00  0.00    +0.038 C 
BRANCH  21  24
ATOM     24  O   UNL     1      35.718 -19.229 -21.181  0.00  0.00    -0.436 OA
BRANCH  24  26
ATOM     25  N   UNL     1      36.054 -20.913 -19.602  0.00  0.00    -0.210 NA
ATOM     26  C   UNL     1      35.182 -20.194 -20.345  0.00  0.00    +0.230 C 
ATOM     27  C   UNL     1      33.808 -20.368 -20.314  0.00  0.00    +0.058 C 
ATOM     28  C   UNL     1      34.160 -22.103 -18.685  0.00  0.00    +0.091 C 
ATOM     29  C   UNL     1      33.295 -21.344 -19.466  0.00  0.00    +0.010 C 
ATOM     30  C   UNL     1      35.518 -21.851 -18.790  0.00  0.00    +0.106 C 
BRANCH  28  34
ATOM     31  F   UNL     1      33.512 -24.383 -18.359  0.00  0.00    -0.166 F 
ATOM     32  F   UNL     1      34.429 -23.370 -16.675  0.00  0.00    -0.166 F 
ATOM     33  F   UNL     1      32.402 -22.860 -17.274  0.00  0.00    -0.166 F 
ATOM     34  C   UNL     1      33.641 -23.155 -17.771  0.00  0.00    +0.420 C 
ENDBRANCH  28  34
ENDBRANCH  24  26
ENDBRANCH  21  24
ENDBRANCH  11  18
TORSDOF 4
ENDMDL
MODEL 6
REMARK VINA RESULT:     -10.8      6.583     14.114
REMARK  Name = 24771824
REMARK  4 active torsions:
REMARK  status: ('A' for Active; 'I' for Inactive)
REMARK    1  A    between atoms: C_11  and  C_18
REMARK    2  A    between atoms: C_21  and  O_24
REMARK    3  A    between atoms: O_24  and  C_26
REMARK    4  A    between atoms: C_28  and  C_34
REMARK                            x       y       z     vdW  Elec       q    Type
REMARK                         _______ _______ _______ _____ _____    ______ ____
ROOT
ATOM      1  O   UNL     1      32.577  -4.811 -24.520  0.00  0.00    -0.252 OA
ATOM      2  N   UNL     1      32.907  -6.911 -23.607  0.00  0.00    -0.263 N 
ATOM      3  N   UNL     1      34.542  -5.941 -25.006  0.00  0.00    -0.252 N 
ATOM      4  N   UNL     1      34.593  -3.820 -26.095  0.00  0.00    -0.133 NA
ATOM      5  N   UNL     1      35.222  -2.911 -26.888  0.00  0.00    -0.145 NA
ATOM      6  C   UNL     1      30.773  -8.106 -23.183  0.00  0.00    +0.044 C 
ATOM      7  C   UNL     1      32.900  -9.399 -23.620  0.00  0.00    +0.044 C 
ATOM      8  C   UNL     1      31.620  -6.867 -22.899  0.00  0.00    +0.099 C 
ATOM      9  C   UNL     1      33.710  -8.124 -23.361  0.00  0.00    +0.099 C 
ATOM     10  C   UNL     1      31.574  -9.349 -22.910  0.00  0.00    -0.041 C 
ATOM     11  C   UNL     1      31.154 -10.320 -22.086  0.00  0.00    -0.008 C 
ATOM     12  C   UNL     1      33.293  -5.809 -24.404  0.00  0.00    +0.309 C 
ATOM     13  C   UNL     1      35.202  -4.996 -25.832  0.00  0.00    +0.157 C 
ATOM     14  C   UNL     1      36.445  -5.326 -26.333  0.00  0.00    +0.038 C 
ATOM     15  C   UNL     1      37.085  -4.401 -27.139  0.00  0.00    +0.025 C 
ATOM     16  C   UNL     1      36.438  -3.207 -27.391  0.00  0.00    +0.122 C 
ATOM     17  H   UNL     1      35.021  -6.785 -24.840  0.00  0.00    +0.158 HD
ENDROOT
BRANCH  11  18
ATOM     18  C   UNL     1      31.885 -11.559 -21.776  0.00  0.00    +0.002 C 
ATOM     19  C   UNL     1      32.742 -12.118 -22.724  0.00  0.00    +0.038 C 
ATOM     20  C   UNL     1      31.722 -12.173 -20.534  0.00  0.00    +0.000 C 
ATOM     21  C   UNL     1      33.437 -13.291 -22.429  0.00  0.00    +0.147 C 
ATOM     22  C   UNL     1      32.416 -13.346 -20.240  0.00  0.00    +0.003 C 
ATOM     23  C   UNL     1      33.274 -13.905 -21.188  0.00  0.00    +0.038 C 
BRANCH  21  24
ATOM     24  O   UNL     1      34.273 -13.837 -23.354  0.00  0.00    -0.436 OA
BRANCH  24  26
ATOM     25  N   UNL     1      35.088 -15.730 -22.262  0.00  0.00    -0.210 NA
ATOM     26  C   UNL     1      34.448 -15.210 -23.333  0.00  0.00    +0.230 C 
ATOM     27  C   UNL     1      33.965 -15.965 -24.390  0.00  0.00    +0.058 C 
ATOM     28  C   UNL     1      34.806 -17.914 -23.259  0.00  0.00    +0.091 C 
ATOM     29  C   UNL     1      34.152 -17.342 -24.346  0.00  0.00    +0.010 C 
ATOM     30  C   UNL     1      35.251 -17.072 -22.253  0.00  0.00    +0.106 C 
BRANCH  28  34
ATOM     31  F   UNL     1      34.628 -20.058 -24.307  0.00  0.00    -0.166 F 
ATOM     32  F   UNL     1      36.330 -19.739 -23.001  0.00  0.00    -0.166 F 
ATOM     33  F   UNL     1      34.341 -19.967 -22.153  0.00  0.00    -0.166 F 
ATOM     34  C   UNL     1      35.023 -19.384 -23.184  0.00  0.00    +0.420 C 
ENDBRANCH  28  34
ENDBRANCH  24  26
ENDBRANCH  21  24
ENDBRANCH  11  18
TORSDOF 4
ENDMDL
MODEL 7
REMARK VINA RESULT:      -9.8      5.424     10.625
REMARK  Name = 24771824
REMARK  4 active torsions:
REMARK  status: ('A' for Active; 'I' for Inactive)
REMARK    1  A    between atoms: C_11  and  C_18
REMARK    2  A    between atoms: C_21  and  O_24
REMARK    3  A    between atoms: O_24  and  C_26
REMARK    4  A    between atoms: C_28  and  C_34
REMARK                            x       y       z     vdW  Elec       q    Type
REMARK                         _______ _______ _______ _____ _____    ______ ____
ROOT
ATOM      1  O   UNL     1      33.559 -12.363 -23.164  0.00  0.00    -0.252 OA
ATOM      2  N   UNL     1      33.556 -14.501 -22.280  0.00  0.00    -0.263 N 
ATOM      3  N   UNL     1      32.735 -12.681 -21.020  0.00  0.00    -0.252 N 
ATOM      4  N   UNL     1      32.538 -10.371 -21.578  0.00  0.00    -0.133 NA
ATOM      5  N   UNL     1      32.170  -9.103 -21.254  0.00  0.00    -0.145 NA
ATOM      6  C   UNL     1      35.368 -15.916 -23.216  0.00  0.00    +0.044 C 
ATOM      7  C   UNL     1      34.453 -16.371 -20.904  0.00  0.00    +0.044 C 
ATOM      8  C   UNL     1      34.130 -15.070 -23.507  0.00  0.00    +0.099 C 
ATOM      9  C   UNL     1      33.243 -15.486 -21.226  0.00  0.00    +0.099 C 
ATOM     10  C   UNL     1      35.054 -16.941 -22.161  0.00  0.00    -0.041 C 
ATOM     11  C   UNL     1      35.268 -18.253 -22.333  0.00  0.00    -0.008 C 
ATOM     12  C   UNL     1      33.307 -13.112 -22.216  0.00  0.00    +0.309 C 
ATOM     13  C   UNL     1      32.350 -11.361 -20.679  0.00  0.00    +0.157 C 
ATOM     14  C   UNL     1      31.797 -11.147 -19.432  0.00  0.00    +0.038 C 
ATOM     15  C   UNL     1      31.423  -9.855 -19.103  0.00  0.00    +0.025 C 
ATOM     16  C   UNL     1      31.627  -8.864 -20.042  0.00  0.00    +0.122 C 
ATOM     17  H   UNL     1      32.581 -13.372 -20.336  0.00  0.00    +0.158 HD
ENDROOT
BRANCH  11  18
ATOM     18  C   UNL     1      34.984 -19.307 -21.346  0.00  0.00    +0.002 C 
ATOM     19  C   UNL     1      36.024 -19.860 -20.599  0.00  0.00    +0.038 C 
ATOM     20  C   UNL     1      33.676 -19.751 -21.157  0.00  0.00    +0.000 C 
ATOM     21  C   UNL     1      35.755 -20.857 -19.662  0.00  0.00    +0.147 C 
ATOM     22  C   UNL     1      33.407 -20.749 -20.220  0.00  0.00    +0.003 C 
ATOM     23  C   UNL     1      34.447 -21.302 -19.472  0.00  0.00    +0.038 C 
BRANCH  21  24
ATOM     24  O   UNL     1      36.769 -21.397 -18.933  0.00  0.00    -0.436 OA
BRANCH  24  26
ATOM     25  N   UNL     1      37.346 -21.830 -16.714  0.00  0.00    -0.210 NA
ATOM     26  C   UNL     1      36.451 -21.978 -17.717  0.00  0.00    +0.230 C 
ATOM     27  C   UNL     1      35.254 -22.665 -17.594  0.00  0.00    +0.058 C 
ATOM     28  C   UNL     1      35.852 -23.108 -15.306  0.00  0.00    +0.091 C 
ATOM     29  C   UNL     1      34.957 -23.239 -16.362  0.00  0.00    +0.010 C 
ATOM     30  C   UNL     1      37.022 -22.400 -15.532  0.00  0.00    +0.106 C 
BRANCH  28  34
ATOM     31  F   UNL     1      36.278 -23.157 -12.953  0.00  0.00    -0.166 F 
ATOM     32  F   UNL     1      34.256 -23.603 -13.596  0.00  0.00    -0.166 F 
ATOM     33  F   UNL     1      35.845 -25.049 -13.933  0.00  0.00    -0.166 F 
ATOM     34  C   UNL     1      35.564 -23.712 -13.978  0.00  0.00    +0.420 C 
ENDBRANCH  28  34
ENDBRANCH  24  26
ENDBRANCH  21  24
ENDBRANCH  11  18
TORSDOF 4
ENDMDL
MODEL 8
REMARK VINA RESULT:      -9.5      7.754     15.541
REMARK  Name = 24771824
REMARK  4 active torsions:
REMARK  status: ('A' for Active; 'I' for Inactive)
REMARK    1  A    between atoms: C_11  and  C_18
REMARK    2  A    between atoms: C_21  and  O_24
REMARK    3  A    between atoms: O_24  and  C_26
REMARK    4  A    between atoms: C_28  and  C_34
REMARK                            x       y       z     vdW  Elec       q    Type
REMARK                         _______ _______ _______ _____ _____    ______ ____
ROOT
ATOM      1  O   UNL     1      34.337  -3.167 -26.803  0.00  0.00    -0.252 OA
ATOM      2  N   UNL     1      33.985  -4.722 -25.127  0.00  0.00    -0.263 N 
ATOM      3  N   UNL     1      35.648  -5.080 -26.764  0.00  0.00    -0.252 N 
ATOM      4  N   UNL     1      36.332  -3.725 -28.603  0.00  0.00    -0.133 NA
ATOM      5  N   UNL     1      37.136  -3.507 -29.678  0.00  0.00    -0.145 NA
ATOM      6  C   UNL     1      31.642  -4.714 -24.305  0.00  0.00    +0.044 C 
ATOM      7  C   UNL     1      33.046  -6.811 -24.154  0.00  0.00    +0.044 C 
ATOM      8  C   UNL     1      32.922  -3.908 -24.519  0.00  0.00    +0.099 C 
ATOM      9  C   UNL     1      34.303  -5.969 -24.405  0.00  0.00    +0.099 C 
ATOM     10  C   UNL     1      31.950  -5.976 -23.547  0.00  0.00    -0.041 C 
ATOM     11  C   UNL     1      31.319  -6.318 -22.414  0.00  0.00    -0.008 C 
ATOM     12  C   UNL     1      34.637  -4.247 -26.287  0.00  0.00    +0.309 C 
ATOM     13  C   UNL     1      36.488  -4.857 -27.883  0.00  0.00    +0.157 C 
ATOM     14  C   UNL     1      37.433  -5.815 -28.188  0.00  0.00    +0.038 C 
ATOM     15  C   UNL     1      38.251  -5.593 -29.282  0.00  0.00    +0.025 C 
ATOM     16  C   UNL     1      38.068  -4.427 -29.999  0.00  0.00    +0.122 C 
ATOM     17  H   UNL     1      35.795  -5.917 -26.268  0.00  0.00    +0.158 HD
ENDROOT
BRANCH  11  18
ATOM     18  C   UNL     1      31.570  -7.533 -21.624  0.00  0.00    +0.002 C 
ATOM     19  C   UNL     1      31.096  -8.766 -22.073  0.00  0.00    +0.038 C 
ATOM     20  C   UNL     1      32.283  -7.454 -20.429  0.00  0.00    +0.000 C 
ATOM     21  C   UNL     1      31.335  -9.919 -21.326  0.00  0.00    +0.147 C 
ATOM     22  C   UNL     1      32.522  -8.606 -19.681  0.00  0.00    +0.003 C 
ATOM     23  C   UNL     1      32.048  -9.840 -20.130  0.00  0.00    +0.038 C 
BRANCH  21  24
ATOM     24  O   UNL     1      30.872 -11.122 -21.763  0.00  0.00    -0.436 OA
BRANCH  24  26
ATOM     25  N   UNL     1      32.493 -12.279 -22.978  0.00  0.00    -0.210 NA
ATOM     26  C   UNL     1      31.773 -12.170 -21.839  0.00  0.00    +0.230 C 
ATOM     27  C   UNL     1      31.889 -13.035 -20.762  0.00  0.00    +0.058 C 
ATOM     28  C   UNL     1      33.561 -14.224 -22.018  0.00  0.00    +0.091 C 
ATOM     29  C   UNL     1      32.802 -14.080 -20.862  0.00  0.00    +0.010 C 
ATOM     30  C   UNL     1      33.370 -13.305 -23.038  0.00  0.00    +0.106 C 
BRANCH  28  34
ATOM     31  F   UNL     1      33.998 -16.500 -22.613  0.00  0.00    -0.166 F 
ATOM     32  F   UNL     1      35.566 -15.058 -23.021  0.00  0.00    -0.166 F 
ATOM     33  F   UNL     1      35.147 -15.653 -20.972  0.00  0.00    -0.166 F 
ATOM     34  C   UNL     1      34.544 -15.332 -22.156  0.00  0.00    +0.420 C 
ENDBRANCH  28  34
ENDBRANCH  24  26
ENDBRANCH  21  24
ENDBRANCH  11  18
TORSDOF 4
ENDMDL
MODEL 9
REMARK VINA RESULT:      -9.4      6.326     12.639
REMARK  Name = 24771824
REMARK  4 active torsions:
REMARK  status: ('A' for Active; 'I' for Inactive)
REMARK    1  A    between atoms: C_11  and  C_18
REMARK    2  A    between atoms: C_21  and  O_24
REMARK    3  A    between atoms: O_24  and  C_26
REMARK    4  A    between atoms: C_28  and  C_34
REMARK                            x       y       z     vdW  Elec       q    Type
REMARK                         _______ _______ _______ _____ _____    ______ ____
ROOT
ATOM      1  O   UNL     1      31.730  -7.032 -20.277  0.00  0.00    -0.252 OA
ATOM      2  N   UNL     1      32.435  -8.762 -21.640  0.00  0.00    -0.263 N 
ATOM      3  N   UNL     1      32.240  -6.569 -22.491  0.00  0.00    -0.252 N 
ATOM      4  N   UNL     1      31.592  -4.541 -21.417  0.00  0.00    -0.133 NA
ATOM      5  N   UNL     1      31.364  -3.200 -21.458  0.00  0.00    -0.145 NA
ATOM      6  C   UNL     1      31.521 -10.959 -20.933  0.00  0.00    +0.044 C 
ATOM      7  C   UNL     1      32.140 -10.548 -23.349  0.00  0.00    +0.044 C 
ATOM      8  C   UNL     1      32.350  -9.737 -20.543  0.00  0.00    +0.099 C 
ATOM      9  C   UNL     1      32.933  -9.308 -22.918  0.00  0.00    +0.099 C 
ATOM     10  C   UNL     1      32.036 -11.540 -22.221  0.00  0.00    -0.041 C 
ATOM     11  C   UNL     1      32.394 -12.825 -22.350  0.00  0.00    -0.008 C 
ATOM     12  C   UNL     1      32.096  -7.414 -21.392  0.00  0.00    +0.309 C 
ATOM     13  C   UNL     1      32.005  -5.172 -22.537  0.00  0.00    +0.157 C 
ATOM     14  C   UNL     1      32.209  -4.518 -23.736  0.00  0.00    +0.038 C 
ATOM     15  C   UNL     1      31.978  -3.154 -23.777  0.00  0.00    +0.025 C 
ATOM     16  C   UNL     1      31.556  -2.535 -22.616  0.00  0.00    +0.122 C 
ATOM     17  H   UNL     1      32.540  -6.990 -23.329  0.00  0.00    +0.158 HD
ENDROOT
BRANCH  11  18
ATOM     18  C   UNL     1      32.904 -13.456 -23.577  0.00  0.00    +0.002 C 
ATOM     19  C   UNL     1      32.984 -14.846 -23.664  0.00  0.00    +0.038 C 
ATOM     20  C   UNL     1      33.307 -12.666 -24.652  0.00  0.00    +0.000 C 
ATOM     21  C   UNL     1      33.466 -15.445 -24.828  0.00  0.00    +0.147 C 
ATOM     22  C   UNL     1      33.789 -13.265 -25.816  0.00  0.00    +0.003 C 
ATOM     23  C   UNL     1      33.868 -14.655 -25.904  0.00  0.00    +0.038 C 
BRANCH  21  24
ATOM     24  O   UNL     1      33.543 -16.801 -24.913  0.00  0.00    -0.436 OA
BRANCH  24  26
ATOM     25  N   UNL     1      35.049 -16.706 -23.134  0.00  0.00    -0.210 NA
ATOM     26  C   UNL     1      34.285 -17.466 -23.951  0.00  0.00    +0.230 C 
ATOM     27  C   UNL     1      34.206 -18.847 -23.877  0.00  0.00    +0.058 C 
ATOM     28  C   UNL     1      35.758 -18.743 -22.042  0.00  0.00    +0.091 C 
ATOM     29  C   UNL     1      34.960 -19.491 -22.902  0.00  0.00    +0.010 C 
ATOM     30  C   UNL     1      35.768 -17.367 -22.199  0.00  0.00    +0.106 C 
BRANCH  28  34
ATOM     31  F   UNL     1      36.590 -18.733 -19.799  0.00  0.00    -0.166 F 
ATOM     32  F   UNL     1      36.162 -20.668 -20.681  0.00  0.00    -0.166 F 
ATOM     33  F   UNL     1      37.891 -19.531 -21.348  0.00  0.00    -0.166 F 
ATOM     34  C   UNL     1      36.578 -19.403 -20.991  0.00  0.00    +0.420 C 
ENDBRANCH  28  34
ENDBRANCH  24  26
ENDBRANCH  21  24
ENDBRANCH  11  18
TORSDOF 4
ENDMDL
