MODEL 1
REMARK VINA RESULT:     -11.4      0.000      0.000
REMARK  Name = 656948
REMARK  8 active torsions:
REMARK  status: ('A' for Active; 'I' for Inactive)
REMARK    1  A    between atoms: N_1  and  C_3
REMARK    2  A    between atoms: N_1  and  C_18
REMARK    3  A    between atoms: C_6  and  C_10
REMARK    4  A    between atoms: C_10  and  O_11
REMARK    5  A    between atoms: O_11  and  P_12
REMARK    6  A    between atoms: P_12  and  O_14
REMARK    7  A    between atoms: P_12  and  O_16
REMARK    8  A    between atoms: C_18  and  C_25
REMARK                            x       y       z     vdW  Elec       q    Type
REMARK                         _______ _______ _______ _____ _____    ______ ____
ROOT
ATOM      1  N   UNL     1      34.370 -19.617 -21.878  0.00  0.00    -0.327 N 
ATOM      2  H   UNL     1      33.532 -19.608 -22.395  0.00  0.00    +0.147 HD
ENDROOT
BRANCH   1   3
ATOM      3  C   UNL     1      34.448 -20.447 -20.774  0.00  0.00    +0.045 C 
ATOM      4  C   UNL     1      33.283 -20.907 -20.130  0.00  0.00    +0.015 C 
ATOM      5  C   UNL     1      35.695 -20.854 -20.260  0.00  0.00    +0.015 C 
ATOM      6  C   UNL     1      34.607 -22.135 -18.525  0.00  0.00    +0.076 C 
ATOM      7  C   UNL     1      33.361 -21.744 -19.017  0.00  0.00    +0.008 C 
ATOM      8  C   UNL     1      35.773 -21.690 -19.146  0.00  0.00    +0.008 C 
BRANCH   6  10
ATOM      9  O   UNL     1      33.805 -23.794 -17.004  0.00  0.00    -0.245 OA
ATOM     10  C   UNL     1      34.688 -23.007 -17.364  0.00  0.00    +0.348 C 
BRANCH  10  11
ATOM     11  O   UNL     1      35.869 -22.861 -16.699  0.00  0.00    -0.368 OA
BRANCH  11  12
ATOM     12  P   UNL     1      36.170 -23.355 -15.189  0.00  0.00    +0.530 P 
ATOM     13  O   UNL     1      37.508 -22.944 -14.646  0.00  0.00    -0.216 OA
BRANCH  12  14
ATOM     14  O   UNL     1      35.905 -24.948 -15.248  0.00  0.00    -0.293 OA
ATOM     15  H   UNL     1      35.039 -25.148 -14.859  0.00  0.00    +0.223 HD
ENDBRANCH  12  14
BRANCH  12  16
ATOM     16  O   UNL     1      34.897 -22.795 -14.364  0.00  0.00    -0.293 OA
ATOM     17  H   UNL     1      34.976 -21.834 -14.262  0.00  0.00    +0.223 HD
ENDBRANCH  12  16
ENDBRANCH  11  12
ENDBRANCH  10  11
ENDBRANCH   6  10
ENDBRANCH   1   3
BRANCH   1  18
ATOM     18  C   UNL     1      35.454 -18.761 -22.315  0.00  0.00    +0.145 C 
BRANCH  18  25
ATOM     19  O   UNL     1      33.683 -15.651 -25.714  0.00  0.00    -0.206 OA
ATOM     20  N   UNL     1      34.591 -16.824 -23.493  0.00  0.00    -0.391 NA
ATOM     21  N   UNL     1      33.873 -13.413 -22.407  0.00  0.00    -0.259 N 
ATOM     22  N   UNL     1      34.732 -15.275 -21.156  0.00  0.00    -0.246 NA
ATOM     23  N   UNL     1      33.341 -13.606 -24.721  0.00  0.00    -0.300 NA
ATOM     24  N   UNL     1      33.055 -11.596 -23.547  0.00  0.00    -0.320 N 
ATOM     25  C   UNL     1      35.034 -17.333 -22.328  0.00  0.00    +0.132 C 
ATOM     26  C   UNL     1      34.222 -15.528 -23.456  0.00  0.00    +0.255 C 
ATOM     27  C   UNL     1      34.285 -14.746 -22.315  0.00  0.00    +0.173 C 
ATOM     28  C   UNL     1      35.104 -16.572 -21.182  0.00  0.00    +0.183 C 
ATOM     29  C   UNL     1      33.729 -14.934 -24.719  0.00  0.00    +0.240 C 
ATOM     30  C   UNL     1      33.424 -12.917 -23.611  0.00  0.00    +0.249 C 
ATOM     31  H   UNL     1      33.905 -12.830 -21.613  0.00  0.00    +0.157 HD
ATOM     32  H   UNL     1      33.130 -11.105 -22.696  0.00  0.00    +0.146 HD
ATOM     33  H   UNL     1      32.719 -11.139 -24.351  0.00  0.00    +0.146 HD
ENDBRANCH  18  25
ENDBRANCH   1  18
TORSDOF 8
ENDMDL
MODEL 2
REMARK VINA RESULT:     -11.0      1.485      2.278
REMARK  Name = 656948
REMARK  8 active torsions:
REMARK  status: ('A' for Active; 'I' for Inactive)
REMARK    1  A    between atoms: N_1  and  C_3
REMARK    2  A    between atoms: N_1  and  C_18
REMARK    3  A    between atoms: C_6  and  C_10
REMARK    4  A    between atoms: C_10  and  O_11
REMARK    5  A    between atoms: O_11  and  P_12
REMARK    6  A    between atoms: P_12  and  O_14
REMARK    7  A    between atoms: P_12  and  O_16
REMARK    8  A    between atoms: C_18  and  C_25
REMARK                            x       y       z     vdW  Elec       q    Type
REMARK                         _______ _______ _______ _____ _____    ______ ____
ROOT
ATOM      1  N   UNL     1      35.778 -18.993 -21.577  0.00  0.00    -0.327 N 
ATOM      2  H   UNL     1      36.360 -18.273 -21.242  0.00  0.00    +0.147 HD
ENDROOT
BRANCH   1   3
ATOM      3  C   UNL     1      35.402 -19.992 -20.698  0.00  0.00    +0.045 C 
ATOM      4  C   UNL     1      36.366 -20.720 -19.973  0.00  0.00    +0.015 C 
ATOM      5  C   UNL     1      34.044 -20.311 -20.502  0.00  0.00    +0.015 C 
ATOM      6  C   UNL     1      34.635 -22.028 -18.907  0.00  0.00    +0.076 C 
ATOM      7  C   UNL     1      35.986 -21.727 -19.086  0.00  0.00    +0.008 C 
ATOM      8  C   UNL     1      33.665 -21.320 -19.615  0.00  0.00    +0.008 C 
BRANCH   6  10
ATOM      9  O   UNL     1      33.421 -23.971 -18.230  0.00  0.00    -0.245 OA
ATOM     10  C   UNL     1      34.240 -23.077 -17.982  0.00  0.00    +0.348 C 
BRANCH  10  11
ATOM     11  O   UNL     1      34.881 -22.969 -16.784  0.00  0.00    -0.368 OA
BRANCH  11  12
ATOM     12  P   UNL     1      34.542 -23.820 -15.452  0.00  0.00    +0.530 P 
ATOM     13  O   UNL     1      35.222 -25.157 -15.368  0.00  0.00    -0.216 OA
BRANCH  12  14
ATOM     14  O   UNL     1      32.927 -23.862 -15.425  0.00  0.00    -0.293 OA
ATOM     15  H   UNL     1      32.614 -23.710 -14.520  0.00  0.00    +0.223 HD
ENDBRANCH  12  14
BRANCH  12  16
ATOM     16  O   UNL     1      34.910 -22.791 -14.261  0.00  0.00    -0.293 OA
ATOM     17  H   UNL     1      35.871 -22.665 -14.228  0.00  0.00    +0.223 HD
ENDBRANCH  12  16
ENDBRANCH  11  12
ENDBRANCH  10  11
ENDBRANCH   6  10
ENDBRANCH   1   3
BRANCH   1  18
ATOM     18  C   UNL     1      35.364 -18.949 -22.964  0.00  0.00    +0.145 C 
BRANCH  18  25
ATOM     19  O   UNL     1      34.655 -14.696 -20.563  0.00  0.00    -0.206 OA
ATOM     20  N   UNL     1      34.823 -16.663 -22.361  0.00  0.00    -0.391 NA
ATOM     21  N   UNL     1      33.536 -13.854 -24.308  0.00  0.00    -0.259 N 
ATOM     22  N   UNL     1      34.045 -16.097 -24.999  0.00  0.00    -0.246 NA
ATOM     23  N   UNL     1      33.846 -13.145 -22.055  0.00  0.00    -0.300 NA
ATOM     24  N   UNL     1      33.031 -11.696 -23.709  0.00  0.00    -0.320 N 
ATOM     25  C   UNL     1      34.876 -17.593 -23.333  0.00  0.00    +0.132 C 
ATOM     26  C   UNL     1      34.374 -15.450 -22.744  0.00  0.00    +0.255 C 
ATOM     27  C   UNL     1      33.984 -15.151 -24.039  0.00  0.00    +0.173 C 
ATOM     28  C   UNL     1      34.493 -17.315 -24.628  0.00  0.00    +0.183 C 
ATOM     29  C   UNL     1      34.302 -14.402 -21.701  0.00  0.00    +0.240 C 
ATOM     30  C   UNL     1      33.492 -12.921 -23.295  0.00  0.00    +0.249 C 
ATOM     31  H   UNL     1      33.252 -13.609 -25.218  0.00  0.00    +0.157 HD
ATOM     32  H   UNL     1      32.771 -11.560 -24.649  0.00  0.00    +0.146 HD
ATOM     33  H   UNL     1      32.958 -10.954 -23.066  0.00  0.00    +0.146 HD
ENDBRANCH  18  25
ENDBRANCH   1  18
TORSDOF 8
ENDMDL
MODEL 3
REMARK VINA RESULT:     -10.9      6.167     10.835
REMARK  Name = 656948
REMARK  8 active torsions:
REMARK  status: ('A' for Active; 'I' for Inactive)
REMARK    1  A    between atoms: N_1  and  C_3
REMARK    2  A    between atoms: N_1  and  C_18
REMARK    3  A    between atoms: C_6  and  C_10
REMARK    4  A    between atoms: C_10  and  O_11
REMARK    5  A    between atoms: O_11  and  P_12
REMARK    6  A    between atoms: P_12  and  O_14
REMARK    7  A    between atoms: P_12  and  O_16
REMARK    8  A    between atoms: C_18  and  C_25
REMARK                            x       y       z     vdW  Elec       q    Type
REMARK                         _______ _______ _______ _____ _____    ______ ____
ROOT
ATOM      1  N   UNL     1      33.813 -23.577 -17.446  0.00  0.00    -0.327 N 
ATOM      2  H   UNL     1      33.561 -24.463 -17.793  0.00  0.00    +0.147 HD
ENDROOT
BRANCH   1   3
ATOM      3  C   UNL     1      34.058 -22.564 -18.356  0.00  0.00    +0.045 C 
ATOM      4  C   UNL     1      32.998 -21.846 -18.944  0.00  0.00    +0.015 C 
ATOM      5  C   UNL     1      35.375 -22.223 -18.722  0.00  0.00    +0.015 C 
ATOM      6  C   UNL     1      34.558 -20.503 -20.210  0.00  0.00    +0.076 C 
ATOM      7  C   UNL     1      33.246 -20.825 -19.862  0.00  0.00    +0.008 C 
ATOM      8  C   UNL     1      35.622 -21.201 -19.640  0.00  0.00    +0.008 C 
BRANCH   6  10
ATOM      9  O   UNL     1      35.725 -18.605 -21.073  0.00  0.00    -0.245 OA
ATOM     10  C   UNL     1      34.816 -19.439 -21.166  0.00  0.00    +0.348 C 
BRANCH  10  11
ATOM     11  O   UNL     1      33.928 -19.456 -22.200  0.00  0.00    -0.368 OA
BRANCH  11  12
ATOM     12  P   UNL     1      34.276 -19.154 -23.750  0.00  0.00    +0.530 P 
ATOM     13  O   UNL     1      33.084 -18.887 -24.624  0.00  0.00    -0.216 OA
BRANCH  12  14
ATOM     14  O   UNL     1      35.187 -20.415 -24.189  0.00  0.00    -0.293 OA
ATOM     15  H   UNL     1      35.415 -20.339 -25.129  0.00  0.00    +0.223 HD
ENDBRANCH  12  14
BRANCH  12  16
ATOM     16  O   UNL     1      35.339 -17.940 -23.654  0.00  0.00    -0.293 OA
ATOM     17  H   UNL     1      36.132 -18.242 -23.185  0.00  0.00    +0.223 HD
ENDBRANCH  12  16
ENDBRANCH  11  12
ENDBRANCH  10  11
ENDBRANCH   6  10
ENDBRANCH   1   3
BRANCH   1  18
ATOM     18  C   UNL     1      33.907 -23.404 -16.011  0.00  0.00    +0.145 C 
BRANCH  18  25
ATOM     19  O   UNL     1      36.253 -27.650 -15.101  0.00  0.00    -0.206 OA
ATOM     20  N   UNL     1      35.533 -25.095 -15.396  0.00  0.00    -0.391 NA
ATOM     21  N   UNL     1      38.960 -24.865 -14.154  0.00  0.00    -0.259 N 
ATOM     22  N   UNL     1      37.417 -23.119 -14.740  0.00  0.00    -0.246 NA
ATOM     23  N   UNL     1      38.367 -27.164 -14.338  0.00  0.00    -0.300 NA
ATOM     24  N   UNL     1      40.479 -26.486 -13.579  0.00  0.00    -0.320 N 
ATOM     25  C   UNL     1      35.258 -23.783 -15.516  0.00  0.00    +0.132 C 
ATOM     26  C   UNL     1      36.770 -25.389 -14.944  0.00  0.00    +0.255 C 
ATOM     27  C   UNL     1      37.713 -24.430 -14.614  0.00  0.00    +0.173 C 
ATOM     28  C   UNL     1      36.183 -22.813 -15.192  0.00  0.00    +0.183 C 
ATOM     29  C   UNL     1      37.108 -26.823 -14.800  0.00  0.00    +0.240 C 
ATOM     30  C   UNL     1      39.216 -26.213 -14.042  0.00  0.00    +0.249 C 
ATOM     31  H   UNL     1      39.652 -24.208 -13.912  0.00  0.00    +0.157 HD
ATOM     32  H   UNL     1      41.094 -25.748 -13.364  0.00  0.00    +0.146 HD
ATOM     33  H   UNL     1      40.769 -27.419 -13.460  0.00  0.00    +0.146 HD
ENDBRANCH  18  25
ENDBRANCH   1  18
TORSDOF 8
ENDMDL
MODEL 4
REMARK VINA RESULT:     -10.9      4.846     10.095
REMARK  Name = 656948
REMARK  8 active torsions:
REMARK  status: ('A' for Active; 'I' for Inactive)
REMARK    1  A    between atoms: N_1  and  C_3
REMARK    2  A    between atoms: N_1  and  C_18
REMARK    3  A    between atoms: C_6  and  C_10
REMARK    4  A    between atoms: C_10  and  O_11
REMARK    5  A    between atoms: O_11  and  P_12
REMARK    6  A    between atoms: P_12  and  O_14
REMARK    7  A    between atoms: P_12  and  O_16
REMARK    8  A    between atoms: C_18  and  C_25
REMARK                            x       y       z     vdW  Elec       q    Type
REMARK                         _______ _______ _______ _____ _____    ______ ____
ROOT
ATOM      1  N   UNL     1      34.669 -20.696 -20.429  0.00  0.00    -0.327 N 
ATOM      2  H   UNL     1      35.509 -21.058 -20.063  0.00  0.00    +0.147 HD
ENDROOT
BRANCH   1   3
ATOM      3  C   UNL     1      34.744 -19.620 -21.294  0.00  0.00    +0.045 C 
ATOM      4  C   UNL     1      34.324 -19.736 -22.634  0.00  0.00    +0.015 C 
ATOM      5  C   UNL     1      35.244 -18.376 -20.861  0.00  0.00    +0.015 C 
ATOM      6  C   UNL     1      34.898 -17.428 -23.057  0.00  0.00    +0.076 C 
ATOM      7  C   UNL     1      34.400 -18.651 -23.506  0.00  0.00    +0.008 C 
ATOM      8  C   UNL     1      35.320 -17.290 -21.735  0.00  0.00    +0.008 C 
BRANCH   6  10
ATOM      9  O   UNL     1      35.014 -16.378 -25.200  0.00  0.00    -0.245 OA
ATOM     10  C   UNL     1      34.977 -16.297 -23.967  0.00  0.00    +0.348 C 
BRANCH  10  11
ATOM     11  O   UNL     1      35.007 -15.108 -23.300  0.00  0.00    -0.368 OA
BRANCH  11  12
ATOM     12  P   UNL     1      33.759 -14.095 -23.118  0.00  0.00    +0.530 P 
ATOM     13  O   UNL     1      33.094 -14.150 -21.772  0.00  0.00    -0.216 OA
BRANCH  12  14
ATOM     14  O   UNL     1      32.805 -14.435 -24.377  0.00  0.00    -0.293 OA
ATOM     15  H   UNL     1      32.801 -15.393 -24.531  0.00  0.00    +0.223 HD
ENDBRANCH  12  14
BRANCH  12  16
ATOM     16  O   UNL     1      34.396 -12.661 -23.507  0.00  0.00    -0.293 OA
ATOM     17  H   UNL     1      35.364 -12.719 -23.477  0.00  0.00    +0.223 HD
ENDBRANCH  12  16
ENDBRANCH  11  12
ENDBRANCH  10  11
ENDBRANCH   6  10
ENDBRANCH   1   3
BRANCH   1  18
ATOM     18  C   UNL     1      33.423 -21.319 -20.031  0.00  0.00    +0.145 C 
BRANCH  18  25
ATOM     19  O   UNL     1      30.367 -23.026 -16.552  0.00  0.00    -0.206 OA
ATOM     20  N   UNL     1      32.469 -22.358 -18.058  0.00  0.00    -0.391 NA
ATOM     21  N   UNL     1      33.982 -24.114 -15.236  0.00  0.00    -0.259 N 
ATOM     22  N   UNL     1      35.019 -23.112 -17.158  0.00  0.00    -0.246 NA
ATOM     23  N   UNL     1      31.620 -24.069 -14.931  0.00  0.00    -0.300 NA
ATOM     24  N   UNL     1      33.052 -25.089 -13.379  0.00  0.00    -0.320 N 
ATOM     25  C   UNL     1      33.583 -22.065 -18.753  0.00  0.00    +0.132 C 
ATOM     26  C   UNL     1      32.664 -23.035 -16.908  0.00  0.00    +0.255 C 
ATOM     27  C   UNL     1      33.913 -23.415 -16.446  0.00  0.00    +0.173 C 
ATOM     28  C   UNL     1      34.835 -22.435 -18.310  0.00  0.00    +0.183 C 
ATOM     29  C   UNL     1      31.460 -23.375 -16.117  0.00  0.00    +0.240 C 
ATOM     30  C   UNL     1      32.826 -24.401 -14.545  0.00  0.00    +0.249 C 
ATOM     31  H   UNL     1      34.855 -24.399 -14.880  0.00  0.00    +0.157 HD
ATOM     32  H   UNL     1      33.971 -25.323 -13.115  0.00  0.00    +0.146 HD
ATOM     33  H   UNL     1      32.295 -25.346 -12.804  0.00  0.00    +0.146 HD
ENDBRANCH  18  25
ENDBRANCH   1  18
TORSDOF 8
ENDMDL
MODEL 5
REMARK VINA RESULT:     -10.8      1.234      1.753
REMARK  Name = 656948
REMARK  8 active torsions:
REMARK  status: ('A' for Active; 'I' for Inactive)
REMARK    1  A    between atoms: N_1  and  C_3
REMARK    2  A    between atoms: N_1  and  C_18
REMARK    3  A    between atoms: C_6  and  C_10
REMARK    4  A    between atoms: C_10  and  O_11
REMARK    5  A    between atoms: O_11  and  P_12
REMARK    6  A    between atoms: P_12  and  O_14
REMARK    7  A    between atoms: P_12  and  O_16
REMARK    8  A    between atoms: C_18  and  C_25
REMARK                            x       y       z     vdW  Elec       q    Type
REMARK                         _______ _______ _______ _____ _____    ______ ____
ROOT
ATOM      1  N   UNL     1      34.314 -19.613 -22.001  0.00  0.00    -0.327 N 
ATOM      2  H   UNL     1      33.445 -19.555 -22.460  0.00  0.00    +0.147 HD
ENDROOT
BRANCH   1   3
ATOM      3  C   UNL     1      34.412 -20.428 -20.887  0.00  0.00    +0.045 C 
ATOM      4  C   UNL     1      33.259 -20.873 -20.212  0.00  0.00    +0.015 C 
ATOM      5  C   UNL     1      35.667 -20.836 -20.396  0.00  0.00    +0.015 C 
ATOM      6  C   UNL     1      34.611 -22.088 -18.620  0.00  0.00    +0.076 C 
ATOM      7  C   UNL     1      33.357 -21.695 -19.090  0.00  0.00    +0.008 C 
ATOM      8  C   UNL     1      35.765 -21.659 -19.273  0.00  0.00    +0.008 C 
BRANCH   6  10
ATOM      9  O   UNL     1      33.846 -23.743 -17.077  0.00  0.00    -0.245 OA
ATOM     10  C   UNL     1      34.714 -22.945 -17.450  0.00  0.00    +0.348 C 
BRANCH  10  11
ATOM     11  O   UNL     1      35.895 -22.771 -16.793  0.00  0.00    -0.368 OA
BRANCH  11  12
ATOM     12  P   UNL     1      36.219 -23.263 -15.287  0.00  0.00    +0.530 P 
ATOM     13  O   UNL     1      37.555 -22.828 -14.755  0.00  0.00    -0.216 OA
BRANCH  12  14
ATOM     14  O   UNL     1      35.985 -24.861 -15.348  0.00  0.00    -0.293 OA
ATOM     15  H   UNL     1      36.199 -25.185 -16.237  0.00  0.00    +0.223 HD
ENDBRANCH  12  14
BRANCH  12  16
ATOM     16  O   UNL     1      34.944 -22.730 -14.448  0.00  0.00    -0.293 OA
ATOM     17  H   UNL     1      35.217 -22.525 -13.541  0.00  0.00    +0.223 HD
ENDBRANCH  12  16
ENDBRANCH  11  12
ENDBRANCH  10  11
ENDBRANCH   6  10
ENDBRANCH   1   3
BRANCH   1  18
ATOM     18  C   UNL     1      35.420 -18.840 -22.527  0.00  0.00    +0.145 C 
BRANCH  18  25
ATOM     19  O   UNL     1      34.589 -14.401 -20.534  0.00  0.00    -0.206 OA
ATOM     20  N   UNL     1      34.851 -16.512 -22.149  0.00  0.00    -0.391 NA
ATOM     21  N   UNL     1      33.679 -13.880 -24.392  0.00  0.00    -0.259 N 
ATOM     22  N   UNL     1      34.221 -16.172 -24.863  0.00  0.00    -0.246 NA
ATOM     23  N   UNL     1      33.867 -12.983 -22.194  0.00  0.00    -0.300 NA
ATOM     24  N   UNL     1      33.147 -11.681 -24.006  0.00  0.00    -0.320 N 
ATOM     25  C   UNL     1      34.955 -17.520 -23.035  0.00  0.00    +0.132 C 
ATOM     26  C   UNL     1      34.427 -15.337 -22.656  0.00  0.00    +0.255 C 
ATOM     27  C   UNL     1      34.109 -15.148 -23.991  0.00  0.00    +0.173 C 
ATOM     28  C   UNL     1      34.645 -17.353 -24.367  0.00  0.00    +0.183 C 
ATOM     29  C   UNL     1      34.300 -14.205 -21.711  0.00  0.00    +0.240 C 
ATOM     30  C   UNL     1      33.581 -12.865 -23.466  0.00  0.00    +0.249 C 
ATOM     31  H   UNL     1      33.446 -13.713 -25.334  0.00  0.00    +0.157 HD
ATOM     32  H   UNL     1      32.939 -11.625 -24.967  0.00  0.00    +0.146 HD
ATOM     33  H   UNL     1      33.040 -10.888 -23.433  0.00  0.00    +0.146 HD
ENDBRANCH  18  25
ENDBRANCH   1  18
TORSDOF 8
ENDMDL
MODEL 6
REMARK VINA RESULT:     -10.5      4.516     10.229
REMARK  Name = 656948
REMARK  8 active torsions:
REMARK  status: ('A' for Active; 'I' for Inactive)
REMARK    1  A    between atoms: N_1  and  C_3
REMARK    2  A    between atoms: N_1  and  C_18
REMARK    3  A    between atoms: C_6  and  C_10
REMARK    4  A    between atoms: C_10  and  O_11
REMARK    5  A    between atoms: O_11  and  P_12
REMARK    6  A    between atoms: P_12  and  O_14
REMARK    7  A    between atoms: P_12  and  O_16
REMARK    8  A    between atoms: C_18  and  C_25
REMARK                            x       y       z     vdW  Elec       q    Type
REMARK                         _______ _______ _______ _____ _____    ______ ____
ROOT
ATOM      1  N   UNL     1      34.914 -20.828 -20.613  0.00  0.00    -0.327 N 
ATOM      2  H   UNL     1      34.131 -21.425 -20.641  0.00  0.00    +0.147 HD
ENDROOT
BRANCH   1   3
ATOM      3  C   UNL     1      34.917 -19.716 -21.436  0.00  0.00    +0.045 C 
ATOM      4  C   UNL     1      35.328 -18.458 -20.953  0.00  0.00    +0.015 C 
ATOM      5  C   UNL     1      34.508 -19.809 -22.781  0.00  0.00    +0.015 C 
ATOM      6  C   UNL     1      34.922 -17.452 -23.112  0.00  0.00    +0.076 C 
ATOM      7  C   UNL     1      35.331 -17.338 -21.783  0.00  0.00    +0.008 C 
ATOM      8  C   UNL     1      34.511 -18.687 -23.611  0.00  0.00    +0.008 C 
BRANCH   6  10
ATOM      9  O   UNL     1      34.905 -16.315 -25.213  0.00  0.00    -0.245 OA
ATOM     10  C   UNL     1      34.926 -16.283 -23.977  0.00  0.00    +0.348 C 
BRANCH  10  11
ATOM     11  O   UNL     1      34.957 -15.122 -23.264  0.00  0.00    -0.368 OA
BRANCH  11  12
ATOM     12  P   UNL     1      33.817 -13.975 -23.276  0.00  0.00    +0.530 P 
ATOM     13  O   UNL     1      34.321 -12.587 -23.551  0.00  0.00    -0.216 OA
BRANCH  12  14
ATOM     14  O   UNL     1      33.065 -14.170 -21.858  0.00  0.00    -0.293 OA
ATOM     15  H   UNL     1      33.577 -14.779 -21.301  0.00  0.00    +0.223 HD
ENDBRANCH  12  14
BRANCH  12  16
ATOM     16  O   UNL     1      32.746 -14.539 -24.348  0.00  0.00    -0.293 OA
ATOM     17  H   UNL     1      31.891 -14.105 -24.208  0.00  0.00    +0.223 HD
ENDBRANCH  12  16
ENDBRANCH  11  12
ENDBRANCH  10  11
ENDBRANCH   6  10
ENDBRANCH   1   3
BRANCH   1  18
ATOM     18  C   UNL     1      36.000 -21.162 -19.715  0.00  0.00    +0.145 C 
BRANCH  18  25
ATOM     19  O   UNL     1      37.889 -22.616 -15.393  0.00  0.00    -0.206 OA
ATOM     20  N   UNL     1      36.353 -22.150 -17.528  0.00  0.00    -0.391 NA
ATOM     21  N   UNL     1      34.202 -24.163 -15.370  0.00  0.00    -0.259 N 
ATOM     22  N   UNL     1      33.759 -23.223 -17.536  0.00  0.00    -0.246 NA
ATOM     23  N   UNL     1      36.299 -23.853 -14.284  0.00  0.00    -0.300 NA
ATOM     24  N   UNL     1      34.564 -25.086 -13.300  0.00  0.00    -0.320 N 
ATOM     25  C   UNL     1      35.510 -21.964 -18.561  0.00  0.00    +0.132 C 
ATOM     26  C   UNL     1      35.865 -22.882 -16.506  0.00  0.00    +0.255 C 
ATOM     27  C   UNL     1      34.590 -23.421 -16.490  0.00  0.00    +0.173 C 
ATOM     28  C   UNL     1      34.237 -22.492 -18.564  0.00  0.00    +0.183 C 
ATOM     29  C   UNL     1      36.765 -23.107 -15.352  0.00  0.00    +0.240 C 
ATOM     30  C   UNL     1      35.084 -24.338 -14.327  0.00  0.00    +0.249 C 
ATOM     31  H   UNL     1      33.302 -24.559 -15.328  0.00  0.00    +0.157 HD
ATOM     32  H   UNL     1      33.646 -25.437 -13.363  0.00  0.00    +0.146 HD
ATOM     33  H   UNL     1      35.109 -25.274 -12.503  0.00  0.00    +0.146 HD
ENDBRANCH  18  25
ENDBRANCH   1  18
TORSDOF 8
ENDMDL
MODEL 7
REMARK VINA RESULT:     -10.4      5.933     10.472
REMARK  Name = 656948
REMARK  8 active torsions:
REMARK  status: ('A' for Active; 'I' for Inactive)
REMARK    1  A    between atoms: N_1  and  C_3
REMARK    2  A    between atoms: N_1  and  C_18
REMARK    3  A    between atoms: C_6  and  C_10
REMARK    4  A    between atoms: C_10  and  O_11
REMARK    5  A    between atoms: O_11  and  P_12
REMARK    6  A    between atoms: P_12  and  O_14
REMARK    7  A    between atoms: P_12  and  O_16
REMARK    8  A    between atoms: C_18  and  C_25
REMARK                            x       y       z     vdW  Elec       q    Type
REMARK                         _______ _______ _______ _____ _____    ______ ____
ROOT
ATOM      1  N   UNL     1      33.405 -23.683 -17.667  0.00  0.00    -0.327 N 
ATOM      2  H   UNL     1      33.728 -24.584 -17.899  0.00  0.00    +0.147 HD
ENDROOT
BRANCH   1   3
ATOM      3  C   UNL     1      33.729 -22.635 -18.510  0.00  0.00    +0.045 C 
ATOM      4  C   UNL     1      35.070 -22.364 -18.845  0.00  0.00    +0.015 C 
ATOM      5  C   UNL     1      32.728 -21.808 -19.056  0.00  0.00    +0.015 C 
ATOM      6  C   UNL     1      34.390 -20.501 -20.225  0.00  0.00    +0.076 C 
ATOM      7  C   UNL     1      35.397 -21.308 -19.695  0.00  0.00    +0.008 C 
ATOM      8  C   UNL     1      33.056 -20.751 -19.906  0.00  0.00    +0.008 C 
BRANCH   6  10
ATOM      9  O   UNL     1      35.624 -18.569 -20.901  0.00  0.00    -0.245 OA
ATOM     10  C   UNL     1      34.732 -19.400 -21.111  0.00  0.00    +0.348 C 
BRANCH  10  11
ATOM     11  O   UNL     1      33.945 -19.378 -22.224  0.00  0.00    -0.368 OA
BRANCH  11  12
ATOM     12  P   UNL     1      34.465 -19.218 -23.747  0.00  0.00    +0.530 P 
ATOM     13  O   UNL     1      35.134 -20.436 -24.316  0.00  0.00    -0.216 OA
BRANCH  12  14
ATOM     14  O   UNL     1      35.379 -17.885 -23.699  0.00  0.00    -0.293 OA
ATOM     15  H   UNL     1      36.314 -18.136 -23.629  0.00  0.00    +0.223 HD
ENDBRANCH  12  14
BRANCH  12  16
ATOM     16  O   UNL     1      33.139 -18.734 -24.535  0.00  0.00    -0.293 OA
ATOM     17  H   UNL     1      32.366 -19.201 -24.182  0.00  0.00    +0.223 HD
ENDBRANCH  12  16
ENDBRANCH  11  12
ENDBRANCH  10  11
ENDBRANCH   6  10
ENDBRANCH   1   3
BRANCH   1  18
ATOM     18  C   UNL     1      32.616 -23.527 -16.463  0.00  0.00    +0.145 C 
BRANCH  18  25
ATOM     19  O   UNL     1      37.411 -23.050 -15.395  0.00  0.00    -0.206 OA
ATOM     20  N   UNL     1      34.775 -23.477 -15.358  0.00  0.00    -0.391 NA
ATOM     21  N   UNL     1      35.793 -24.217 -11.930  0.00  0.00    -0.259 N 
ATOM     22  N   UNL     1      33.613 -24.295 -12.937  0.00  0.00    -0.246 NA
ATOM     23  N   UNL     1      37.720 -23.585 -13.180  0.00  0.00    -0.300 NA
ATOM     24  N   UNL     1      37.849 -24.161 -10.911  0.00  0.00    -0.320 N 
ATOM     25  C   UNL     1      33.455 -23.714 -15.247  0.00  0.00    +0.132 C 
ATOM     26  C   UNL     1      35.493 -23.659 -14.231  0.00  0.00    +0.255 C 
ATOM     27  C   UNL     1      34.940 -24.063 -13.028  0.00  0.00    +0.173 C 
ATOM     28  C   UNL     1      32.885 -24.116 -14.058  0.00  0.00    +0.183 C 
ATOM     29  C   UNL     1      36.949 -23.408 -14.316  0.00  0.00    +0.240 C 
ATOM     30  C   UNL     1      37.141 -23.968 -12.071  0.00  0.00    +0.249 C 
ATOM     31  H   UNL     1      35.431 -24.503 -11.060  0.00  0.00    +0.157 HD
ATOM     32  H   UNL     1      37.384 -24.451 -10.093  0.00  0.00    +0.146 HD
ATOM     33  H   UNL     1      38.822 -24.012 -10.898  0.00  0.00    +0.146 HD
ENDBRANCH  18  25
ENDBRANCH   1  18
TORSDOF 8
ENDMDL
MODEL 8
REMARK VINA RESULT:     -10.3      1.397      2.176
REMARK  Name = 656948
REMARK  8 active torsions:
REMARK  status: ('A' for Active; 'I' for Inactive)
REMARK    1  A    between atoms: N_1  and  C_3
REMARK    2  A    between atoms: N_1  and  C_18
REMARK    3  A    between atoms: C_6  and  C_10
REMARK    4  A    between atoms: C_10  and  O_11
REMARK    5  A    between atoms: O_11  and  P_12
REMARK    6  A    between atoms: P_12  and  O_14
REMARK    7  A    between atoms: P_12  and  O_16
REMARK    8  A    between atoms: C_18  and  C_25
REMARK                            x       y       z     vdW  Elec       q    Type
REMARK                         _______ _______ _______ _____ _____    ______ ____
ROOT
ATOM      1  N   UNL     1      34.448 -19.825 -21.634  0.00  0.00    -0.327 N 
ATOM      2  H   UNL     1      33.740 -19.840 -22.318  0.00  0.00    +0.147 HD
ENDROOT
BRANCH   1   3
ATOM      3  C   UNL     1      34.308 -20.648 -20.531  0.00  0.00    +0.045 C 
ATOM      4  C   UNL     1      35.434 -21.219 -19.906  0.00  0.00    +0.015 C 
ATOM      5  C   UNL     1      33.036 -20.940 -20.002  0.00  0.00    +0.015 C 
ATOM      6  C   UNL     1      34.024 -22.326 -18.286  0.00  0.00    +0.076 C 
ATOM      7  C   UNL     1      35.294 -22.049 -18.795  0.00  0.00    +0.008 C 
ATOM      8  C   UNL     1      32.896 -21.771 -18.889  0.00  0.00    +0.008 C 
BRANCH   6  10
ATOM      9  O   UNL     1      34.812 -23.726 -16.518  0.00  0.00    -0.245 OA
ATOM     10  C   UNL     1      33.878 -23.191 -17.127  0.00  0.00    +0.348 C 
BRANCH  10  11
ATOM     11  O   UNL     1      32.571 -23.354 -16.774  0.00  0.00    -0.368 OA
BRANCH  11  12
ATOM     12  P   UNL     1      32.019 -23.577 -15.271  0.00  0.00    +0.530 P 
ATOM     13  O   UNL     1      32.092 -24.994 -14.776  0.00  0.00    -0.216 OA
BRANCH  12  14
ATOM     14  O   UNL     1      30.537 -22.933 -15.309  0.00  0.00    -0.293 OA
ATOM     15  H   UNL     1      30.603 -21.967 -15.251  0.00  0.00    +0.223 HD
ENDBRANCH  12  14
BRANCH  12  16
ATOM     16  O   UNL     1      32.871 -22.507 -14.409  0.00  0.00    -0.293 OA
ATOM     17  H   UNL     1      33.566 -22.125 -14.966  0.00  0.00    +0.223 HD
ENDBRANCH  12  16
ENDBRANCH  11  12
ENDBRANCH  10  11
ENDBRANCH   6  10
ENDBRANCH   1   3
BRANCH   1  18
ATOM     18  C   UNL     1      35.577 -18.941 -21.836  0.00  0.00    +0.145 C 
BRANCH  18  25
ATOM     19  O   UNL     1      33.891 -16.064 -25.475  0.00  0.00    -0.206 OA
ATOM     20  N   UNL     1      34.729 -17.092 -23.157  0.00  0.00    -0.391 NA
ATOM     21  N   UNL     1      33.911 -13.638 -22.297  0.00  0.00    -0.259 N 
ATOM     22  N   UNL     1      34.751 -15.410 -20.909  0.00  0.00    -0.246 NA
ATOM     23  N   UNL     1      33.475 -13.973 -24.615  0.00  0.00    -0.300 NA
ATOM     24  N   UNL     1      33.108 -11.906 -23.571  0.00  0.00    -0.320 N 
ATOM     25  C   UNL     1      35.134 -17.525 -21.948  0.00  0.00    +0.132 C 
ATOM     26  C   UNL     1      34.337 -15.802 -23.209  0.00  0.00    +0.255 C 
ATOM     27  C   UNL     1      34.341 -14.956 -22.113  0.00  0.00    +0.173 C 
ATOM     28  C   UNL     1      35.145 -16.698 -20.845  0.00  0.00    +0.183 C 
ATOM     29  C   UNL     1      33.885 -15.291 -24.522  0.00  0.00    +0.240 C 
ATOM     30  C   UNL     1      33.502 -13.221 -23.545  0.00  0.00    +0.249 C 
ATOM     31  H   UNL     1      33.901 -13.011 -21.538  0.00  0.00    +0.157 HD
ATOM     32  H   UNL     1      33.141 -11.365 -22.748  0.00  0.00    +0.146 HD
ATOM     33  H   UNL     1      32.797 -11.502 -24.413  0.00  0.00    +0.146 HD
ENDBRANCH  18  25
ENDBRANCH   1  18
TORSDOF 8
ENDMDL
MODEL 9
REMARK VINA RESULT:     -10.2      3.849      5.960
REMARK  Name = 656948
REMARK  8 active torsions:
REMARK  status: ('A' for Active; 'I' for Inactive)
REMARK    1  A    between atoms: N_1  and  C_3
REMARK    2  A    between atoms: N_1  and  C_18
REMARK    3  A    between atoms: C_6  and  C_10
REMARK    4  A    between atoms: C_10  and  O_11
REMARK    5  A    between atoms: O_11  and  P_12
REMARK    6  A    between atoms: P_12  and  O_14
REMARK    7  A    between atoms: P_12  and  O_16
REMARK    8  A    between atoms: C_18  and  C_25
REMARK                            x       y       z     vdW  Elec       q    Type
REMARK                         _______ _______ _______ _____ _____    ______ ____
ROOT
ATOM      1  N   UNL     1      35.684 -22.721 -16.782  0.00  0.00    -0.327 N 
ATOM      2  H   UNL     1      34.729 -22.624 -16.998  0.00  0.00    +0.147 HD
ENDROOT
BRANCH   1   3
ATOM      3  C   UNL     1      36.033 -23.501 -15.694  0.00  0.00    +0.045 C 
ATOM      4  C   UNL     1      35.181 -24.523 -15.232  0.00  0.00    +0.015 C 
ATOM      5  C   UNL     1      37.251 -23.296 -15.017  0.00  0.00    +0.015 C 
ATOM      6  C   UNL     1      36.744 -25.089 -13.479  0.00  0.00    +0.076 C 
ATOM      7  C   UNL     1      35.533 -25.309 -14.136  0.00  0.00    +0.008 C 
ATOM      8  C   UNL     1      37.602 -24.083 -13.919  0.00  0.00    +0.008 C 
BRANCH   6  10
ATOM      9  O   UNL     1      38.082 -26.673 -12.292  0.00  0.00    -0.245 OA
ATOM     10  C   UNL     1      37.110 -25.909 -12.336  0.00  0.00    +0.348 C 
BRANCH  10  11
ATOM     11  O   UNL     1      36.248 -25.745 -11.293  0.00  0.00    -0.368 OA
BRANCH  11  12
ATOM     12  P   UNL     1      35.963 -24.358 -10.512  0.00  0.00    +0.530 P 
ATOM     13  O   UNL     1      37.136 -23.424 -10.438  0.00  0.00    -0.216 OA
BRANCH  12  14
ATOM     14  O   UNL     1      35.368 -24.837  -9.088  0.00  0.00    -0.293 OA
ATOM     15  H   UNL     1      35.516 -24.144  -8.425  0.00  0.00    +0.223 HD
ENDBRANCH  12  14
BRANCH  12  16
ATOM     16  O   UNL     1      34.668 -23.769 -11.280  0.00  0.00    -0.293 OA
ATOM     17  H   UNL     1      34.343 -24.425 -11.916  0.00  0.00    +0.223 HD
ENDBRANCH  12  16
ENDBRANCH  11  12
ENDBRANCH  10  11
ENDBRANCH   6  10
ENDBRANCH   1   3
BRANCH   1  18
ATOM     18  C   UNL     1      36.648 -22.039 -17.620  0.00  0.00    +0.145 C 
BRANCH  18  25
ATOM     19  O   UNL     1      37.994 -18.812 -21.105  0.00  0.00    -0.206 OA
ATOM     20  N   UNL     1      36.708 -20.543 -19.529  0.00  0.00    -0.391 NA
ATOM     21  N   UNL     1      34.192 -19.644 -22.019  0.00  0.00    -0.259 N 
ATOM     22  N   UNL     1      34.038 -21.147 -20.151  0.00  0.00    -0.246 NA
ATOM     23  N   UNL     1      36.202 -18.460 -22.501  0.00  0.00    -0.300 NA
ATOM     24  N   UNL     1      34.276 -18.222 -23.819  0.00  0.00    -0.320 N 
ATOM     25  C   UNL     1      35.984 -21.406 -18.792  0.00  0.00    +0.132 C 
ATOM     26  C   UNL     1      36.064 -19.996 -20.580  0.00  0.00    +0.255 C 
ATOM     27  C   UNL     1      34.747 -20.279 -20.903  0.00  0.00    +0.173 C 
ATOM     28  C   UNL     1      34.672 -21.701 -19.097  0.00  0.00    +0.183 C 
ATOM     29  C   UNL     1      36.829 -19.043 -21.414  0.00  0.00    +0.240 C 
ATOM     30  C   UNL     1      34.955 -18.766 -22.756  0.00  0.00    +0.249 C 
ATOM     31  H   UNL     1      33.258 -19.824 -22.275  0.00  0.00    +0.157 HD
ATOM     32  H   UNL     1      33.338 -18.473 -23.983  0.00  0.00    +0.146 HD
ATOM     33  H   UNL     1      34.727 -17.581 -24.414  0.00  0.00    +0.146 HD
ENDBRANCH  18  25
ENDBRANCH   1  18
TORSDOF 8
ENDMDL
