MODEL 1
REMARK VINA RESULT:     -12.6      0.000      0.000
REMARK  Name = 9826451
REMARK  9 active torsions:
REMARK  status: ('A' for Active; 'I' for Inactive)
REMARK    1  A    between atoms: C_1  and  N_2
REMARK    2  A    between atoms: C_1  and  C_19
REMARK    3  A    between atoms: C_8  and  O_10
REMARK    4  A    between atoms: O_10  and  C_11
REMARK    5  A    between atoms: C_14  and  O_17
REMARK    6  A    between atoms: C_19  and  O_20
REMARK    7  A    between atoms: O_20  and  C_24
REMARK    8  A    between atoms: C_21  and  C_27
REMARK    9  A    between atoms: C_27  and  C_32
REMARK                            x       y       z     vdW  Elec       q    Type
REMARK                         _______ _______ _______ _____ _____    ______ ____
ROOT
ATOM      1  C   UNL     1      35.895 -22.347 -17.354  0.00  0.00    +0.139 C 
ENDROOT
BRANCH   1   2
ATOM      2  N   UNL     1      34.661 -22.907 -16.856  0.00  0.00    -0.291 N 
ATOM      3  C   UNL     1      33.500 -22.944 -17.746  0.00  0.00    +0.113 C 
ATOM      4  N   UNL     1      35.642 -23.353 -14.747  0.00  0.00    -0.233 NA
ATOM      5  N   UNL     1      34.319 -24.361 -13.005  0.00  0.00    -0.214 NA
ATOM      6  C   UNL     1      34.557 -23.397 -15.548  0.00  0.00    +0.115 C 
ATOM      7  C   UNL     1      33.334 -23.902 -15.153  0.00  0.00    +0.146 C 
ATOM      8  C   UNL     1      33.274 -24.375 -13.857  0.00  0.00    +0.210 C 
ATOM      9  C   UNL     1      35.455 -23.843 -13.507  0.00  0.00    +0.254 C 
BRANCH   8  10
ATOM     10  O   UNL     1      32.094 -24.893 -13.390  0.00  0.00    -0.440 OA
BRANCH  10  11
ATOM     11  C   UNL     1      30.942 -24.566 -14.076  0.00  0.00    +0.147 C 
ATOM     12  C   UNL     1      30.167 -25.568 -14.659  0.00  0.00    +0.041 C 
ATOM     13  C   UNL     1      30.551 -23.230 -14.184  0.00  0.00    +0.041 C 
ATOM     14  C   UNL     1      28.613 -23.902 -15.460  0.00  0.00    +0.139 C 
ATOM     15  C   UNL     1      29.003 -25.237 -15.351  0.00  0.00    +0.040 C 
ATOM     16  C   UNL     1      29.386 -22.899 -14.875  0.00  0.00    +0.040 C 
BRANCH  14  17
ATOM     17  O   UNL     1      27.475 -23.578 -16.135  0.00  0.00    -0.471 OA
ATOM     18  C   UNL     1      26.728 -22.463 -15.651  0.00  0.00    +0.252 C 
ENDBRANCH  14  17
ENDBRANCH  10  11
ENDBRANCH   8  10
ENDBRANCH   1   2
BRANCH   1  19
ATOM     19  C   UNL     1      35.772 -22.055 -18.840  0.00  0.00    +0.227 C 
BRANCH  19  20
ATOM     20  O   UNL     1      36.410 -20.814 -19.134  0.00  0.00    -0.474 OA
BRANCH  20  24
ATOM     21  C   UNL     1      35.067 -18.737 -22.467  0.00  0.00    -0.021 C 
ATOM     22  C   UNL     1      34.203 -19.593 -21.784  0.00  0.00    -0.001 C 
ATOM     23  C   UNL     1      36.382 -18.580 -22.030  0.00  0.00    -0.001 C 
ATOM     24  C   UNL     1      35.969 -20.134 -20.227  0.00  0.00    +0.139 C 
ATOM     25  C   UNL     1      34.654 -20.291 -20.664  0.00  0.00    +0.037 C 
ATOM     26  C   UNL     1      36.833 -19.279 -20.911  0.00  0.00    +0.037 C 
BRANCH  21  27
ATOM     27  C   UNL     1      34.578 -17.983 -23.677  0.00  0.00    +0.047 C 
BRANCH  27  32
ATOM     28  S   UNL     1      34.773 -15.868 -21.923  0.00  0.00    -0.048 S 
ATOM     29  O   UNL     1      33.860 -15.861 -25.673  0.00  0.00    -0.274 OA
ATOM     30  O   UNL     1      33.201 -13.787 -21.600  0.00  0.00    -0.263 OA
ATOM     31  N   UNL     1      33.415 -14.683 -23.732  0.00  0.00    -0.246 N 
ATOM     32  C   UNL     1      34.949 -16.512 -23.616  0.00  0.00    +0.137 C 
ATOM     33  C   UNL     1      34.027 -15.673 -24.472  0.00  0.00    +0.239 C 
ATOM     34  C   UNL     1      33.662 -14.598 -22.388  0.00  0.00    +0.279 C 
ATOM     35  H   UNL     1      32.804 -14.045 -24.167  0.00  0.00    +0.158 HD
ENDBRANCH  27  32
ENDBRANCH  21  27
ENDBRANCH  20  24
ENDBRANCH  19  20
ENDBRANCH   1  19
TORSDOF 9
ENDMDL
MODEL 2
REMARK VINA RESULT:     -12.0      3.541     11.631
REMARK  Name = 9826451
REMARK  9 active torsions:
REMARK  status: ('A' for Active; 'I' for Inactive)
REMARK    1  A    between atoms: C_1  and  N_2
REMARK    2  A    between atoms: C_1  and  C_19
REMARK    3  A    between atoms: C_8  and  O_10
REMARK    4  A    between atoms: O_10  and  C_11
REMARK    5  A    between atoms: C_14  and  O_17
REMARK    6  A    between atoms: C_19  and  O_20
REMARK    7  A    between atoms: O_20  and  C_24
REMARK    8  A    between atoms: C_21  and  C_27
REMARK    9  A    between atoms: C_27  and  C_32
REMARK                            x       y       z     vdW  Elec       q    Type
REMARK                         _______ _______ _______ _____ _____    ______ ____
ROOT
ATOM      1  C   UNL     1      35.871 -17.740 -22.450  0.00  0.00    +0.139 C 
ENDROOT
BRANCH   1   2
ATOM      2  N   UNL     1      34.964 -16.811 -23.081  0.00  0.00    -0.291 N 
ATOM      3  C   UNL     1      34.600 -17.031 -24.481  0.00  0.00    +0.113 C 
ATOM      4  N   UNL     1      34.795 -15.531 -21.095  0.00  0.00    -0.233 NA
ATOM      5  N   UNL     1      33.414 -13.558 -21.061  0.00  0.00    -0.214 NA
ATOM      6  C   UNL     1      34.445 -15.711 -22.386  0.00  0.00    +0.115 C 
ATOM      7  C   UNL     1      33.595 -14.868 -23.073  0.00  0.00    +0.146 C 
ATOM      8  C   UNL     1      33.105 -13.797 -22.352  0.00  0.00    +0.210 C 
ATOM      9  C   UNL     1      34.252 -14.451 -20.503  0.00  0.00    +0.254 C 
BRANCH   8  10
ATOM     10  O   UNL     1      32.254 -12.914 -22.964  0.00  0.00    -0.440 OA
BRANCH  10  11
ATOM     11  C   UNL     1      32.278 -11.605 -22.528  0.00  0.00    +0.147 C 
ATOM     12  C   UNL     1      31.504 -11.219 -21.433  0.00  0.00    +0.041 C 
ATOM     13  C   UNL     1      33.078 -10.666 -23.181  0.00  0.00    +0.041 C 
ATOM     14  C   UNL     1      32.328  -8.959 -21.646  0.00  0.00    +0.139 C 
ATOM     15  C   UNL     1      31.528  -9.897 -20.993  0.00  0.00    +0.040 C 
ATOM     16  C   UNL     1      33.103  -9.344 -22.740  0.00  0.00    +0.040 C 
BRANCH  14  17
ATOM     17  O   UNL     1      32.353  -7.667 -21.216  0.00  0.00    -0.471 OA
ATOM     18  C   UNL     1      32.961  -7.416 -19.950  0.00  0.00    +0.252 C 
ENDBRANCH  14  17
ENDBRANCH  10  11
ENDBRANCH   8  10
ENDBRANCH   1   2
BRANCH   1  19
ATOM     19  C   UNL     1      35.106 -18.950 -21.940  0.00  0.00    +0.227 C 
BRANCH  19  20
ATOM     20  O   UNL     1      35.887 -19.626 -20.956  0.00  0.00    -0.474 OA
BRANCH  20  24
ATOM     21  C   UNL     1      33.950 -22.451 -18.614  0.00  0.00    -0.021 C 
ATOM     22  C   UNL     1      33.207 -21.569 -19.399  0.00  0.00    -0.001 C 
ATOM     23  C   UNL     1      35.343 -22.383 -18.616  0.00  0.00    -0.001 C 
ATOM     24  C   UNL     1      35.252 -20.552 -20.188  0.00  0.00    +0.139 C 
ATOM     25  C   UNL     1      33.858 -20.619 -20.186  0.00  0.00    +0.037 C 
ATOM     26  C   UNL     1      35.993 -21.433 -19.402  0.00  0.00    +0.037 C 
BRANCH  21  27
ATOM     27  C   UNL     1      33.245 -23.477 -17.764  0.00  0.00    +0.047 C 
BRANCH  27  32
ATOM     28  S   UNL     1      33.752 -23.766 -15.072  0.00  0.00    -0.048 S 
ATOM     29  O   UNL     1      30.485 -22.737 -16.849  0.00  0.00    -0.274 OA
ATOM     30  O   UNL     1      32.302 -24.884 -13.187  0.00  0.00    -0.263 OA
ATOM     31  N   UNL     1      31.203 -23.837 -14.945  0.00  0.00    -0.246 N 
ATOM     32  C   UNL     1      32.854 -22.917 -16.407  0.00  0.00    +0.137 C 
ATOM     33  C   UNL     1      31.386 -23.139 -16.120  0.00  0.00    +0.239 C 
ATOM     34  C   UNL     1      32.296 -24.258 -14.235  0.00  0.00    +0.279 C 
ATOM     35  H   UNL     1      30.294 -24.033 -14.621  0.00  0.00    +0.158 HD
ENDBRANCH  27  32
ENDBRANCH  21  27
ENDBRANCH  20  24
ENDBRANCH  19  20
ENDBRANCH   1  19
TORSDOF 9
ENDMDL
MODEL 3
REMARK VINA RESULT:     -11.8      1.242      2.141
REMARK  Name = 9826451
REMARK  9 active torsions:
REMARK  status: ('A' for Active; 'I' for Inactive)
REMARK    1  A    between atoms: C_1  and  N_2
REMARK    2  A    between atoms: C_1  and  C_19
REMARK    3  A    between atoms: C_8  and  O_10
REMARK    4  A    between atoms: O_10  and  C_11
REMARK    5  A    between atoms: C_14  and  O_17
REMARK    6  A    between atoms: C_19  and  O_20
REMARK    7  A    between atoms: O_20  and  C_24
REMARK    8  A    between atoms: C_21  and  C_27
REMARK    9  A    between atoms: C_27  and  C_32
REMARK                            x       y       z     vdW  Elec       q    Type
REMARK                         _______ _______ _______ _____ _____    ______ ____
ROOT
ATOM      1  C   UNL     1      35.729 -23.008 -16.434  0.00  0.00    +0.139 C 
ENDROOT
BRANCH   1   2
ATOM      2  N   UNL     1      34.336 -23.350 -16.273  0.00  0.00    -0.291 N 
ATOM      3  C   UNL     1      33.437 -23.180 -17.416  0.00  0.00    +0.113 C 
ATOM      4  N   UNL     1      34.685 -23.974 -14.015  0.00  0.00    -0.233 NA
ATOM      5  N   UNL     1      32.829 -24.752 -12.692  0.00  0.00    -0.214 NA
ATOM      6  C   UNL     1      33.836 -23.825 -15.054  0.00  0.00    +0.115 C 
ATOM      7  C   UNL     1      32.488 -24.114 -14.988  0.00  0.00    +0.146 C 
ATOM      8  C   UNL     1      32.036 -24.579 -13.769  0.00  0.00    +0.210 C 
ATOM      9  C   UNL     1      34.123 -24.434 -12.882  0.00  0.00    +0.254 C 
BRANCH   8  10
ATOM     10  O   UNL     1      30.709 -24.890 -13.624  0.00  0.00    -0.440 OA
BRANCH  10  11
ATOM     11  C   UNL     1      29.830 -24.367 -14.551  0.00  0.00    +0.147 C 
ATOM     12  C   UNL     1      29.627 -22.988 -14.621  0.00  0.00    +0.041 C 
ATOM     13  C   UNL     1      29.144 -25.218 -15.418  0.00  0.00    +0.041 C 
ATOM     14  C   UNL     1      28.054 -23.311 -16.424  0.00  0.00    +0.139 C 
ATOM     15  C   UNL     1      28.739 -22.461 -15.557  0.00  0.00    +0.040 C 
ATOM     16  C   UNL     1      28.257 -24.690 -16.355  0.00  0.00    +0.040 C 
BRANCH  14  17
ATOM     17  O   UNL     1      27.187 -22.797 -17.340  0.00  0.00    -0.471 OA
ATOM     18  C   UNL     1      26.194 -21.892 -16.858  0.00  0.00    +0.252 C 
ENDBRANCH  14  17
ENDBRANCH  10  11
ENDBRANCH   8  10
ENDBRANCH   1   2
BRANCH   1  19
ATOM     19  C   UNL     1      35.863 -21.748 -17.271  0.00  0.00    +0.227 C 
BRANCH  19  20
ATOM     20  O   UNL     1      36.074 -22.104 -18.636  0.00  0.00    -0.474 OA
BRANCH  20  24
ATOM     21  C   UNL     1      36.093 -19.024 -21.417  0.00  0.00    -0.021 C 
ATOM     22  C   UNL     1      37.233 -19.283 -20.657  0.00  0.00    -0.001 C 
ATOM     23  C   UNL     1      34.946 -19.799 -21.243  0.00  0.00    -0.001 C 
ATOM     24  C   UNL     1      36.080 -21.094 -19.548  0.00  0.00    +0.139 C 
ATOM     25  C   UNL     1      37.227 -20.318 -19.722  0.00  0.00    +0.037 C 
ATOM     26  C   UNL     1      34.940 -20.833 -20.308  0.00  0.00    +0.037 C 
BRANCH  21  27
ATOM     27  C   UNL     1      36.100 -17.905 -22.427  0.00  0.00    +0.047 C 
BRANCH  27  32
ATOM     28  S   UNL     1      34.296 -17.635 -24.490  0.00  0.00    -0.048 S 
ATOM     29  O   UNL     1      34.815 -15.401 -21.387  0.00  0.00    -0.274 OA
ATOM     30  O   UNL     1      33.566 -15.495 -25.831  0.00  0.00    -0.263 OA
ATOM     31  N   UNL     1      34.147 -15.248 -23.596  0.00  0.00    -0.246 N 
ATOM     32  C   UNL     1      34.699 -17.406 -22.731  0.00  0.00    +0.137 C 
ATOM     33  C   UNL     1      34.572 -15.922 -22.470  0.00  0.00    +0.239 C 
ATOM     34  C   UNL     1      33.937 -15.943 -24.757  0.00  0.00    +0.279 C 
ATOM     35  H   UNL     1      33.996 -14.275 -23.565  0.00  0.00    +0.158 HD
ENDBRANCH  27  32
ENDBRANCH  21  27
ENDBRANCH  20  24
ENDBRANCH  19  20
ENDBRANCH   1  19
TORSDOF 9
ENDMDL
MODEL 4
REMARK VINA RESULT:     -11.8      3.250     11.540
REMARK  Name = 9826451
REMARK  9 active torsions:
REMARK  status: ('A' for Active; 'I' for Inactive)
REMARK    1  A    between atoms: C_1  and  N_2
REMARK    2  A    between atoms: C_1  and  C_19
REMARK    3  A    between atoms: C_8  and  O_10
REMARK    4  A    between atoms: O_10  and  C_11
REMARK    5  A    between atoms: C_14  and  O_17
REMARK    6  A    between atoms: C_19  and  O_20
REMARK    7  A    between atoms: O_20  and  C_24
REMARK    8  A    between atoms: C_21  and  C_27
REMARK    9  A    between atoms: C_27  and  C_32
REMARK                            x       y       z     vdW  Elec       q    Type
REMARK                         _______ _______ _______ _____ _____    ______ ____
ROOT
ATOM      1  C   UNL     1      35.096 -17.436 -22.370  0.00  0.00    +0.139 C 
ENDROOT
BRANCH   1   2
ATOM      2  N   UNL     1      34.763 -16.038 -22.227  0.00  0.00    -0.291 N 
ATOM      3  C   UNL     1      34.916 -15.414 -20.912  0.00  0.00    +0.113 C 
ATOM      4  N   UNL     1      34.158 -15.884 -24.511  0.00  0.00    -0.233 NA
ATOM      5  N   UNL     1      33.366 -13.789 -25.397  0.00  0.00    -0.214 NA
ATOM      6  C   UNL     1      34.290 -15.285 -23.309  0.00  0.00    +0.115 C 
ATOM      7  C   UNL     1      33.983 -13.960 -23.077  0.00  0.00    +0.146 C 
ATOM      8  C   UNL     1      33.521 -13.253 -24.169  0.00  0.00    +0.210 C 
ATOM      9  C   UNL     1      33.698 -15.090 -25.496  0.00  0.00    +0.254 C 
BRANCH   8  10
ATOM     10  O   UNL     1      33.196 -11.931 -24.020  0.00  0.00    -0.440 OA
BRANCH  10  11
ATOM     11  C   UNL     1      32.584 -11.557 -22.840  0.00  0.00    +0.147 C 
ATOM     12  C   UNL     1      32.368 -10.208 -22.562  0.00  0.00    +0.041 C 
ATOM     13  C   UNL     1      32.181 -12.531 -21.925  0.00  0.00    +0.041 C 
ATOM     14  C   UNL     1      31.347 -10.804 -20.456  0.00  0.00    +0.139 C 
ATOM     15  C   UNL     1      31.750  -9.831 -21.370  0.00  0.00    +0.040 C 
ATOM     16  C   UNL     1      31.562 -12.155 -20.734  0.00  0.00    +0.040 C 
BRANCH  14  17
ATOM     17  O   UNL     1      30.743 -10.437 -19.292  0.00  0.00    -0.471 OA
ATOM     18  C   UNL     1      31.543 -10.451 -18.111  0.00  0.00    +0.252 C 
ENDBRANCH  14  17
ENDBRANCH  10  11
ENDBRANCH   8  10
ENDBRANCH   1   2
BRANCH   1  19
ATOM     19  C   UNL     1      35.190 -18.092 -21.003  0.00  0.00    +0.227 C 
BRANCH  19  20
ATOM     20  O   UNL     1      35.717 -19.409 -21.144  0.00  0.00    -0.474 OA
BRANCH  20  24
ATOM     21  C   UNL     1      34.043 -22.381 -18.779  0.00  0.00    -0.021 C 
ATOM     22  C   UNL     1      33.219 -21.526 -19.511  0.00  0.00    -0.001 C 
ATOM     23  C   UNL     1      35.429 -22.238 -18.842  0.00  0.00    -0.001 C 
ATOM     24  C   UNL     1      35.167 -20.383 -20.368  0.00  0.00    +0.139 C 
ATOM     25  C   UNL     1      33.781 -20.527 -20.306  0.00  0.00    +0.037 C 
ATOM     26  C   UNL     1      35.991 -21.239 -19.635  0.00  0.00    +0.037 C 
BRANCH  21  27
ATOM     27  C   UNL     1      33.434 -23.460 -17.921  0.00  0.00    +0.047 C 
BRANCH  27  32
ATOM     28  S   UNL     1      34.084 -23.846 -15.272  0.00  0.00    -0.048 S 
ATOM     29  O   UNL     1      30.717 -22.792 -16.836  0.00  0.00    -0.274 OA
ATOM     30  O   UNL     1      32.746 -25.055 -13.360  0.00  0.00    -0.263 OA
ATOM     31  N   UNL     1      31.545 -23.956 -15.017  0.00  0.00    -0.246 N 
ATOM     32  C   UNL     1      33.108 -22.959 -16.526  0.00  0.00    +0.137 C 
ATOM     33  C   UNL     1      31.659 -23.210 -16.172  0.00  0.00    +0.239 C 
ATOM     34  C   UNL     1      32.678 -24.390 -14.382  0.00  0.00    +0.279 C 
ATOM     35  H   UNL     1      30.657 -24.175 -14.654  0.00  0.00    +0.158 HD
ENDBRANCH  27  32
ENDBRANCH  21  27
ENDBRANCH  20  24
ENDBRANCH  19  20
ENDBRANCH   1  19
TORSDOF 9
ENDMDL
MODEL 5
REMARK VINA RESULT:     -11.7      4.845     13.276
REMARK  Name = 9826451
REMARK  9 active torsions:
REMARK  status: ('A' for Active; 'I' for Inactive)
REMARK    1  A    between atoms: C_1  and  N_2
REMARK    2  A    between atoms: C_1  and  C_19
REMARK    3  A    between atoms: C_8  and  O_10
REMARK    4  A    between atoms: O_10  and  C_11
REMARK    5  A    between atoms: C_14  and  O_17
REMARK    6  A    between atoms: C_19  and  O_20
REMARK    7  A    between atoms: O_20  and  C_24
REMARK    8  A    between atoms: C_21  and  C_27
REMARK    9  A    between atoms: C_27  and  C_32
REMARK                            x       y       z     vdW  Elec       q    Type
REMARK                         _______ _______ _______ _____ _____    ______ ____
ROOT
ATOM      1  C   UNL     1      33.287 -14.387 -22.595  0.00  0.00    +0.139 C 
ENDROOT
BRANCH   1   2
ATOM      2  N   UNL     1      33.030 -13.058 -23.099  0.00  0.00    -0.291 N 
ATOM      3  C   UNL     1      33.410 -12.747 -24.477  0.00  0.00    +0.113 C 
ATOM      4  N   UNL     1      32.100 -12.387 -21.026  0.00  0.00    -0.233 NA
ATOM      5  N   UNL     1      31.297 -10.132 -20.754  0.00  0.00    -0.214 NA
ATOM      6  C   UNL     1      32.442 -12.074 -22.294  0.00  0.00    +0.115 C 
ATOM      7  C   UNL     1      32.245 -10.828 -22.855  0.00  0.00    +0.146 C 
ATOM      8  C   UNL     1      31.662  -9.887 -22.029  0.00  0.00    +0.210 C 
ATOM      9  C   UNL     1      31.541 -11.383 -20.324  0.00  0.00    +0.254 C 
BRANCH   8  10
ATOM     10  O   UNL     1      31.433  -8.625 -22.513  0.00  0.00    -0.440 OA
BRANCH  10  11
ATOM     11  C   UNL     1      32.498  -7.965 -23.092  0.00  0.00    +0.147 C 
ATOM     12  C   UNL     1      32.416  -7.532 -24.415  0.00  0.00    +0.041 C 
ATOM     13  C   UNL     1      33.658  -7.729 -22.352  0.00  0.00    +0.041 C 
ATOM     14  C   UNL     1      34.650  -6.630 -24.261  0.00  0.00    +0.139 C 
ATOM     15  C   UNL     1      33.491  -6.865 -25.000  0.00  0.00    +0.040 C 
ATOM     16  C   UNL     1      34.733  -7.061 -22.936  0.00  0.00    +0.040 C 
BRANCH  14  17
ATOM     17  O   UNL     1      35.701  -5.977 -24.831  0.00  0.00    -0.471 OA
ATOM     18  C   UNL     1      35.472  -5.359 -26.096  0.00  0.00    +0.252 C 
ENDBRANCH  14  17
ENDBRANCH  10  11
ENDBRANCH   8  10
ENDBRANCH   1   2
BRANCH   1  19
ATOM     19  C   UNL     1      34.758 -14.730 -22.760  0.00  0.00    +0.227 C 
BRANCH  19  20
ATOM     20  O   UNL     1      34.888 -15.866 -23.612  0.00  0.00    -0.474 OA
BRANCH  20  24
ATOM     21  C   UNL     1      35.056 -19.590 -21.788  0.00  0.00    -0.021 C 
ATOM     22  C   UNL     1      35.443 -18.451 -21.083  0.00  0.00    -0.001 C 
ATOM     23  C   UNL     1      34.612 -19.478 -23.106  0.00  0.00    -0.001 C 
ATOM     24  C   UNL     1      34.944 -17.087 -23.014  0.00  0.00    +0.139 C 
ATOM     25  C   UNL     1      35.387 -17.199 -21.696  0.00  0.00    +0.037 C 
ATOM     26  C   UNL     1      34.557 -18.227 -23.718  0.00  0.00    +0.037 C 
BRANCH  21  27
ATOM     27  C   UNL     1      35.117 -20.942 -21.125  0.00  0.00    +0.047 C 
BRANCH  27  32
ATOM     28  S   UNL     1      35.393 -22.146 -18.662  0.00  0.00    -0.048 S 
ATOM     29  O   UNL     1      32.245 -20.637 -20.309  0.00  0.00    -0.274 OA
ATOM     30  O   UNL     1      33.846 -23.890 -17.448  0.00  0.00    -0.263 OA
ATOM     31  N   UNL     1      32.851 -22.319 -18.840  0.00  0.00    -0.246 N 
ATOM     32  C   UNL     1      34.571 -20.904 -19.708  0.00  0.00    +0.137 C 
ATOM     33  C   UNL     1      33.098 -21.248 -19.673  0.00  0.00    +0.239 C 
ATOM     34  C   UNL     1      33.898 -22.936 -18.209  0.00  0.00    +0.279 C 
ATOM     35  H   UNL     1      31.930 -22.637 -18.702  0.00  0.00    +0.158 HD
ENDBRANCH  27  32
ENDBRANCH  21  27
ENDBRANCH  20  24
ENDBRANCH  19  20
ENDBRANCH   1  19
TORSDOF 9
ENDMDL
MODEL 6
REMARK VINA RESULT:     -11.7      3.511     11.243
REMARK  Name = 9826451
REMARK  9 active torsions:
REMARK  status: ('A' for Active; 'I' for Inactive)
REMARK    1  A    between atoms: C_1  and  N_2
REMARK    2  A    between atoms: C_1  and  C_19
REMARK    3  A    between atoms: C_8  and  O_10
REMARK    4  A    between atoms: O_10  and  C_11
REMARK    5  A    between atoms: C_14  and  O_17
REMARK    6  A    between atoms: C_19  and  O_20
REMARK    7  A    between atoms: O_20  and  C_24
REMARK    8  A    between atoms: C_21  and  C_27
REMARK    9  A    between atoms: C_27  and  C_32
REMARK                            x       y       z     vdW  Elec       q    Type
REMARK                         _______ _______ _______ _____ _____    ______ ____
ROOT
ATOM      1  C   UNL     1      34.428 -21.679 -18.781  0.00  0.00    +0.139 C 
ENDROOT
BRANCH   1   2
ATOM      2  N   UNL     1      34.090 -20.878 -19.933  0.00  0.00    -0.291 N 
ATOM      3  C   UNL     1      32.708 -20.894 -20.415  0.00  0.00    +0.113 C 
ATOM      4  N   UNL     1      36.321 -20.107 -20.129  0.00  0.00    -0.233 NA
ATOM      5  N   UNL     1      36.906 -18.588 -21.905  0.00  0.00    -0.214 NA
ATOM      6  C   UNL     1      35.053 -20.105 -20.594  0.00  0.00    +0.115 C 
ATOM      7  C   UNL     1      34.642 -19.380 -21.694  0.00  0.00    +0.146 C 
ATOM      8  C   UNL     1      35.622 -18.632 -22.316  0.00  0.00    +0.210 C 
ATOM      9  C   UNL     1      37.182 -19.338 -20.822  0.00  0.00    +0.254 C 
BRANCH   8  10
ATOM     10  O   UNL     1      35.293 -17.885 -23.416  0.00  0.00    -0.440 OA
BRANCH  10  11
ATOM     11  C   UNL     1      34.789 -16.618 -23.195  0.00  0.00    +0.147 C 
ATOM     12  C   UNL     1      34.182 -15.917 -24.236  0.00  0.00    +0.041 C 
ATOM     13  C   UNL     1      34.888 -16.040 -21.928  0.00  0.00    +0.041 C 
ATOM     14  C   UNL     1      33.772 -14.060 -22.746  0.00  0.00    +0.139 C 
ATOM     15  C   UNL     1      33.673 -14.638 -24.012  0.00  0.00    +0.040 C 
ATOM     16  C   UNL     1      34.379 -14.762 -21.704  0.00  0.00    +0.040 C 
BRANCH  14  17
ATOM     17  O   UNL     1      33.274 -12.812 -22.527  0.00  0.00    -0.471 OA
ATOM     18  C   UNL     1      32.005 -12.723 -21.881  0.00  0.00    +0.252 C 
ENDBRANCH  14  17
ENDBRANCH  10  11
ENDBRANCH   8  10
ENDBRANCH   1   2
BRANCH   1  19
ATOM     19  C   UNL     1      33.561 -22.926 -18.741  0.00  0.00    +0.227 C 
BRANCH  19  20
ATOM     20  O   UNL     1      32.710 -22.875 -17.597  0.00  0.00    -0.474 OA
BRANCH  20  24
ATOM     21  C   UNL     1      34.186 -24.484 -14.067  0.00  0.00    -0.021 C 
ATOM     22  C   UNL     1      34.990 -24.445 -15.205  0.00  0.00    -0.001 C 
ATOM     23  C   UNL     1      32.885 -23.982 -14.115  0.00  0.00    -0.001 C 
ATOM     24  C   UNL     1      33.194 -23.403 -16.440  0.00  0.00    +0.139 C 
ATOM     25  C   UNL     1      34.495 -23.905 -16.392  0.00  0.00    +0.037 C 
ATOM     26  C   UNL     1      32.389 -23.442 -15.301  0.00  0.00    +0.037 C 
BRANCH  21  27
ATOM     27  C   UNL     1      34.722 -25.068 -12.785  0.00  0.00    +0.047 C 
BRANCH  27  32
ATOM     28  S   UNL     1      36.790 -23.250 -12.701  0.00  0.00    -0.048 S 
ATOM     29  O   UNL     1      35.155 -25.231  -9.820  0.00  0.00    -0.274 OA
ATOM     30  O   UNL     1      39.064 -23.333 -11.385  0.00  0.00    -0.263 OA
ATOM     31  N   UNL     1      37.200 -24.335 -10.426  0.00  0.00    -0.246 N 
ATOM     32  C   UNL     1      35.345 -24.006 -11.895  0.00  0.00    +0.137 C 
ATOM     33  C   UNL     1      35.858 -24.600 -10.603  0.00  0.00    +0.239 C 
ATOM     34  C   UNL     1      37.883 -23.643 -11.391  0.00  0.00    +0.279 C 
ATOM     35  H   UNL     1      37.663 -24.641  -9.613  0.00  0.00    +0.158 HD
ENDBRANCH  27  32
ENDBRANCH  21  27
ENDBRANCH  20  24
ENDBRANCH  19  20
ENDBRANCH   1  19
TORSDOF 9
ENDMDL
MODEL 7
REMARK VINA RESULT:     -11.7      5.578      9.915
REMARK  Name = 9826451
REMARK  9 active torsions:
REMARK  status: ('A' for Active; 'I' for Inactive)
REMARK    1  A    between atoms: C_1  and  N_2
REMARK    2  A    between atoms: C_1  and  C_19
REMARK    3  A    between atoms: C_8  and  O_10
REMARK    4  A    between atoms: O_10  and  C_11
REMARK    5  A    between atoms: C_14  and  O_17
REMARK    6  A    between atoms: C_19  and  O_20
REMARK    7  A    between atoms: O_20  and  C_24
REMARK    8  A    between atoms: C_21  and  C_27
REMARK    9  A    between atoms: C_27  and  C_32
REMARK                            x       y       z     vdW  Elec       q    Type
REMARK                         _______ _______ _______ _____ _____    ______ ____
ROOT
ATOM      1  C   UNL     1      33.745 -14.052 -22.462  0.00  0.00    +0.139 C 
ENDROOT
BRANCH   1   2
ATOM      2  N   UNL     1      34.331 -15.094 -21.654  0.00  0.00    -0.291 N 
ATOM      3  C   UNL     1      34.559 -14.832 -20.232  0.00  0.00    +0.113 C 
ATOM      4  N   UNL     1      34.471 -16.547 -23.519  0.00  0.00    -0.233 NA
ATOM      5  N   UNL     1      35.407 -18.750 -23.248  0.00  0.00    -0.214 NA
ATOM      6  C   UNL     1      34.692 -16.330 -22.205  0.00  0.00    +0.115 C 
ATOM      7  C   UNL     1      35.259 -17.263 -21.360  0.00  0.00    +0.146 C 
ATOM      8  C   UNL     1      35.599 -18.467 -21.943  0.00  0.00    +0.210 C 
ATOM      9  C   UNL     1      34.847 -17.760 -23.967  0.00  0.00    +0.254 C 
BRANCH   8  10
ATOM     10  O   UNL     1      36.167 -19.446 -21.170  0.00  0.00    -0.440 OA
BRANCH  10  11
ATOM     11  C   UNL     1      35.314 -20.278 -20.472  0.00  0.00    +0.147 C 
ATOM     12  C   UNL     1      33.933 -20.131 -20.603  0.00  0.00    +0.041 C 
ATOM     13  C   UNL     1      35.834 -21.266 -19.635  0.00  0.00    +0.041 C 
ATOM     14  C   UNL     1      33.592 -21.959 -19.062  0.00  0.00    +0.139 C 
ATOM     15  C   UNL     1      33.072 -20.971 -19.898  0.00  0.00    +0.040 C 
ATOM     16  C   UNL     1      34.973 -22.107 -18.931  0.00  0.00    +0.040 C 
BRANCH  14  17
ATOM     17  O   UNL     1      32.751 -22.780 -18.374  0.00  0.00    -0.471 OA
ATOM     18  C   UNL     1      33.265 -23.394 -17.193  0.00  0.00    +0.252 C 
ENDBRANCH  14  17
ENDBRANCH  10  11
ENDBRANCH   8  10
ENDBRANCH   1   2
BRANCH   1  19
ATOM     19  C   UNL     1      32.683 -13.311 -21.667  0.00  0.00    +0.227 C 
BRANCH  19  20
ATOM     20  O   UNL     1      31.931 -12.474 -22.543  0.00  0.00    -0.474 OA
BRANCH  20  24
ATOM     21  C   UNL     1      32.695  -8.397 -22.381  0.00  0.00    -0.021 C 
ATOM     22  C   UNL     1      31.641  -8.939 -21.646  0.00  0.00    -0.001 C 
ATOM     23  C   UNL     1      33.493  -9.226 -23.170  0.00  0.00    -0.001 C 
ATOM     24  C   UNL     1      32.181 -11.137 -22.490  0.00  0.00    +0.139 C 
ATOM     25  C   UNL     1      31.383 -10.308 -21.700  0.00  0.00    +0.037 C 
ATOM     26  C   UNL     1      33.236 -10.595 -23.225  0.00  0.00    +0.037 C 
BRANCH  21  27
ATOM     27  C   UNL     1      32.972  -6.917 -22.322  0.00  0.00    +0.047 C 
BRANCH  27  32
ATOM     28  S   UNL     1      32.910  -4.981 -24.280  0.00  0.00    -0.048 S 
ATOM     29  O   UNL     1      30.366  -5.699 -21.468  0.00  0.00    -0.274 OA
ATOM     30  O   UNL     1      32.269  -2.437 -24.124  0.00  0.00    -0.263 OA
ATOM     31  N   UNL     1      31.190  -3.931 -22.711  0.00  0.00    -0.246 N 
ATOM     32  C   UNL     1      32.010  -6.125 -23.188  0.00  0.00    +0.137 C 
ATOM     33  C   UNL     1      31.095  -5.259 -22.350  0.00  0.00    +0.239 C 
ATOM     34  C   UNL     1      32.068  -3.562 -23.695  0.00  0.00    +0.279 C 
ATOM     35  H   UNL     1      30.631  -3.255 -22.264  0.00  0.00    +0.158 HD
ENDBRANCH  27  32
ENDBRANCH  21  27
ENDBRANCH  20  24
ENDBRANCH  19  20
ENDBRANCH   1  19
TORSDOF 9
ENDMDL
MODEL 8
REMARK VINA RESULT:     -11.6      2.811      5.331
REMARK  Name = 9826451
REMARK  9 active torsions:
REMARK  status: ('A' for Active; 'I' for Inactive)
REMARK    1  A    between atoms: C_1  and  N_2
REMARK    2  A    between atoms: C_1  and  C_19
REMARK    3  A    between atoms: C_8  and  O_10
REMARK    4  A    between atoms: O_10  and  C_11
REMARK    5  A    between atoms: C_14  and  O_17
REMARK    6  A    between atoms: C_19  and  O_20
REMARK    7  A    between atoms: O_20  and  C_24
REMARK    8  A    between atoms: C_21  and  C_27
REMARK    9  A    between atoms: C_27  and  C_32
REMARK                            x       y       z     vdW  Elec       q    Type
REMARK                         _______ _______ _______ _____ _____    ______ ____
ROOT
ATOM      1  C   UNL     1      34.438 -21.680 -19.612  0.00  0.00    +0.139 C 
ENDROOT
BRANCH   1   2
ATOM      2  N   UNL     1      34.993 -22.140 -18.361  0.00  0.00    -0.291 N 
ATOM      3  C   UNL     1      36.428 -21.965 -18.127  0.00  0.00    +0.113 C 
ATOM      4  N   UNL     1      32.874 -22.902 -17.628  0.00  0.00    -0.233 NA
ATOM      5  N   UNL     1      32.665 -23.952 -15.470  0.00  0.00    -0.214 NA
ATOM      6  C   UNL     1      34.194 -22.753 -17.388  0.00  0.00    +0.115 C 
ATOM      7  C   UNL     1      34.813 -23.173 -16.228  0.00  0.00    +0.146 C 
ATOM      8  C   UNL     1      33.991 -23.771 -15.295  0.00  0.00    +0.210 C 
ATOM      9  C   UNL     1      32.180 -23.500 -16.642  0.00  0.00    +0.254 C 
BRANCH   8  10
ATOM     10  O   UNL     1      34.530 -24.215 -14.117  0.00  0.00    -0.440 OA
BRANCH  10  11
ATOM     11  C   UNL     1      35.730 -24.894 -14.184  0.00  0.00    +0.147 C 
ATOM     12  C   UNL     1      36.897 -24.301 -13.703  0.00  0.00    +0.041 C 
ATOM     13  C   UNL     1      35.776 -26.176 -14.734  0.00  0.00    +0.041 C 
ATOM     14  C   UNL     1      38.154 -26.268 -14.321  0.00  0.00    +0.139 C 
ATOM     15  C   UNL     1      38.109 -24.987 -13.771  0.00  0.00    +0.040 C 
ATOM     16  C   UNL     1      36.987 -26.863 -14.802  0.00  0.00    +0.040 C 
BRANCH  14  17
ATOM     17  O   UNL     1      39.337 -26.939 -14.387  0.00  0.00    -0.471 OA
ATOM     18  C   UNL     1      40.508 -26.235 -13.975  0.00  0.00    +0.252 C 
ENDBRANCH  14  17
ENDBRANCH  10  11
ENDBRANCH   8  10
ENDBRANCH   1   2
BRANCH   1  19
ATOM     19  C   UNL     1      35.428 -20.771 -20.320  0.00  0.00    +0.227 C 
BRANCH  19  20
ATOM     20  O   UNL     1      34.925 -20.435 -21.611  0.00  0.00    -0.474 OA
BRANCH  20  24
ATOM     21  C   UNL     1      34.917 -16.417 -22.651  0.00  0.00    -0.021 C 
ATOM     22  C   UNL     1      35.230 -16.798 -21.346  0.00  0.00    -0.001 C 
ATOM     23  C   UNL     1      34.606 -17.385 -23.606  0.00  0.00    -0.001 C 
ATOM     24  C   UNL     1      34.922 -19.117 -21.951  0.00  0.00    +0.139 C 
ATOM     25  C   UNL     1      35.233 -18.148 -20.996  0.00  0.00    +0.037 C 
ATOM     26  C   UNL     1      34.608 -18.734 -23.256  0.00  0.00    +0.037 C 
BRANCH  21  27
ATOM     27  C   UNL     1      34.915 -14.957 -23.028  0.00  0.00    +0.047 C 
BRANCH  27  32
ATOM     28  S   UNL     1      33.416 -13.062 -24.349  0.00  0.00    -0.048 S 
ATOM     29  O   UNL     1      33.055 -14.386 -20.743  0.00  0.00    -0.274 OA
ATOM     30  O   UNL     1      32.514 -10.736 -23.519  0.00  0.00    -0.263 OA
ATOM     31  N   UNL     1      32.704 -12.459 -21.972  0.00  0.00    -0.246 N 
ATOM     32  C   UNL     1      33.506 -14.397 -23.117  0.00  0.00    +0.137 C 
ATOM     33  C   UNL     1      33.073 -13.777 -21.807  0.00  0.00    +0.239 C 
ATOM     34  C   UNL     1      32.798 -11.884 -23.212  0.00  0.00    +0.279 C 
ATOM     35  H   UNL     1      32.376 -11.936 -21.205  0.00  0.00    +0.158 HD
ENDBRANCH  27  32
ENDBRANCH  21  27
ENDBRANCH  20  24
ENDBRANCH  19  20
ENDBRANCH   1  19
TORSDOF 9
ENDMDL
MODEL 9
REMARK VINA RESULT:     -11.5      3.935     11.236
REMARK  Name = 9826451
REMARK  9 active torsions:
REMARK  status: ('A' for Active; 'I' for Inactive)
REMARK    1  A    between atoms: C_1  and  N_2
REMARK    2  A    between atoms: C_1  and  C_19
REMARK    3  A    between atoms: C_8  and  O_10
REMARK    4  A    between atoms: O_10  and  C_11
REMARK    5  A    between atoms: C_14  and  O_17
REMARK    6  A    between atoms: C_19  and  O_20
REMARK    7  A    between atoms: O_20  and  C_24
REMARK    8  A    between atoms: C_21  and  C_27
REMARK    9  A    between atoms: C_27  and  C_32
REMARK                            x       y       z     vdW  Elec       q    Type
REMARK                         _______ _______ _______ _____ _____    ______ ____
ROOT
ATOM      1  C   UNL     1      34.754 -21.720 -18.673  0.00  0.00    +0.139 C 
ENDROOT
BRANCH   1   2
ATOM      2  N   UNL     1      34.316 -20.960 -19.819  0.00  0.00    -0.291 N 
ATOM      3  C   UNL     1      32.914 -21.057 -20.229  0.00  0.00    +0.113 C 
ATOM      4  N   UNL     1      36.490 -20.078 -20.142  0.00  0.00    -0.233 NA
ATOM      5  N   UNL     1      36.904 -18.566 -21.972  0.00  0.00    -0.214 NA
ATOM      6  C   UNL     1      35.203 -20.151 -20.541  0.00  0.00    +0.115 C 
ATOM      7  C   UNL     1      34.699 -19.471 -21.631  0.00  0.00    +0.146 C 
ATOM      8  C   UNL     1      35.605 -18.685 -22.316  0.00  0.00    +0.210 C 
ATOM      9  C   UNL     1      37.273 -19.280 -20.892  0.00  0.00    +0.254 C 
BRANCH   8  10
ATOM     10  O   UNL     1      35.183 -17.977 -23.410  0.00  0.00    -0.440 OA
BRANCH  10  11
ATOM     11  C   UNL     1      34.729 -16.690 -23.197  0.00  0.00    +0.147 C 
ATOM     12  C   UNL     1      34.849 -16.108 -21.935  0.00  0.00    +0.041 C 
ATOM     13  C   UNL     1      34.152 -15.972 -24.245  0.00  0.00    +0.041 C 
ATOM     14  C   UNL     1      33.814 -14.091 -22.767  0.00  0.00    +0.139 C 
ATOM     15  C   UNL     1      34.391 -14.809 -21.720  0.00  0.00    +0.040 C 
ATOM     16  C   UNL     1      33.695 -14.673 -24.030  0.00  0.00    +0.040 C 
BRANCH  14  17
ATOM     17  O   UNL     1      33.368 -12.821 -22.559  0.00  0.00    -0.471 OA
ATOM     18  C   UNL     1      32.183 -12.669 -21.779  0.00  0.00    +0.252 C 
ENDBRANCH  14  17
ENDBRANCH  10  11
ENDBRANCH   8  10
ENDBRANCH   1   2
BRANCH   1  19
ATOM     19  C   UNL     1      33.588 -22.502 -18.090  0.00  0.00    +0.227 C 
BRANCH  19  20
ATOM     20  O   UNL     1      34.070 -23.716 -17.517  0.00  0.00    -0.474 OA
BRANCH  20  24
ATOM     21  C   UNL     1      35.949 -23.451 -13.826  0.00  0.00    -0.021 C 
ATOM     22  C   UNL     1      34.711 -24.085 -13.934  0.00  0.00    -0.001 C 
ATOM     23  C   UNL     1      36.556 -22.907 -14.958  0.00  0.00    -0.001 C 
ATOM     24  C   UNL     1      34.686 -23.629 -16.307  0.00  0.00    +0.139 C 
ATOM     25  C   UNL     1      34.079 -24.173 -15.174  0.00  0.00    +0.037 C 
ATOM     26  C   UNL     1      35.924 -22.995 -16.198  0.00  0.00    +0.037 C 
BRANCH  21  27
ATOM     27  C   UNL     1      36.631 -23.356 -12.485  0.00  0.00    +0.047 C 
BRANCH  27  32
ATOM     28  S   UNL     1      38.385 -25.088 -13.715  0.00  0.00    -0.048 S 
ATOM     29  O   UNL     1      35.936 -25.744 -10.806  0.00  0.00    -0.274 OA
ATOM     30  O   UNL     1      38.047 -27.579 -14.480  0.00  0.00    -0.263 OA
ATOM     31  N   UNL     1      36.907 -26.843 -12.595  0.00  0.00    -0.246 N 
ATOM     32  C   UNL     1      37.510 -24.563 -12.209  0.00  0.00    +0.137 C 
ATOM     33  C   UNL     1      36.690 -25.756 -11.773  0.00  0.00    +0.239 C 
ATOM     34  C   UNL     1      37.754 -26.719 -13.664  0.00  0.00    +0.279 C 
ATOM     35  H   UNL     1      36.455 -27.699 -12.415  0.00  0.00    +0.158 HD
ENDBRANCH  27  32
ENDBRANCH  21  27
ENDBRANCH  20  24
ENDBRANCH  19  20
ENDBRANCH   1  19
TORSDOF 9
ENDMDL
