MODEL 1
REMARK VINA RESULT:     -12.5      0.000      0.000
REMARK  Name = 16040294
REMARK  4 active torsions:
REMARK  status: ('A' for Active; 'I' for Inactive)
REMARK    1  A    between atoms: N_6  and  C_21
REMARK    2  A    between atoms: C_7  and  C_30
REMARK    3  A    between atoms: C_24  and  C_27
REMARK    4  A    between atoms: C_27  and  C_29
REMARK                            x       y       z     vdW  Elec       q    Type
REMARK                         _______ _______ _______ _____ _____    ______ ____
ROOT
ATOM      1  N   UNL     1      31.076 -23.719 -16.360  0.00  0.00    -0.239 N 
ATOM      2  N   UNL     1      32.389 -23.662 -16.079  0.00  0.00    -0.166 NA
ATOM      3  N   UNL     1      33.520 -23.449 -13.974  0.00  0.00    -0.271 N 
ATOM      4  N   UNL     1      35.254 -22.937 -15.480  0.00  0.00    -0.312 NA
ATOM      5  N   UNL     1      37.550 -23.412 -14.919  0.00  0.00    -0.332 NA
ATOM      6  N   UNL     1      36.986 -22.430 -16.974  0.00  0.00    -0.238 N 
ATOM      7  C   UNL     1      30.272 -23.642 -15.260  0.00  0.00    +0.045 C 
ATOM      8  C   UNL     1      31.119 -23.525 -14.185  0.00  0.00    +0.048 C 
ATOM      9  C   UNL     1      32.371 -23.547 -14.775  0.00  0.00    +0.152 C 
ATOM     10  C   UNL     1      34.904 -23.443 -14.282  0.00  0.00    +0.201 C 
ATOM     11  C   UNL     1      35.811 -23.949 -13.357  0.00  0.00    +0.072 C 
ATOM     12  C   UNL     1      37.164 -23.910 -13.731  0.00  0.00    +0.131 C 
ATOM     13  C   UNL     1      36.574 -22.952 -15.729  0.00  0.00    +0.204 C 
ATOM     14  C   UNL     1      35.420 -24.472 -12.112  0.00  0.00    +0.006 C 
ATOM     15  C   UNL     1      38.102 -24.407 -12.829  0.00  0.00    +0.086 C 
ATOM     16  C   UNL     1      36.379 -24.962 -11.231  0.00  0.00    -0.004 C 
ATOM     17  C   UNL     1      37.721 -24.930 -11.590  0.00  0.00    -0.019 C 
ATOM     18  H   UNL     1      30.726 -23.810 -17.277  0.00  0.00    +0.174 HD
ATOM     19  H   UNL     1      33.327 -23.368 -13.012  0.00  0.00    +0.156 HD
ATOM     20  H   UNL     1      37.959 -22.463 -17.114  0.00  0.00    +0.166 HD
ENDROOT
BRANCH   6  21
ATOM     21  C   UNL     1      36.277 -21.874 -18.055  0.00  0.00    +0.058 C 
ATOM     22  C   UNL     1      34.946 -22.232 -18.279  0.00  0.00    +0.015 C 
ATOM     23  C   UNL     1      36.902 -20.960 -18.906  0.00  0.00    +0.015 C 
ATOM     24  C   UNL     1      34.870 -20.767 -20.198  0.00  0.00    -0.007 C 
ATOM     25  C   UNL     1      34.243 -21.680 -19.350  0.00  0.00    -0.002 C 
ATOM     26  C   UNL     1      36.199 -20.408 -19.977  0.00  0.00    -0.002 C 
BRANCH  24  27
ATOM     27  C   UNL     1      34.119 -20.177 -21.344  0.00  0.00    +0.132 C 
BRANCH  27  29
ATOM     28  N   UNL     1      35.583 -18.524 -22.779  0.00  0.00    -0.196 NA
ATOM     29  C   UNL     1      34.940 -19.250 -22.143  0.00  0.00    +0.078 C 
ENDBRANCH  27  29
ENDBRANCH  24  27
ENDBRANCH   6  21
BRANCH   7  30
ATOM     30  C   UNL     1      28.750 -23.678 -15.241  0.00  0.00    +0.037 C 
ATOM     31  C   UNL     1      27.995 -23.557 -16.540  0.00  0.00    +0.006 C 
ATOM     32  C   UNL     1      27.980 -22.421 -15.560  0.00  0.00    +0.006 C 
ENDBRANCH   7  30
TORSDOF 4
ENDMDL
MODEL 2
REMARK VINA RESULT:     -11.7      2.050      7.397
REMARK  Name = 16040294
REMARK  4 active torsions:
REMARK  status: ('A' for Active; 'I' for Inactive)
REMARK    1  A    between atoms: N_6  and  C_21
REMARK    2  A    between atoms: C_7  and  C_30
REMARK    3  A    between atoms: C_24  and  C_27
REMARK    4  A    between atoms: C_27  and  C_29
REMARK                            x       y       z     vdW  Elec       q    Type
REMARK                         _______ _______ _______ _____ _____    ______ ____
ROOT
ATOM      1  N   UNL     1      35.057 -22.586 -19.287  0.00  0.00    -0.239 N 
ATOM      2  N   UNL     1      34.366 -23.112 -18.262  0.00  0.00    -0.166 NA
ATOM      3  N   UNL     1      32.265 -22.461 -17.305  0.00  0.00    -0.271 N 
ATOM      4  N   UNL     1      33.109 -23.883 -15.631  0.00  0.00    -0.312 NA
ATOM      5  N   UNL     1      31.617 -25.138 -14.215  0.00  0.00    -0.332 NA
ATOM      6  N   UNL     1      33.943 -25.301 -13.963  0.00  0.00    -0.238 N 
ATOM      7  C   UNL     1      34.451 -21.508 -19.864  0.00  0.00    +0.045 C 
ATOM      8  C   UNL     1      33.283 -21.317 -19.167  0.00  0.00    +0.048 C 
ATOM      9  C   UNL     1      33.318 -22.329 -18.223  0.00  0.00    +0.152 C 
ATOM     10  C   UNL     1      32.026 -23.376 -16.248  0.00  0.00    +0.201 C 
ATOM     11  C   UNL     1      30.716 -23.699 -15.910  0.00  0.00    +0.072 C 
ATOM     12  C   UNL     1      30.557 -24.612 -14.854  0.00  0.00    +0.131 C 
ATOM     13  C   UNL     1      32.836 -24.745 -14.638  0.00  0.00    +0.204 C 
ATOM     14  C   UNL     1      29.600 -23.155 -16.570  0.00  0.00    +0.006 C 
ATOM     15  C   UNL     1      29.259 -24.959 -14.485  0.00  0.00    +0.086 C 
ATOM     16  C   UNL     1      28.315 -23.520 -16.180  0.00  0.00    -0.004 C 
ATOM     17  C   UNL     1      28.145 -24.423 -15.138  0.00  0.00    -0.019 C 
ATOM     18  H   UNL     1      35.921 -22.945 -19.595  0.00  0.00    +0.174 HD
ATOM     19  H   UNL     1      31.556 -21.788 -17.415  0.00  0.00    +0.156 HD
ATOM     20  H   UNL     1      33.695 -25.927 -13.245  0.00  0.00    +0.166 HD
ENDROOT
BRANCH   6  21
ATOM     21  C   UNL     1      35.332 -25.136 -14.116  0.00  0.00    +0.058 C 
ATOM     22  C   UNL     1      35.939 -23.930 -13.759  0.00  0.00    +0.015 C 
ATOM     23  C   UNL     1      36.110 -26.178 -14.624  0.00  0.00    +0.015 C 
ATOM     24  C   UNL     1      38.090 -24.810 -14.418  0.00  0.00    -0.007 C 
ATOM     25  C   UNL     1      37.315 -23.767 -13.910  0.00  0.00    -0.002 C 
ATOM     26  C   UNL     1      37.486 -26.015 -14.776  0.00  0.00    -0.002 C 
BRANCH  24  27
ATOM     27  C   UNL     1      39.562 -24.635 -14.581  0.00  0.00    +0.132 C 
BRANCH  27  29
ATOM     28  N   UNL     1      40.911 -26.792 -13.899  0.00  0.00    -0.196 NA
ATOM     29  C   UNL     1      40.321 -25.841 -14.202  0.00  0.00    +0.078 C 
ENDBRANCH  27  29
ENDBRANCH  24  27
ENDBRANCH   6  21
BRANCH   7  30
ATOM     30  C   UNL     1      34.972 -20.691 -21.040  0.00  0.00    +0.037 C 
ATOM     31  C   UNL     1      36.142 -19.764 -20.830  0.00  0.00    +0.006 C 
ATOM     32  C   UNL     1      34.769 -19.197 -21.045  0.00  0.00    +0.006 C 
ENDBRANCH   7  30
TORSDOF 4
ENDMDL
MODEL 3
REMARK VINA RESULT:     -11.1      1.637      5.825
REMARK  Name = 16040294
REMARK  4 active torsions:
REMARK  status: ('A' for Active; 'I' for Inactive)
REMARK    1  A    between atoms: N_6  and  C_21
REMARK    2  A    between atoms: C_7  and  C_30
REMARK    3  A    between atoms: C_24  and  C_27
REMARK    4  A    between atoms: C_27  and  C_29
REMARK                            x       y       z     vdW  Elec       q    Type
REMARK                         _______ _______ _______ _____ _____    ______ ____
ROOT
ATOM      1  N   UNL     1      37.466 -23.034 -15.382  0.00  0.00    -0.239 N 
ATOM      2  N   UNL     1      36.143 -23.037 -15.617  0.00  0.00    -0.166 NA
ATOM      3  N   UNL     1      34.476 -24.683 -15.099  0.00  0.00    -0.271 N 
ATOM      4  N   UNL     1      33.326 -23.338 -16.650  0.00  0.00    -0.312 NA
ATOM      5  N   UNL     1      30.929 -23.107 -16.539  0.00  0.00    -0.332 NA
ATOM      6  N   UNL     1      32.174 -22.000 -18.190  0.00  0.00    -0.238 N 
ATOM      7  C   UNL     1      37.916 -24.155 -14.746  0.00  0.00    +0.045 C 
ATOM      8  C   UNL     1      36.809 -24.945 -14.552  0.00  0.00    +0.048 C 
ATOM      9  C   UNL     1      35.791 -24.191 -15.108  0.00  0.00    +0.152 C 
ATOM     10  C   UNL     1      33.252 -24.152 -15.580  0.00  0.00    +0.201 C 
ATOM     11  C   UNL     1      32.064 -24.488 -14.939  0.00  0.00    +0.072 C 
ATOM     12  C   UNL     1      30.893 -23.924 -15.471  0.00  0.00    +0.131 C 
ATOM     13  C   UNL     1      32.144 -22.859 -17.070  0.00  0.00    +0.204 C 
ATOM     14  C   UNL     1      32.013 -25.341 -13.822  0.00  0.00    +0.006 C 
ATOM     15  C   UNL     1      29.683 -24.238 -14.856  0.00  0.00    +0.086 C 
ATOM     16  C   UNL     1      30.791 -25.637 -13.229  0.00  0.00    -0.004 C 
ATOM     17  C   UNL     1      29.625 -25.085 -13.746  0.00  0.00    -0.019 C 
ATOM     18  H   UNL     1      38.057 -22.291 -15.644  0.00  0.00    +0.174 HD
ATOM     19  H   UNL     1      34.386 -25.567 -14.677  0.00  0.00    +0.156 HD
ATOM     20  H   UNL     1      31.287 -21.673 -18.462  0.00  0.00    +0.166 HD
ENDROOT
BRANCH   6  21
ATOM     21  C   UNL     1      33.226 -21.521 -18.994  0.00  0.00    +0.058 C 
ATOM     22  C   UNL     1      34.531 -21.969 -18.782  0.00  0.00    +0.015 C 
ATOM     23  C   UNL     1      32.967 -20.596 -20.008  0.00  0.00    +0.015 C 
ATOM     24  C   UNL     1      35.311 -20.571 -20.591  0.00  0.00    -0.007 C 
ATOM     25  C   UNL     1      35.572 -21.495 -19.579  0.00  0.00    -0.002 C 
ATOM     26  C   UNL     1      34.008 -20.121 -20.804  0.00  0.00    -0.002 C 
BRANCH  24  27
ATOM     27  C   UNL     1      36.424 -20.062 -21.442  0.00  0.00    +0.132 C 
BRANCH  27  29
ATOM     28  N   UNL     1      35.847 -17.760 -22.584  0.00  0.00    -0.196 NA
ATOM     29  C   UNL     1      36.104 -18.775 -22.085  0.00  0.00    +0.078 C 
ENDBRANCH  27  29
ENDBRANCH  24  27
ENDBRANCH   6  21
BRANCH   7  30
ATOM     30  C   UNL     1      39.352 -24.456 -14.338  0.00  0.00    +0.037 C 
ATOM     31  C   UNL     1      40.026 -25.692 -14.880  0.00  0.00    +0.006 C 
ATOM     32  C   UNL     1      39.629 -25.631 -13.434  0.00  0.00    +0.006 C 
ENDBRANCH   7  30
TORSDOF 4
ENDMDL
