MODEL 1
REMARK VINA RESULT:     -11.5      0.000      0.000
REMARK  Name = 23658582
REMARK  4 active torsions:
REMARK  status: ('A' for Active; 'I' for Inactive)
REMARK    1  A    between atoms: N_3  and  C_13
REMARK    2  A    between atoms: C_8  and  C_25
REMARK    3  A    between atoms: C_15  and  C_22
REMARK    4  A    between atoms: N_24  and  C_29
REMARK                            x       y       z     vdW  Elec       q    Type
REMARK                         _______ _______ _______ _____ _____    ______ ____
ROOT
ATOM      1 CL   UNL     1      33.425 -13.711 -25.986  0.00  0.00    -0.082 Cl
ATOM      2  O   UNL     1      34.475 -15.573 -21.272  0.00  0.00    -0.352 OA
ATOM      3  N   UNL     1      35.126 -18.958 -21.826  0.00  0.00    -0.295 N 
ATOM      4  N   UNL     1      34.813 -16.827 -20.777  0.00  0.00    -0.062 NA
ATOM      5  C   UNL     1      34.528 -16.951 -23.037  0.00  0.00    +0.072 A 
ATOM      6  C   UNL     1      34.306 -15.650 -22.620  0.00  0.00    +0.183 A 
ATOM      7  C   UNL     1      34.838 -17.632 -21.843  0.00  0.00    +0.174 A 
ATOM      8  C   UNL     1      33.964 -14.601 -23.470  0.00  0.00    +0.101 C 
ATOM      9  C   UNL     1      34.406 -17.260 -24.400  0.00  0.00    +0.007 C 
ATOM     10  C   UNL     1      33.846 -14.924 -24.826  0.00  0.00    +0.065 C 
ATOM     11  C   UNL     1      34.062 -16.228 -25.284  0.00  0.00    +0.012 C 
ATOM     12  H   UNL     1      35.007 -19.402 -22.697  0.00  0.00    +0.154 HD
ENDROOT
BRANCH   3  13
ATOM     13  C   UNL     1      35.565 -19.831 -20.791  0.00  0.00    +0.049 C 
ATOM     14  C   UNL     1      34.672 -20.736 -20.218  0.00  0.00    +0.018 C 
ATOM     15  C   UNL     1      35.103 -21.593 -19.204  0.00  0.00    +0.073 C 
ATOM     16  C   UNL     1      36.888 -19.783 -20.352  0.00  0.00    +0.015 C 
ATOM     17  C   UNL     1      36.425 -21.544 -18.764  0.00  0.00    +0.004 C 
ATOM     18  C   UNL     1      37.318 -20.638 -19.339  0.00  0.00    +0.001 C 
BRANCH  15  22
ATOM     19  F   UNL     1      33.978 -23.701 -19.319  0.00  0.00    -0.166 F 
ATOM     20  F   UNL     1      34.526 -22.986 -17.347  0.00  0.00    -0.166 F 
ATOM     21  F   UNL     1      32.898 -22.035 -18.430  0.00  0.00    -0.166 F 
ATOM     22  C   UNL     1      34.148 -22.560 -18.588  0.00  0.00    +0.419 C 
ENDBRANCH  15  22
ENDBRANCH   3  13
BRANCH   8  25
ATOM     23  O   UNL     1      34.511 -12.336 -23.241  0.00  0.00    -0.270 OA
ATOM     24  N   UNL     1      32.663 -13.141 -22.067  0.00  0.00    -0.278 N 
ATOM     25  C   UNL     1      33.749 -13.264 -22.943  0.00  0.00    +0.253 C 
ATOM     26  H   UNL     1      32.137 -13.960 -21.917  0.00  0.00    +0.155 HD
BRANCH  24  29
ATOM     27  N   UNL     1      31.729 -10.869 -19.296  0.00  0.00    -0.221 NA
ATOM     28  N   UNL     1      31.427  -9.717 -21.390  0.00  0.00    -0.221 NA
ATOM     29  C   UNL     1      32.224 -11.987 -21.369  0.00  0.00    +0.089 C 
ATOM     30  C   UNL     1      32.142 -11.949 -19.992  0.00  0.00    +0.117 C 
ATOM     31  C   UNL     1      31.849 -10.832 -22.023  0.00  0.00    +0.117 C 
ATOM     32  C   UNL     1      31.391  -9.804 -20.047  0.00  0.00    +0.199 C 
ENDBRANCH  24  29
ENDBRANCH   8  25
TORSDOF 4
ENDMDL
MODEL 2
REMARK VINA RESULT:     -11.3      5.345      9.655
REMARK  Name = 23658582
REMARK  4 active torsions:
REMARK  status: ('A' for Active; 'I' for Inactive)
REMARK    1  A    between atoms: N_3  and  C_13
REMARK    2  A    between atoms: C_8  and  C_25
REMARK    3  A    between atoms: C_15  and  C_22
REMARK    4  A    between atoms: N_24  and  C_29
REMARK                            x       y       z     vdW  Elec       q    Type
REMARK                         _______ _______ _______ _____ _____    ______ ____
ROOT
ATOM      1 CL   UNL     1      34.945 -20.044 -24.065  0.00  0.00    -0.082 Cl
ATOM      2  O   UNL     1      34.677 -15.692 -21.277  0.00  0.00    -0.352 OA
ATOM      3  N   UNL     1      33.709 -13.264 -23.592  0.00  0.00    -0.295 N 
ATOM      4  N   UNL     1      34.356 -14.371 -21.568  0.00  0.00    -0.062 NA
ATOM      5  C   UNL     1      34.202 -15.629 -23.465  0.00  0.00    +0.072 A 
ATOM      6  C   UNL     1      34.584 -16.440 -22.410  0.00  0.00    +0.183 A 
ATOM      7  C   UNL     1      34.077 -14.356 -22.874  0.00  0.00    +0.174 A 
ATOM      8  C   UNL     1      34.830 -17.806 -22.520  0.00  0.00    +0.101 C 
ATOM      9  C   UNL     1      34.044 -16.197 -24.738  0.00  0.00    +0.007 C 
ATOM     10  C   UNL     1      34.670 -18.357 -23.795  0.00  0.00    +0.065 C 
ATOM     11  C   UNL     1      34.284 -17.570 -24.884  0.00  0.00    +0.012 C 
ATOM     12  H   UNL     1      33.632 -13.431 -24.559  0.00  0.00    +0.154 HD
ENDROOT
BRANCH   3  13
ATOM     13  C   UNL     1      33.415 -11.923 -23.215  0.00  0.00    +0.049 C 
ATOM     14  C   UNL     1      34.271 -10.889 -23.594  0.00  0.00    +0.018 C 
ATOM     15  C   UNL     1      33.982  -9.575 -23.225  0.00  0.00    +0.073 C 
ATOM     16  C   UNL     1      32.271 -11.643 -22.468  0.00  0.00    +0.015 C 
ATOM     17  C   UNL     1      32.839  -9.295 -22.478  0.00  0.00    +0.004 C 
ATOM     18  C   UNL     1      31.983 -10.331 -22.099  0.00  0.00    +0.001 C 
BRANCH  15  22
ATOM     19  F   UNL     1      34.368  -7.636 -24.574  0.00  0.00    -0.166 F 
ATOM     20  F   UNL     1      35.254  -7.650 -22.595  0.00  0.00    -0.166 F 
ATOM     21  F   UNL     1      36.070  -8.923 -24.157  0.00  0.00    -0.166 F 
ATOM     22  C   UNL     1      34.897  -8.468 -23.629  0.00  0.00    +0.419 C 
ENDBRANCH  15  22
ENDBRANCH   3  13
BRANCH   8  25
ATOM     23  O   UNL     1      36.187 -18.225 -20.657  0.00  0.00    -0.270 OA
ATOM     24  N   UNL     1      34.479 -19.742 -21.133  0.00  0.00    -0.278 N 
ATOM     25  C   UNL     1      35.229 -18.579 -21.356  0.00  0.00    +0.253 C 
ATOM     26  H   UNL     1      33.743 -19.905 -21.765  0.00  0.00    +0.155 HD
BRANCH  24  29
ATOM     27  N   UNL     1      33.693 -22.255 -18.530  0.00  0.00    -0.221 NA
ATOM     28  N   UNL     1      36.085 -22.022 -18.698  0.00  0.00    -0.221 NA
ATOM     29  C   UNL     1      34.646 -20.712 -20.113  0.00  0.00    +0.089 C 
ATOM     30  C   UNL     1      33.572 -21.328 -19.503  0.00  0.00    +0.117 C 
ATOM     31  C   UNL     1      35.891 -21.102 -19.666  0.00  0.00    +0.117 C 
ATOM     32  C   UNL     1      34.960 -22.550 -18.181  0.00  0.00    +0.199 C 
ENDBRANCH  24  29
ENDBRANCH   8  25
TORSDOF 4
ENDMDL
MODEL 3
REMARK VINA RESULT:     -11.1      5.960     10.277
REMARK  Name = 23658582
REMARK  4 active torsions:
REMARK  status: ('A' for Active; 'I' for Inactive)
REMARK    1  A    between atoms: N_3  and  C_13
REMARK    2  A    between atoms: C_8  and  C_25
REMARK    3  A    between atoms: C_15  and  C_22
REMARK    4  A    between atoms: N_24  and  C_29
REMARK                            x       y       z     vdW  Elec       q    Type
REMARK                         _______ _______ _______ _____ _____    ______ ____
ROOT
ATOM      1 CL   UNL     1      36.448 -23.762 -15.421  0.00  0.00    -0.082 Cl
ATOM      2  O   UNL     1      33.431 -21.929 -19.206  0.00  0.00    -0.352 OA
ATOM      3  N   UNL     1      35.478 -19.658 -20.893  0.00  0.00    -0.295 N 
ATOM      4  N   UNL     1      33.611 -21.006 -20.230  0.00  0.00    -0.062 NA
ATOM      5  C   UNL     1      35.535 -21.184 -19.016  0.00  0.00    +0.072 A 
ATOM      6  C   UNL     1      34.580 -22.033 -18.485  0.00  0.00    +0.183 A 
ATOM      7  C   UNL     1      34.869 -20.575 -20.098  0.00  0.00    +0.174 A 
ATOM      8  C   UNL     1      34.790 -22.855 -17.380  0.00  0.00    +0.101 C 
ATOM      9  C   UNL     1      36.805 -21.129 -18.423  0.00  0.00    +0.007 C 
ATOM     10  C   UNL     1      36.060 -22.790 -16.799  0.00  0.00    +0.065 C 
ATOM     11  C   UNL     1      37.050 -21.943 -17.309  0.00  0.00    +0.012 C 
ATOM     12  H   UNL     1      36.377 -19.400 -20.587  0.00  0.00    +0.154 HD
ENDROOT
BRANCH   3  13
ATOM     13  C   UNL     1      35.065 -18.995 -22.083  0.00  0.00    +0.049 C 
ATOM     14  C   UNL     1      35.016 -17.602 -22.125  0.00  0.00    +0.018 C 
ATOM     15  C   UNL     1      34.613 -16.953 -23.292  0.00  0.00    +0.073 C 
ATOM     16  C   UNL     1      34.711 -19.739 -23.209  0.00  0.00    +0.015 C 
ATOM     17  C   UNL     1      34.258 -17.697 -24.417  0.00  0.00    +0.004 C 
ATOM     18  C   UNL     1      34.307 -19.091 -24.375  0.00  0.00    +0.001 C 
BRANCH  15  22
ATOM     19  F   UNL     1      33.309 -14.967 -23.579  0.00  0.00    -0.166 F 
ATOM     20  F   UNL     1      34.958 -14.866 -22.175  0.00  0.00    -0.166 F 
ATOM     21  F   UNL     1      35.356 -14.938 -24.311  0.00  0.00    -0.166 F 
ATOM     22  C   UNL     1      34.558 -15.463 -23.337  0.00  0.00    +0.419 C 
ENDBRANCH  15  22
ENDBRANCH   3  13
BRANCH   8  25
ATOM     23  O   UNL     1      33.313 -24.663 -17.571  0.00  0.00    -0.270 OA
ATOM     24  N   UNL     1      33.209 -23.362 -15.638  0.00  0.00    -0.278 N 
ATOM     25  C   UNL     1      33.727 -23.717 -16.890  0.00  0.00    +0.253 C 
ATOM     26  H   UNL     1      33.631 -22.587 -15.202  0.00  0.00    +0.155 HD
BRANCH  24  29
ATOM     27  N   UNL     1      31.401 -25.319 -13.066  0.00  0.00    -0.221 NA
ATOM     28  N   UNL     1      29.809 -24.446 -14.649  0.00  0.00    -0.221 NA
ATOM     29  C   UNL     1      32.154 -23.978 -14.917  0.00  0.00    +0.089 C 
ATOM     30  C   UNL     1      32.380 -24.720 -13.776  0.00  0.00    +0.117 C 
ATOM     31  C   UNL     1      30.836 -23.873 -15.311  0.00  0.00    +0.117 C 
ATOM     32  C   UNL     1      30.158 -25.144 -13.552  0.00  0.00    +0.199 C 
ENDBRANCH  24  29
ENDBRANCH   8  25
TORSDOF 4
ENDMDL
MODEL 4
REMARK VINA RESULT:     -10.9      4.390      9.018
REMARK  Name = 23658582
REMARK  4 active torsions:
REMARK  status: ('A' for Active; 'I' for Inactive)
REMARK    1  A    between atoms: N_3  and  C_13
REMARK    2  A    between atoms: C_8  and  C_25
REMARK    3  A    between atoms: C_15  and  C_22
REMARK    4  A    between atoms: N_24  and  C_29
REMARK                            x       y       z     vdW  Elec       q    Type
REMARK                         _______ _______ _______ _____ _____    ______ ____
ROOT
ATOM      1 CL   UNL     1      35.149 -20.163 -24.079  0.00  0.00    -0.082 Cl
ATOM      2  O   UNL     1      34.637 -15.957 -21.108  0.00  0.00    -0.352 OA
ATOM      3  N   UNL     1      33.661 -13.458 -23.342  0.00  0.00    -0.295 N 
ATOM      4  N   UNL     1      34.279 -14.636 -21.349  0.00  0.00    -0.062 NA
ATOM      5  C   UNL     1      34.232 -15.809 -23.305  0.00  0.00    +0.072 A 
ATOM      6  C   UNL     1      34.607 -16.654 -22.276  0.00  0.00    +0.183 A 
ATOM      7  C   UNL     1      34.042 -14.570 -22.663  0.00  0.00    +0.174 A 
ATOM      8  C   UNL     1      34.905 -18.005 -22.439  0.00  0.00    +0.101 C 
ATOM      9  C   UNL     1      34.136 -16.321 -24.608  0.00  0.00    +0.007 C 
ATOM     10  C   UNL     1      34.806 -18.501 -23.743  0.00  0.00    +0.065 C 
ATOM     11  C   UNL     1      34.429 -17.677 -24.808  0.00  0.00    +0.012 C 
ATOM     12  H   UNL     1      33.621 -13.582 -24.318  0.00  0.00    +0.154 HD
ENDROOT
BRANCH   3  13
ATOM     13  C   UNL     1      33.307 -12.147 -22.915  0.00  0.00    +0.049 C 
ATOM     14  C   UNL     1      32.488 -11.974 -21.800  0.00  0.00    +0.018 C 
ATOM     15  C   UNL     1      32.143 -10.689 -21.381  0.00  0.00    +0.073 C 
ATOM     16  C   UNL     1      33.782 -11.035 -23.612  0.00  0.00    +0.015 C 
ATOM     17  C   UNL     1      32.616  -9.577 -22.078  0.00  0.00    +0.004 C 
ATOM     18  C   UNL     1      33.436  -9.751 -23.194  0.00  0.00    +0.001 C 
BRANCH  15  22
ATOM     19  F   UNL     1      31.694 -11.177 -19.083  0.00  0.00    -0.166 F 
ATOM     20  F   UNL     1      31.153  -9.201 -19.791  0.00  0.00    -0.166 F 
ATOM     21  F   UNL     1      29.987 -10.930 -20.407  0.00  0.00    -0.166 F 
ATOM     22  C   UNL     1      31.265 -10.502 -20.190  0.00  0.00    +0.419 C 
ENDBRANCH  15  22
ENDBRANCH   3  13
BRANCH   8  25
ATOM     23  O   UNL     1      36.341 -18.587 -20.683  0.00  0.00    -0.270 OA
ATOM     24  N   UNL     1      34.420 -19.872 -21.000  0.00  0.00    -0.278 N 
ATOM     25  C   UNL     1      35.292 -18.818 -21.299  0.00  0.00    +0.253 C 
ATOM     26  H   UNL     1      33.620 -19.942 -21.570  0.00  0.00    +0.155 HD
BRANCH  24  29
ATOM     27  N   UNL     1      33.517 -22.367 -18.418  0.00  0.00    -0.221 NA
ATOM     28  N   UNL     1      35.917 -22.212 -18.552  0.00  0.00    -0.221 NA
ATOM     29  C   UNL     1      34.541 -20.851 -19.981  0.00  0.00    +0.089 C 
ATOM     30  C   UNL     1      33.439 -21.433 -19.388  0.00  0.00    +0.117 C 
ATOM     31  C   UNL     1      35.766 -21.282 -19.519  0.00  0.00    +0.117 C 
ATOM     32  C   UNL     1      34.768 -22.705 -18.053  0.00  0.00    +0.199 C 
ENDBRANCH  24  29
ENDBRANCH   8  25
TORSDOF 4
ENDMDL
MODEL 5
REMARK VINA RESULT:     -10.9      6.839     11.446
REMARK  Name = 23658582
REMARK  4 active torsions:
REMARK  status: ('A' for Active; 'I' for Inactive)
REMARK    1  A    between atoms: N_3  and  C_13
REMARK    2  A    between atoms: C_8  and  C_25
REMARK    3  A    between atoms: C_15  and  C_22
REMARK    4  A    between atoms: N_24  and  C_29
REMARK                            x       y       z     vdW  Elec       q    Type
REMARK                         _______ _______ _______ _____ _____    ______ ____
ROOT
ATOM      1 CL   UNL     1      33.201 -24.919 -14.109  0.00  0.00    -0.082 Cl
ATOM      2  O   UNL     1      36.512 -22.312 -17.113  0.00  0.00    -0.352 OA
ATOM      3  N   UNL     1      34.524 -21.119 -19.724  0.00  0.00    -0.295 N 
ATOM      4  N   UNL     1      36.390 -21.597 -18.299  0.00  0.00    -0.062 NA
ATOM      5  C   UNL     1      34.352 -22.424 -17.695  0.00  0.00    +0.072 A 
ATOM      6  C   UNL     1      35.295 -22.803 -16.755  0.00  0.00    +0.183 A 
ATOM      7  C   UNL     1      35.097 -21.678 -18.628  0.00  0.00    +0.174 A 
ATOM      8  C   UNL     1      35.014 -23.570 -15.627  0.00  0.00    +0.101 C 
ATOM      9  C   UNL     1      33.019 -22.826 -17.523  0.00  0.00    +0.007 C 
ATOM     10  C   UNL     1      33.681 -23.963 -15.469  0.00  0.00    +0.065 C 
ATOM     11  C   UNL     1      32.701 -23.600 -16.398  0.00  0.00    +0.012 C 
ATOM     12  H   UNL     1      33.577 -21.361 -19.845  0.00  0.00    +0.154 HD
ENDROOT
BRANCH   3  13
ATOM     13  C   UNL     1      35.028 -20.251 -20.733  0.00  0.00    +0.049 C 
ATOM     14  C   UNL     1      34.366 -20.144 -21.956  0.00  0.00    +0.018 C 
ATOM     15  C   UNL     1      34.860 -19.293 -22.944  0.00  0.00    +0.073 C 
ATOM     16  C   UNL     1      36.184 -19.505 -20.498  0.00  0.00    +0.015 C 
ATOM     17  C   UNL     1      36.015 -18.548 -22.710  0.00  0.00    +0.004 C 
ATOM     18  C   UNL     1      36.678 -18.655 -21.486  0.00  0.00    +0.001 C 
BRANCH  15  22
ATOM     19  F   UNL     1      32.795 -19.106 -24.137  0.00  0.00    -0.166 F 
ATOM     20  F   UNL     1      34.509 -18.074 -24.973  0.00  0.00    -0.166 F 
ATOM     21  F   UNL     1      34.394 -20.243 -25.073  0.00  0.00    -0.166 F 
ATOM     22  C   UNL     1      34.153 -19.179 -24.253  0.00  0.00    +0.419 C 
ENDBRANCH  15  22
ENDBRANCH   3  13
BRANCH   8  25
ATOM     23  O   UNL     1      36.057 -23.492 -13.531  0.00  0.00    -0.270 OA
ATOM     24  N   UNL     1      37.084 -24.728 -15.222  0.00  0.00    -0.278 N 
ATOM     25  C   UNL     1      36.070 -23.921 -14.692  0.00  0.00    +0.253 C 
ATOM     26  H   UNL     1      36.970 -25.001 -16.161  0.00  0.00    +0.155 HD
BRANCH  24  29
ATOM     27  N   UNL     1      40.653 -25.232 -14.371  0.00  0.00    -0.221 NA
ATOM     28  N   UNL     1      39.299 -26.571 -12.895  0.00  0.00    -0.221 NA
ATOM     29  C   UNL     1      38.255 -25.204 -14.578  0.00  0.00    +0.089 C 
ATOM     30  C   UNL     1      39.519 -24.801 -14.960  0.00  0.00    +0.117 C 
ATOM     31  C   UNL     1      38.205 -26.099 -13.530  0.00  0.00    +0.117 C 
ATOM     32  C   UNL     1      40.473 -26.103 -13.360  0.00  0.00    +0.199 C 
ENDBRANCH  24  29
ENDBRANCH   8  25
TORSDOF 4
ENDMDL
MODEL 6
REMARK VINA RESULT:     -10.9      6.880     11.103
REMARK  Name = 23658582
REMARK  4 active torsions:
REMARK  status: ('A' for Active; 'I' for Inactive)
REMARK    1  A    between atoms: N_3  and  C_13
REMARK    2  A    between atoms: C_8  and  C_25
REMARK    3  A    between atoms: C_15  and  C_22
REMARK    4  A    between atoms: N_24  and  C_29
REMARK                            x       y       z     vdW  Elec       q    Type
REMARK                         _______ _______ _______ _____ _____    ______ ____
ROOT
ATOM      1 CL   UNL     1      31.763 -24.753 -14.311  0.00  0.00    -0.082 Cl
ATOM      2  O   UNL     1      35.615 -22.886 -17.220  0.00  0.00    -0.352 OA
ATOM      3  N   UNL     1      33.985 -21.070 -19.717  0.00  0.00    -0.295 N 
ATOM      4  N   UNL     1      35.674 -22.092 -18.359  0.00  0.00    -0.062 NA
ATOM      5  C   UNL     1      33.495 -22.413 -17.765  0.00  0.00    +0.072 A 
ATOM      6  C   UNL     1      34.314 -23.075 -16.868  0.00  0.00    +0.183 A 
ATOM      7  C   UNL     1      34.402 -21.823 -18.667  0.00  0.00    +0.174 A 
ATOM      8  C   UNL     1      33.853 -23.815 -15.782  0.00  0.00    +0.101 C 
ATOM      9  C   UNL     1      32.104 -22.474 -17.591  0.00  0.00    +0.007 C 
ATOM     10  C   UNL     1      32.464 -23.867 -15.622  0.00  0.00    +0.065 C 
ATOM     11  C   UNL     1      31.605 -23.210 -16.508  0.00  0.00    +0.012 C 
ATOM     12  H   UNL     1      33.007 -21.057 -19.834  0.00  0.00    +0.154 HD
ENDROOT
BRANCH   3  13
ATOM     13  C   UNL     1      34.689 -20.296 -20.682  0.00  0.00    +0.049 C 
ATOM     14  C   UNL     1      34.125 -20.066 -21.937  0.00  0.00    +0.018 C 
ATOM     15  C   UNL     1      34.815 -19.308 -22.883  0.00  0.00    +0.073 C 
ATOM     16  C   UNL     1      35.942 -19.768 -20.373  0.00  0.00    +0.015 C 
ATOM     17  C   UNL     1      36.068 -18.780 -22.575  0.00  0.00    +0.004 C 
ATOM     18  C   UNL     1      36.632 -19.010 -21.319  0.00  0.00    +0.001 C 
BRANCH  15  22
ATOM     19  F   UNL     1      34.568 -19.990 -25.163  0.00  0.00    -0.166 F 
ATOM     20  F   UNL     1      32.847 -19.066 -24.222  0.00  0.00    -0.166 F 
ATOM     21  F   UNL     1      34.574 -17.855 -24.750  0.00  0.00    -0.166 F 
ATOM     22  C   UNL     1      34.213 -19.062 -24.225  0.00  0.00    +0.419 C 
ENDBRANCH  15  22
ENDBRANCH   3  13
BRANCH   8  25
ATOM     23  O   UNL     1      34.847 -25.714 -14.840  0.00  0.00    -0.270 OA
ATOM     24  N   UNL     1      35.558 -23.621 -14.095  0.00  0.00    -0.278 N 
ATOM     25  C   UNL     1      34.788 -24.479 -14.890  0.00  0.00    +0.253 C 
ATOM     26  H   UNL     1      35.412 -22.658 -14.237  0.00  0.00    +0.155 HD
BRANCH  24  29
ATOM     27  N   UNL     1      37.139 -24.215 -10.800  0.00  0.00    -0.221 NA
ATOM     28  N   UNL     1      38.735 -24.712 -12.536  0.00  0.00    -0.221 NA
ATOM     29  C   UNL     1      36.522 -23.962 -13.113  0.00  0.00    +0.089 C 
ATOM     30  C   UNL     1      36.248 -23.898 -11.762  0.00  0.00    +0.117 C 
ATOM     31  C   UNL     1      37.794 -24.379 -13.445  0.00  0.00    +0.117 C 
ATOM     32  C   UNL     1      38.346 -24.608 -11.251  0.00  0.00    +0.199 C 
ENDBRANCH  24  29
ENDBRANCH   8  25
TORSDOF 4
ENDMDL
MODEL 7
REMARK VINA RESULT:     -10.8      4.201      7.147
REMARK  Name = 23658582
REMARK  4 active torsions:
REMARK  status: ('A' for Active; 'I' for Inactive)
REMARK    1  A    between atoms: N_3  and  C_13
REMARK    2  A    between atoms: C_8  and  C_25
REMARK    3  A    between atoms: C_15  and  C_22
REMARK    4  A    between atoms: N_24  and  C_29
REMARK                            x       y       z     vdW  Elec       q    Type
REMARK                         _______ _______ _______ _____ _____    ______ ____
ROOT
ATOM      1 CL   UNL     1      37.556 -19.746 -21.061  0.00  0.00    -0.082 Cl
ATOM      2  O   UNL     1      32.793 -21.133 -19.586  0.00  0.00    -0.352 OA
ATOM      3  N   UNL     1      33.331 -23.182 -16.811  0.00  0.00    -0.295 N 
ATOM      4  N   UNL     1      32.286 -21.928 -18.565  0.00  0.00    -0.062 NA
ATOM      5  C   UNL     1      34.564 -21.887 -18.441  0.00  0.00    +0.072 A 
ATOM      6  C   UNL     1      34.151 -21.109 -19.509  0.00  0.00    +0.183 A 
ATOM      7  C   UNL     1      33.356 -22.367 -17.897  0.00  0.00    +0.174 A 
ATOM      8  C   UNL     1      35.014 -20.422 -20.358  0.00  0.00    +0.101 C 
ATOM      9  C   UNL     1      35.936 -22.006 -18.175  0.00  0.00    +0.007 C 
ATOM     10  C   UNL     1      36.379 -20.550 -20.081  0.00  0.00    +0.065 C 
ATOM     11  C   UNL     1      36.833 -21.327 -19.010  0.00  0.00    +0.012 C 
ATOM     12  H   UNL     1      34.223 -23.471 -16.509  0.00  0.00    +0.154 HD
ENDROOT
BRANCH   3  13
ATOM     13  C   UNL     1      32.263 -23.702 -16.027  0.00  0.00    +0.049 C 
ATOM     14  C   UNL     1      30.944 -23.528 -16.442  0.00  0.00    +0.018 C 
ATOM     15  C   UNL     1      29.897 -24.038 -15.673  0.00  0.00    +0.073 C 
ATOM     16  C   UNL     1      32.537 -24.387 -14.843  0.00  0.00    +0.015 C 
ATOM     17  C   UNL     1      30.171 -24.722 -14.489  0.00  0.00    +0.004 C 
ATOM     18  C   UNL     1      31.492 -24.897 -14.074  0.00  0.00    +0.001 C 
BRANCH  15  22
ATOM     19  F   UNL     1      27.631 -23.529 -15.100  0.00  0.00    -0.166 F 
ATOM     20  F   UNL     1      28.329 -22.855 -17.039  0.00  0.00    -0.166 F 
ATOM     21  F   UNL     1      27.963 -24.970 -16.693  0.00  0.00    -0.166 F 
ATOM     22  C   UNL     1      28.485 -23.850 -16.116  0.00  0.00    +0.419 C 
ENDBRANCH  15  22
ENDBRANCH   3  13
BRANCH   8  25
ATOM     23  O   UNL     1      33.560 -20.049 -22.156  0.00  0.00    -0.270 OA
ATOM     24  N   UNL     1      35.142 -18.406 -21.667  0.00  0.00    -0.278 N 
ATOM     25  C   UNL     1      34.491 -19.628 -21.457  0.00  0.00    +0.253 C 
ATOM     26  H   UNL     1      35.868 -18.192 -21.037  0.00  0.00    +0.155 HD
BRANCH  24  29
ATOM     27  N   UNL     1      34.609 -15.138 -23.324  0.00  0.00    -0.221 NA
ATOM     28  N   UNL     1      34.432 -16.889 -24.969  0.00  0.00    -0.221 NA
ATOM     29  C   UNL     1      34.890 -17.437 -22.672  0.00  0.00    +0.089 C 
ATOM     30  C   UNL     1      34.845 -16.086 -22.394  0.00  0.00    +0.117 C 
ATOM     31  C   UNL     1      34.674 -17.784 -23.989  0.00  0.00    +0.117 C 
ATOM     32  C   UNL     1      34.413 -15.602 -24.572  0.00  0.00    +0.199 C 
ENDBRANCH  24  29
ENDBRANCH   8  25
TORSDOF 4
ENDMDL
MODEL 8
REMARK VINA RESULT:     -10.5      1.641      2.103
REMARK  Name = 23658582
REMARK  4 active torsions:
REMARK  status: ('A' for Active; 'I' for Inactive)
REMARK    1  A    between atoms: N_3  and  C_13
REMARK    2  A    between atoms: C_8  and  C_25
REMARK    3  A    between atoms: C_15  and  C_22
REMARK    4  A    between atoms: N_24  and  C_29
REMARK                            x       y       z     vdW  Elec       q    Type
REMARK                         _______ _______ _______ _____ _____    ______ ____
ROOT
ATOM      1 CL   UNL     1      33.389 -13.412 -25.900  0.00  0.00    -0.082 Cl
ATOM      2  O   UNL     1      34.583 -15.374 -21.262  0.00  0.00    -0.352 OA
ATOM      3  N   UNL     1      35.072 -18.774 -21.884  0.00  0.00    -0.295 N 
ATOM      4  N   UNL     1      34.893 -16.646 -20.798  0.00  0.00    -0.062 NA
ATOM      5  C   UNL     1      34.499 -16.730 -23.043  0.00  0.00    +0.072 A 
ATOM      6  C   UNL     1      34.349 -15.427 -22.602  0.00  0.00    +0.183 A 
ATOM      7  C   UNL     1      34.837 -17.437 -21.873  0.00  0.00    +0.174 A 
ATOM      8  C   UNL     1      34.009 -14.354 -23.423  0.00  0.00    +0.101 C 
ATOM      9  C   UNL     1      34.301 -17.016 -24.402  0.00  0.00    +0.007 C 
ATOM     10  C   UNL     1      33.815 -14.655 -24.775  0.00  0.00    +0.065 C 
ATOM     11  C   UNL     1      33.957 -15.960 -25.257  0.00  0.00    +0.012 C 
ATOM     12  H   UNL     1      34.895 -19.202 -22.753  0.00  0.00    +0.154 HD
ENDROOT
BRANCH   3  13
ATOM     13  C   UNL     1      35.524 -19.677 -20.881  0.00  0.00    +0.049 C 
ATOM     14  C   UNL     1      34.630 -20.573 -20.296  0.00  0.00    +0.018 C 
ATOM     15  C   UNL     1      35.073 -21.459 -19.313  0.00  0.00    +0.073 C 
ATOM     16  C   UNL     1      36.861 -19.667 -20.484  0.00  0.00    +0.015 C 
ATOM     17  C   UNL     1      36.409 -21.448 -18.916  0.00  0.00    +0.004 C 
ATOM     18  C   UNL     1      37.304 -20.551 -19.502  0.00  0.00    +0.001 C 
BRANCH  15  22
ATOM     19  F   UNL     1      34.459 -22.778 -17.413  0.00  0.00    -0.166 F 
ATOM     20  F   UNL     1      32.844 -21.932 -18.586  0.00  0.00    -0.166 F 
ATOM     21  F   UNL     1      34.011 -23.585 -19.382  0.00  0.00    -0.166 F 
ATOM     22  C   UNL     1      34.117 -22.416 -18.685  0.00  0.00    +0.419 C 
ENDBRANCH  15  22
ENDBRANCH   3  13
BRANCH   8  25
ATOM     23  O   UNL     1      33.361 -12.839 -21.758  0.00  0.00    -0.270 OA
ATOM     24  N   UNL     1      34.320 -11.985 -23.706  0.00  0.00    -0.278 N 
ATOM     25  C   UNL     1      33.872 -13.017 -22.872  0.00  0.00    +0.253 C 
ATOM     26  H   UNL     1      34.707 -12.265 -24.566  0.00  0.00    +0.155 HD
BRANCH  24  29
ATOM     27  N   UNL     1      35.373  -8.439 -23.523  0.00  0.00    -0.221 NA
ATOM     28  N   UNL     1      33.110  -8.627 -22.718  0.00  0.00    -0.221 NA
ATOM     29  C   UNL     1      34.288 -10.587 -23.469  0.00  0.00    +0.089 C 
ATOM     30  C   UNL     1      35.369  -9.772 -23.736  0.00  0.00    +0.117 C 
ATOM     31  C   UNL     1      33.175  -9.954 -22.955  0.00  0.00    +0.117 C 
ATOM     32  C   UNL     1      34.228  -7.940 -23.020  0.00  0.00    +0.199 C 
ENDBRANCH  24  29
ENDBRANCH   8  25
TORSDOF 4
ENDMDL
MODEL 9
REMARK VINA RESULT:     -10.1      3.806      6.319
REMARK  Name = 23658582
REMARK  4 active torsions:
REMARK  status: ('A' for Active; 'I' for Inactive)
REMARK    1  A    between atoms: N_3  and  C_13
REMARK    2  A    between atoms: C_8  and  C_25
REMARK    3  A    between atoms: C_15  and  C_22
REMARK    4  A    between atoms: N_24  and  C_29
REMARK                            x       y       z     vdW  Elec       q    Type
REMARK                         _______ _______ _______ _____ _____    ______ ____
ROOT
ATOM      1 CL   UNL     1      37.783 -19.000 -21.986  0.00  0.00    -0.082 Cl
ATOM      2  O   UNL     1      33.073 -20.480 -20.431  0.00  0.00    -0.352 OA
ATOM      3  N   UNL     1      33.694 -22.459 -17.622  0.00  0.00    -0.295 N 
ATOM      4  N   UNL     1      32.599 -21.267 -19.389  0.00  0.00    -0.062 NA
ATOM      5  C   UNL     1      34.875 -21.165 -19.291  0.00  0.00    +0.072 A 
ATOM      6  C   UNL     1      34.432 -20.420 -20.369  0.00  0.00    +0.183 A 
ATOM      7  C   UNL     1      33.687 -21.665 -18.724  0.00  0.00    +0.174 A 
ATOM      8  C   UNL     1      35.267 -19.727 -21.242  0.00  0.00    +0.101 C 
ATOM      9  C   UNL     1      36.253 -21.243 -19.037  0.00  0.00    +0.007 C 
ATOM     10  C   UNL     1      36.638 -19.815 -20.977  0.00  0.00    +0.065 C 
ATOM     11  C   UNL     1      37.123 -20.558 -19.896  0.00  0.00    +0.012 C 
ATOM     12  H   UNL     1      34.596 -22.717 -17.324  0.00  0.00    +0.154 HD
ENDROOT
BRANCH   3  13
ATOM     13  C   UNL     1      32.649 -22.990 -16.816  0.00  0.00    +0.049 C 
ATOM     14  C   UNL     1      32.952 -23.642 -15.621  0.00  0.00    +0.018 C 
ATOM     15  C   UNL     1      31.927 -24.162 -14.830  0.00  0.00    +0.073 C 
ATOM     16  C   UNL     1      31.320 -22.857 -17.219  0.00  0.00    +0.015 C 
ATOM     17  C   UNL     1      30.599 -24.030 -15.234  0.00  0.00    +0.004 C 
ATOM     18  C   UNL     1      30.296 -23.377 -16.430  0.00  0.00    +0.001 C 
BRANCH  15  22
ATOM     19  F   UNL     1      31.361 -25.843 -13.225  0.00  0.00    -0.166 F 
ATOM     20  F   UNL     1      33.471 -25.477 -13.561  0.00  0.00    -0.166 F 
ATOM     21  F   UNL     1      32.275 -24.016 -12.483  0.00  0.00    -0.166 F 
ATOM     22  C   UNL     1      32.252 -24.862 -13.554  0.00  0.00    +0.419 C 
ENDBRANCH  15  22
ENDBRANCH   3  13
BRANCH   8  25
ATOM     23  O   UNL     1      34.171 -19.545 -23.303  0.00  0.00    -0.270 OA
ATOM     24  N   UNL     1      34.877 -17.582 -22.260  0.00  0.00    -0.278 N 
ATOM     25  C   UNL     1      34.712 -18.970 -22.350  0.00  0.00    +0.253 C 
ATOM     26  H   UNL     1      35.324 -17.255 -21.447  0.00  0.00    +0.155 HD
BRANCH  24  29
ATOM     27  N   UNL     1      33.976 -14.289 -23.694  0.00  0.00    -0.221 NA
ATOM     28  N   UNL     1      33.822 -15.963 -25.419  0.00  0.00    -0.221 NA
ATOM     29  C   UNL     1      34.481 -16.588 -23.190  0.00  0.00    +0.089 C 
ATOM     30  C   UNL     1      34.350 -15.260 -22.836  0.00  0.00    +0.117 C 
ATOM     31  C   UNL     1      34.201 -16.884 -24.508  0.00  0.00    +0.117 C 
ATOM     32  C   UNL     1      33.731 -14.704 -24.951  0.00  0.00    +0.199 C 
ENDBRANCH  24  29
ENDBRANCH   8  25
TORSDOF 4
ENDMDL
