MODEL 1
REMARK VINA RESULT:     -11.5      0.000      0.000
REMARK  Name = 15942672
REMARK  5 active torsions:
REMARK  status: ('A' for Active; 'I' for Inactive)
REMARK    1  A    between atoms: N_2  and  C_7
REMARK    2  A    between atoms: N_3  and  C_17
REMARK    3  A    between atoms: C_8  and  C_16
REMARK    4  A    between atoms: C_18  and  O_23
REMARK    5  A    between atoms: O_23  and  C_25
REMARK                            x       y       z     vdW  Elec       q    Type
REMARK                         _______ _______ _______ _____ _____    ______ ____
ROOT
ATOM      1  O   UNL     1      35.341 -22.485 -18.555  0.00  0.00    -0.252 OA
ATOM      2  N   UNL     1      36.923 -21.951 -16.912  0.00  0.00    -0.268 N 
ATOM      3  N   UNL     1      36.730 -20.619 -18.789  0.00  0.00    -0.268 N 
ATOM      4  C   UNL     1      36.236 -21.758 -18.135  0.00  0.00    +0.308 C 
ATOM      5  H   UNL     1      37.620 -21.286 -16.706  0.00  0.00    +0.156 HD
ATOM      6  H   UNL     1      37.452 -20.135 -18.328  0.00  0.00    +0.156 HD
ENDROOT
BRANCH   2   7
ATOM      7  C   UNL     1      36.746 -22.957 -15.962  0.00  0.00    +0.052 C 
ATOM      8  C   UNL     1      37.675 -24.637 -14.496  0.00  0.00    +0.073 C 
ATOM      9  C   UNL     1      37.852 -23.631 -15.445  0.00  0.00    +0.019 C 
ATOM     10  C   UNL     1      35.462 -23.290 -15.531  0.00  0.00    +0.015 C 
ATOM     11  C   UNL     1      36.390 -24.969 -14.064  0.00  0.00    +0.004 C 
ATOM     12  C   UNL     1      35.284 -24.296 -14.581  0.00  0.00    +0.001 C 
BRANCH   8  16
ATOM     13  F   UNL     1      38.753 -26.717 -14.011  0.00  0.00    -0.166 F 
ATOM     14  F   UNL     1      40.028 -25.056 -14.576  0.00  0.00    -0.166 F 
ATOM     15  F   UNL     1      39.072 -25.075 -12.622  0.00  0.00    -0.166 F 
ATOM     16  C   UNL     1      38.857 -25.358 -13.941  0.00  0.00    +0.419 C 
ENDBRANCH   8  16
ENDBRANCH   2   7
BRANCH   3  17
ATOM     17  C   UNL     1      36.318 -20.079 -20.031  0.00  0.00    +0.052 C 
ATOM     18  C   UNL     1      35.513 -19.023 -22.462  0.00  0.00    +0.145 C 
ATOM     19  C   UNL     1      35.042 -20.346 -20.496  0.00  0.00    +0.018 C 
ATOM     20  C   UNL     1      37.201 -19.295 -20.755  0.00  0.00    +0.018 C 
ATOM     21  C   UNL     1      34.637 -19.814 -21.721  0.00  0.00    +0.039 C 
ATOM     22  C   UNL     1      36.796 -18.762 -21.979  0.00  0.00    +0.039 C 
BRANCH  18  23
ATOM     23  O   UNL     1      35.118 -18.501 -23.655  0.00  0.00    -0.453 OA
BRANCH  23  25
ATOM     24  N   UNL     1      33.902 -14.528 -23.721  0.00  0.00    -0.242 NA
ATOM     25  C   UNL     1      34.714 -17.177 -23.677  0.00  0.00    +0.148 C 
ATOM     26  C   UNL     1      35.004 -16.366 -22.600  0.00  0.00    +0.058 C 
ATOM     27  C   UNL     1      34.030 -16.700 -24.774  0.00  0.00    +0.058 C 
ATOM     28  C   UNL     1      34.576 -15.049 -22.671  0.00  0.00    +0.102 C 
ATOM     29  C   UNL     1      33.645 -15.369 -24.747  0.00  0.00    +0.102 C 
ENDBRANCH  23  25
ENDBRANCH  18  23
ENDBRANCH   3  17
TORSDOF 5
ENDMDL
MODEL 2
REMARK VINA RESULT:     -11.4      8.429     13.449
REMARK  Name = 15942672
REMARK  5 active torsions:
REMARK  status: ('A' for Active; 'I' for Inactive)
REMARK    1  A    between atoms: N_2  and  C_7
REMARK    2  A    between atoms: N_3  and  C_17
REMARK    3  A    between atoms: C_8  and  C_16
REMARK    4  A    between atoms: C_18  and  O_23
REMARK    5  A    between atoms: O_23  and  C_25
REMARK                            x       y       z     vdW  Elec       q    Type
REMARK                         _______ _______ _______ _____ _____    ______ ____
ROOT
ATOM      1  O   UNL     1      34.191 -11.477 -23.642  0.00  0.00    -0.252 OA
ATOM      2  N   UNL     1      32.018 -10.886 -22.995  0.00  0.00    -0.268 N 
ATOM      3  N   UNL     1      32.659 -13.105 -22.957  0.00  0.00    -0.268 N 
ATOM      4  C   UNL     1      33.076 -11.795 -23.241  0.00  0.00    +0.308 C 
ATOM      5  H   UNL     1      31.177 -11.287 -22.675  0.00  0.00    +0.156 HD
ATOM      6  H   UNL     1      31.732 -13.204 -22.642  0.00  0.00    +0.156 HD
ENDROOT
BRANCH   2   7
ATOM      7  C   UNL     1      32.008  -9.499 -23.147  0.00  0.00    +0.052 C 
ATOM      8  C   UNL     1      31.858  -7.290 -22.183  0.00  0.00    +0.073 C 
ATOM      9  C   UNL     1      31.867  -8.676 -22.030  0.00  0.00    +0.019 C 
ATOM     10  C   UNL     1      32.140  -8.937 -24.416  0.00  0.00    +0.015 C 
ATOM     11  C   UNL     1      31.989  -6.727 -23.453  0.00  0.00    +0.004 C 
ATOM     12  C   UNL     1      32.130  -7.550 -24.569  0.00  0.00    +0.001 C 
BRANCH   8  16
ATOM     13  F   UNL     1      32.631  -5.404 -20.930  0.00  0.00    -0.166 F 
ATOM     14  F   UNL     1      30.496  -5.782 -20.921  0.00  0.00    -0.166 F 
ATOM     15  F   UNL     1      31.833  -7.091 -19.813  0.00  0.00    -0.166 F 
ATOM     16  C   UNL     1      31.707  -6.408 -20.989  0.00  0.00    +0.419 C 
ENDBRANCH   8  16
ENDBRANCH   2   7
BRANCH   3  17
ATOM     17  C   UNL     1      33.406 -14.301 -23.069  0.00  0.00    +0.052 C 
ATOM     18  C   UNL     1      34.869 -16.644 -23.286  0.00  0.00    +0.145 C 
ATOM     19  C   UNL     1      33.398 -14.996 -24.266  0.00  0.00    +0.018 C 
ATOM     20  C   UNL     1      34.130 -14.752 -21.977  0.00  0.00    +0.018 C 
ATOM     21  C   UNL     1      34.135 -16.177 -24.375  0.00  0.00    +0.039 C 
ATOM     22  C   UNL     1      34.868 -15.931 -22.087  0.00  0.00    +0.039 C 
BRANCH  18  23
ATOM     23  O   UNL     1      35.590 -17.793 -23.393  0.00  0.00    -0.453 OA
BRANCH  23  25
ATOM     24  N   UNL     1      35.881 -20.215 -20.029  0.00  0.00    -0.242 NA
ATOM     25  C   UNL     1      35.687 -18.599 -22.271  0.00  0.00    +0.148 C 
ATOM     26  C   UNL     1      36.871 -18.632 -21.566  0.00  0.00    +0.058 C 
ATOM     27  C   UNL     1      34.598 -19.350 -21.886  0.00  0.00    +0.058 C 
ATOM     28  C   UNL     1      36.917 -19.456 -20.452  0.00  0.00    +0.102 C 
ATOM     29  C   UNL     1      34.746 -20.142 -20.759  0.00  0.00    +0.102 C 
ENDBRANCH  23  25
ENDBRANCH  18  23
ENDBRANCH   3  17
TORSDOF 5
ENDMDL
MODEL 3
REMARK VINA RESULT:     -11.4      8.230     13.350
REMARK  Name = 15942672
REMARK  5 active torsions:
REMARK  status: ('A' for Active; 'I' for Inactive)
REMARK    1  A    between atoms: N_2  and  C_7
REMARK    2  A    between atoms: N_3  and  C_17
REMARK    3  A    between atoms: C_8  and  C_16
REMARK    4  A    between atoms: C_18  and  O_23
REMARK    5  A    between atoms: O_23  and  C_25
REMARK                            x       y       z     vdW  Elec       q    Type
REMARK                         _______ _______ _______ _____ _____    ______ ____
ROOT
ATOM      1  O   UNL     1      34.390 -11.703 -23.770  0.00  0.00    -0.252 OA
ATOM      2  N   UNL     1      32.355 -10.973 -22.866  0.00  0.00    -0.268 N 
ATOM      3  N   UNL     1      32.903 -13.216 -22.786  0.00  0.00    -0.268 N 
ATOM      4  C   UNL     1      33.329 -11.945 -23.201  0.00  0.00    +0.308 C 
ATOM      5  H   UNL     1      31.551 -11.315 -22.411  0.00  0.00    +0.156 HD
ATOM      6  H   UNL     1      32.026 -13.253 -22.341  0.00  0.00    +0.156 HD
ENDROOT
BRANCH   2   7
ATOM      7  C   UNL     1      32.381  -9.598 -23.098  0.00  0.00    +0.052 C 
ATOM      8  C   UNL     1      33.613  -7.588 -23.626  0.00  0.00    +0.073 C 
ATOM      9  C   UNL     1      33.587  -8.964 -23.395  0.00  0.00    +0.019 C 
ATOM     10  C   UNL     1      31.201  -8.858 -23.032  0.00  0.00    +0.015 C 
ATOM     11  C   UNL     1      32.433  -6.848 -23.561  0.00  0.00    +0.004 C 
ATOM     12  C   UNL     1      31.227  -7.482 -23.264  0.00  0.00    +0.001 C 
BRANCH   8  16
ATOM     13  F   UNL     1      34.793  -5.553 -24.062  0.00  0.00    -0.166 F 
ATOM     14  F   UNL     1      35.872  -7.109 -23.004  0.00  0.00    -0.166 F 
ATOM     15  F   UNL     1      35.442  -7.335 -25.124  0.00  0.00    -0.166 F 
ATOM     16  C   UNL     1      34.902  -6.909 -23.945  0.00  0.00    +0.419 C 
ENDBRANCH   8  16
ENDBRANCH   2   7
BRANCH   3  17
ATOM     17  C   UNL     1      33.577 -14.451 -22.928  0.00  0.00    +0.052 C 
ATOM     18  C   UNL     1      34.898 -16.870 -23.208  0.00  0.00    +0.145 C 
ATOM     19  C   UNL     1      34.260 -14.979 -21.846  0.00  0.00    +0.018 C 
ATOM     20  C   UNL     1      33.541 -15.107 -24.148  0.00  0.00    +0.018 C 
ATOM     21  C   UNL     1      34.926 -16.198 -21.987  0.00  0.00    +0.039 C 
ATOM     22  C   UNL     1      34.205 -16.325 -24.289  0.00  0.00    +0.039 C 
BRANCH  18  23
ATOM     23  O   UNL     1      35.545 -18.060 -23.345  0.00  0.00    -0.453 OA
BRANCH  23  25
ATOM     24  N   UNL     1      36.088 -20.365 -19.931  0.00  0.00    -0.242 NA
ATOM     25  C   UNL     1      35.726 -18.829 -22.208  0.00  0.00    +0.148 C 
ATOM     26  C   UNL     1      34.683 -19.604 -21.746  0.00  0.00    +0.058 C 
ATOM     27  C   UNL     1      36.944 -18.802 -21.564  0.00  0.00    +0.058 C 
ATOM     28  C   UNL     1      34.915 -20.354 -20.603  0.00  0.00    +0.102 C 
ATOM     29  C   UNL     1      37.074 -19.587 -20.430  0.00  0.00    +0.102 C 
ENDBRANCH  23  25
ENDBRANCH  18  23
ENDBRANCH   3  17
TORSDOF 5
ENDMDL
MODEL 4
REMARK VINA RESULT:     -11.3      4.423      5.243
REMARK  Name = 15942672
REMARK  5 active torsions:
REMARK  status: ('A' for Active; 'I' for Inactive)
REMARK    1  A    between atoms: N_2  and  C_7
REMARK    2  A    between atoms: N_3  and  C_17
REMARK    3  A    between atoms: C_8  and  C_16
REMARK    4  A    between atoms: C_18  and  O_23
REMARK    5  A    between atoms: O_23  and  C_25
REMARK                            x       y       z     vdW  Elec       q    Type
REMARK                         _______ _______ _______ _____ _____    ______ ____
ROOT
ATOM      1  O   UNL     1      32.233 -22.441 -17.726  0.00  0.00    -0.252 OA
ATOM      2  N   UNL     1      33.611 -23.567 -16.202  0.00  0.00    -0.268 N 
ATOM      3  N   UNL     1      34.560 -22.399 -17.955  0.00  0.00    -0.268 N 
ATOM      4  C   UNL     1      33.352 -22.765 -17.340  0.00  0.00    +0.308 C 
ATOM      5  H   UNL     1      34.562 -23.746 -16.015  0.00  0.00    +0.156 HD
ATOM      6  H   UNL     1      35.381 -22.737 -17.530  0.00  0.00    +0.156 HD
ENDROOT
BRANCH   2   7
ATOM      7  C   UNL     1      32.700 -24.138 -15.313  0.00  0.00    +0.052 C 
ATOM      8  C   UNL     1      30.432 -24.743 -14.744  0.00  0.00    +0.073 C 
ATOM      9  C   UNL     1      31.343 -24.172 -15.633  0.00  0.00    +0.019 C 
ATOM     10  C   UNL     1      33.147 -24.673 -14.106  0.00  0.00    +0.015 C 
ATOM     11  C   UNL     1      30.879 -25.279 -13.535  0.00  0.00    +0.004 C 
ATOM     12  C   UNL     1      32.236 -25.244 -13.217  0.00  0.00    +0.001 C 
BRANCH   8  16
ATOM     13  F   UNL     1      28.255 -25.625 -14.293  0.00  0.00    -0.166 F 
ATOM     14  F   UNL     1      28.361 -23.569 -14.975  0.00  0.00    -0.166 F 
ATOM     15  F   UNL     1      28.753 -25.195 -16.365  0.00  0.00    -0.166 F 
ATOM     16  C   UNL     1      28.981 -24.782 -15.084  0.00  0.00    +0.419 C 
ENDBRANCH   8  16
ENDBRANCH   2   7
BRANCH   3  17
ATOM     17  C   UNL     1      34.744 -21.606 -19.113  0.00  0.00    +0.052 C 
ATOM     18  C   UNL     1      35.102 -20.053 -21.378  0.00  0.00    +0.145 C 
ATOM     19  C   UNL     1      36.028 -21.352 -19.563  0.00  0.00    +0.018 C 
ATOM     20  C   UNL     1      33.634 -21.100 -19.771  0.00  0.00    +0.018 C 
ATOM     21  C   UNL     1      36.208 -20.569 -20.705  0.00  0.00    +0.039 C 
ATOM     22  C   UNL     1      33.815 -20.319 -20.912  0.00  0.00    +0.039 C 
BRANCH  18  23
ATOM     23  O   UNL     1      35.278 -19.292 -22.493  0.00  0.00    -0.453 OA
BRANCH  23  25
ATOM     24  N   UNL     1      34.620 -15.202 -22.163  0.00  0.00    -0.242 NA
ATOM     25  C   UNL     1      35.060 -17.929 -22.382  0.00  0.00    +0.148 C 
ATOM     26  C   UNL     1      35.097 -17.339 -21.136  0.00  0.00    +0.058 C 
ATOM     27  C   UNL     1      34.810 -17.192 -23.520  0.00  0.00    +0.058 C 
ATOM     28  C   UNL     1      34.870 -15.973 -21.080  0.00  0.00    +0.102 C 
ATOM     29  C   UNL     1      34.596 -15.834 -23.357  0.00  0.00    +0.102 C 
ENDBRANCH  23  25
ENDBRANCH  18  23
ENDBRANCH   3  17
TORSDOF 5
ENDMDL
MODEL 5
REMARK VINA RESULT:     -11.3      7.712     12.420
REMARK  Name = 15942672
REMARK  5 active torsions:
REMARK  status: ('A' for Active; 'I' for Inactive)
REMARK    1  A    between atoms: N_2  and  C_7
REMARK    2  A    between atoms: N_3  and  C_17
REMARK    3  A    between atoms: C_8  and  C_16
REMARK    4  A    between atoms: C_18  and  O_23
REMARK    5  A    between atoms: O_23  and  C_25
REMARK                            x       y       z     vdW  Elec       q    Type
REMARK                         _______ _______ _______ _____ _____    ______ ____
ROOT
ATOM      1  O   UNL     1      33.592 -13.655 -21.271  0.00  0.00    -0.252 OA
ATOM      2  N   UNL     1      33.588 -12.549 -23.337  0.00  0.00    -0.268 N 
ATOM      3  N   UNL     1      34.346 -14.727 -23.207  0.00  0.00    -0.268 N 
ATOM      4  C   UNL     1      33.820 -13.650 -22.477  0.00  0.00    +0.308 C 
ATOM      5  H   UNL     1      33.820 -12.691 -24.283  0.00  0.00    +0.156 HD
ATOM      6  H   UNL     1      34.475 -14.574 -24.171  0.00  0.00    +0.156 HD
ENDROOT
BRANCH   2   7
ATOM      7  C   UNL     1      33.076 -11.290 -23.021  0.00  0.00    +0.052 C 
ATOM      8  C   UNL     1      33.328  -8.889 -22.943  0.00  0.00    +0.073 C 
ATOM      9  C   UNL     1      33.840 -10.148 -23.259  0.00  0.00    +0.019 C 
ATOM     10  C   UNL     1      31.802 -11.175 -22.467  0.00  0.00    +0.015 C 
ATOM     11  C   UNL     1      32.053  -8.774 -22.389  0.00  0.00    +0.004 C 
ATOM     12  C   UNL     1      31.290  -9.916 -22.151  0.00  0.00    +0.001 C 
BRANCH   8  16
ATOM     13  F   UNL     1      33.665  -6.550 -22.573  0.00  0.00    -0.166 F 
ATOM     14  F   UNL     1      35.440  -7.778 -22.785  0.00  0.00    -0.166 F 
ATOM     15  F   UNL     1      34.207  -7.345 -24.523  0.00  0.00    -0.166 F 
ATOM     16  C   UNL     1      34.143  -7.666 -23.198  0.00  0.00    +0.419 C 
ENDBRANCH   8  16
ENDBRANCH   2   7
BRANCH   3  17
ATOM     17  C   UNL     1      34.715 -16.007 -22.730  0.00  0.00    +0.052 C 
ATOM     18  C   UNL     1      35.436 -18.513 -21.794  0.00  0.00    +0.145 C 
ATOM     19  C   UNL     1      34.802 -17.064 -23.620  0.00  0.00    +0.018 C 
ATOM     20  C   UNL     1      34.980 -16.177 -21.381  0.00  0.00    +0.018 C 
ATOM     21  C   UNL     1      35.166 -18.326 -23.149  0.00  0.00    +0.039 C 
ATOM     22  C   UNL     1      35.344 -17.438 -20.909  0.00  0.00    +0.039 C 
BRANCH  18  23
ATOM     23  O   UNL     1      35.793 -19.743 -21.334  0.00  0.00    -0.453 OA
BRANCH  23  25
ATOM     24  N   UNL     1      33.048 -21.799 -18.987  0.00  0.00    -0.242 NA
ATOM     25  C   UNL     1      34.879 -20.427 -20.551  0.00  0.00    +0.148 C 
ATOM     26  C   UNL     1      35.334 -21.357 -19.640  0.00  0.00    +0.058 C 
ATOM     27  C   UNL     1      33.534 -20.165 -20.700  0.00  0.00    +0.058 C 
ATOM     28  C   UNL     1      34.378 -22.016 -18.882  0.00  0.00    +0.102 C 
ATOM     29  C   UNL     1      32.660 -20.877 -19.896  0.00  0.00    +0.102 C 
ENDBRANCH  23  25
ENDBRANCH  18  23
ENDBRANCH   3  17
TORSDOF 5
ENDMDL
MODEL 6
REMARK VINA RESULT:     -11.1      1.579      2.327
REMARK  Name = 15942672
REMARK  5 active torsions:
REMARK  status: ('A' for Active; 'I' for Inactive)
REMARK    1  A    between atoms: N_2  and  C_7
REMARK    2  A    between atoms: N_3  and  C_17
REMARK    3  A    between atoms: C_8  and  C_16
REMARK    4  A    between atoms: C_18  and  O_23
REMARK    5  A    between atoms: O_23  and  C_25
REMARK                            x       y       z     vdW  Elec       q    Type
REMARK                         _______ _______ _______ _____ _____    ______ ____
ROOT
ATOM      1  O   UNL     1      36.344 -22.260 -16.719  0.00  0.00    -0.252 OA
ATOM      2  N   UNL     1      34.579 -23.670 -16.099  0.00  0.00    -0.268 N 
ATOM      3  N   UNL     1      34.441 -22.462 -18.063  0.00  0.00    -0.268 N 
ATOM      4  C   UNL     1      35.238 -22.743 -16.942  0.00  0.00    +0.308 C 
ATOM      5  H   UNL     1      33.693 -23.971 -16.407  0.00  0.00    +0.156 HD
ATOM      6  H   UNL     1      33.575 -22.927 -18.104  0.00  0.00    +0.156 HD
ENDROOT
BRANCH   2   7
ATOM      7  C   UNL     1      35.016 -24.212 -14.890  0.00  0.00    +0.052 C 
ATOM      8  C   UNL     1      36.634 -25.495 -13.637  0.00  0.00    +0.073 C 
ATOM      9  C   UNL     1      36.197 -24.953 -14.846  0.00  0.00    +0.019 C 
ATOM     10  C   UNL     1      34.273 -24.013 -13.728  0.00  0.00    +0.015 C 
ATOM     11  C   UNL     1      35.891 -25.295 -12.473  0.00  0.00    +0.004 C 
ATOM     12  C   UNL     1      34.710 -24.555 -12.519  0.00  0.00    +0.001 C 
BRANCH   8  16
ATOM     13  F   UNL     1      37.751 -27.578 -14.006  0.00  0.00    -0.166 F 
ATOM     14  F   UNL     1      38.897 -25.771 -14.361  0.00  0.00    -0.166 F 
ATOM     15  F   UNL     1      38.416 -26.368 -12.327  0.00  0.00    -0.166 F 
ATOM     16  C   UNL     1      37.897 -26.287 -13.587  0.00  0.00    +0.419 C 
ENDBRANCH   8  16
ENDBRANCH   2   7
BRANCH   3  17
ATOM     17  C   UNL     1      34.729 -21.592 -19.142  0.00  0.00    +0.052 C 
ATOM     18  C   UNL     1      35.291 -19.889 -21.253  0.00  0.00    +0.145 C 
ATOM     19  C   UNL     1      36.048 -21.325 -19.463  0.00  0.00    +0.018 C 
ATOM     20  C   UNL     1      33.683 -21.026 -19.853  0.00  0.00    +0.018 C 
ATOM     21  C   UNL     1      36.331 -20.467 -20.527  0.00  0.00    +0.039 C 
ATOM     22  C   UNL     1      33.966 -20.169 -20.916  0.00  0.00    +0.039 C 
BRANCH  18  23
ATOM     23  O   UNL     1      35.566 -19.054 -22.291  0.00  0.00    -0.453 OA
BRANCH  23  25
ATOM     24  N   UNL     1      34.448 -15.069 -21.916  0.00  0.00    -0.242 NA
ATOM     25  C   UNL     1      35.192 -17.726 -22.167  0.00  0.00    +0.148 C 
ATOM     26  C   UNL     1      34.885 -17.003 -23.300  0.00  0.00    +0.058 C 
ATOM     27  C   UNL     1      35.137 -17.157 -20.913  0.00  0.00    +0.058 C 
ATOM     28  C   UNL     1      34.519 -15.678 -23.120  0.00  0.00    +0.102 C 
ATOM     29  C   UNL     1      34.760 -15.826 -20.841  0.00  0.00    +0.102 C 
ENDBRANCH  23  25
ENDBRANCH  18  23
ENDBRANCH   3  17
TORSDOF 5
ENDMDL
MODEL 7
REMARK VINA RESULT:     -11.0      1.940      2.482
REMARK  Name = 15942672
REMARK  5 active torsions:
REMARK  status: ('A' for Active; 'I' for Inactive)
REMARK    1  A    between atoms: N_2  and  C_7
REMARK    2  A    between atoms: N_3  and  C_17
REMARK    3  A    between atoms: C_8  and  C_16
REMARK    4  A    between atoms: C_18  and  O_23
REMARK    5  A    between atoms: O_23  and  C_25
REMARK                            x       y       z     vdW  Elec       q    Type
REMARK                         _______ _______ _______ _____ _____    ______ ____
ROOT
ATOM      1  O   UNL     1      35.340 -22.377 -18.472  0.00  0.00    -0.252 OA
ATOM      2  N   UNL     1      36.978 -21.849 -16.882  0.00  0.00    -0.268 N 
ATOM      3  N   UNL     1      36.783 -20.565 -18.793  0.00  0.00    -0.268 N 
ATOM      4  C   UNL     1      36.268 -21.668 -18.095  0.00  0.00    +0.308 C 
ATOM      5  H   UNL     1      37.701 -21.202 -16.712  0.00  0.00    +0.156 HD
ATOM      6  H   UNL     1      37.531 -20.093 -18.363  0.00  0.00    +0.156 HD
ENDROOT
BRANCH   2   7
ATOM      7  C   UNL     1      36.790 -22.821 -15.900  0.00  0.00    +0.052 C 
ATOM      8  C   UNL     1      35.341 -23.980 -14.353  0.00  0.00    +0.073 C 
ATOM      9  C   UNL     1      35.529 -23.007 -15.335  0.00  0.00    +0.019 C 
ATOM     10  C   UNL     1      37.865 -23.606 -15.482  0.00  0.00    +0.015 C 
ATOM     11  C   UNL     1      36.416 -24.766 -13.935  0.00  0.00    +0.004 C 
ATOM     12  C   UNL     1      37.677 -24.579 -14.500  0.00  0.00    +0.001 C 
BRANCH   8  16
ATOM     13  F   UNL     1      33.987 -24.115 -12.385  0.00  0.00    -0.166 F 
ATOM     14  F   UNL     1      33.069 -23.260 -14.154  0.00  0.00    -0.166 F 
ATOM     15  F   UNL     1      33.455 -25.397 -14.058  0.00  0.00    -0.166 F 
ATOM     16  C   UNL     1      33.992 -24.181 -13.749  0.00  0.00    +0.419 C 
ENDBRANCH   8  16
ENDBRANCH   2   7
BRANCH   3  17
ATOM     17  C   UNL     1      36.359 -20.048 -20.040  0.00  0.00    +0.052 C 
ATOM     18  C   UNL     1      35.531 -19.035 -22.482  0.00  0.00    +0.145 C 
ATOM     19  C   UNL     1      35.077 -20.318 -20.485  0.00  0.00    +0.018 C 
ATOM     20  C   UNL     1      37.237 -19.282 -20.789  0.00  0.00    +0.018 C 
ATOM     21  C   UNL     1      34.660 -19.807 -21.716  0.00  0.00    +0.039 C 
ATOM     22  C   UNL     1      36.821 -18.771 -22.018  0.00  0.00    +0.039 C 
BRANCH  18  23
ATOM     23  O   UNL     1      35.124 -18.535 -23.680  0.00  0.00    -0.453 OA
BRANCH  23  25
ATOM     24  N   UNL     1      33.839 -14.585 -23.791  0.00  0.00    -0.242 NA
ATOM     25  C   UNL     1      34.698 -17.218 -23.717  0.00  0.00    +0.148 C 
ATOM     26  C   UNL     1      34.986 -16.386 -22.656  0.00  0.00    +0.058 C 
ATOM     27  C   UNL     1      33.993 -16.769 -24.813  0.00  0.00    +0.058 C 
ATOM     28  C   UNL     1      34.534 -15.078 -22.742  0.00  0.00    +0.102 C 
ATOM     29  C   UNL     1      33.586 -15.445 -24.801  0.00  0.00    +0.102 C 
ENDBRANCH  23  25
ENDBRANCH  18  23
ENDBRANCH   3  17
TORSDOF 5
ENDMDL
MODEL 8
REMARK VINA RESULT:     -11.0      7.006     11.732
REMARK  Name = 15942672
REMARK  5 active torsions:
REMARK  status: ('A' for Active; 'I' for Inactive)
REMARK    1  A    between atoms: N_2  and  C_7
REMARK    2  A    between atoms: N_3  and  C_17
REMARK    3  A    between atoms: C_8  and  C_16
REMARK    4  A    between atoms: C_18  and  O_23
REMARK    5  A    between atoms: O_23  and  C_25
REMARK                            x       y       z     vdW  Elec       q    Type
REMARK                         _______ _______ _______ _____ _____    ______ ____
ROOT
ATOM      1  O   UNL     1      33.215 -13.788 -21.006  0.00  0.00    -0.252 OA
ATOM      2  N   UNL     1      33.253 -12.429 -22.914  0.00  0.00    -0.268 N 
ATOM      3  N   UNL     1      34.142 -14.559 -23.010  0.00  0.00    -0.268 N 
ATOM      4  C   UNL     1      33.508 -13.616 -22.185  0.00  0.00    +0.308 C 
ATOM      5  H   UNL     1      33.545 -12.436 -23.855  0.00  0.00    +0.156 HD
ATOM      6  H   UNL     1      34.313 -14.276 -23.937  0.00  0.00    +0.156 HD
ENDROOT
BRANCH   2   7
ATOM      7  C   UNL     1      32.644 -11.253 -22.477  0.00  0.00    +0.052 C 
ATOM      8  C   UNL     1      31.757  -9.898 -20.684  0.00  0.00    +0.073 C 
ATOM      9  C   UNL     1      32.365 -11.074 -21.122  0.00  0.00    +0.019 C 
ATOM     10  C   UNL     1      32.315 -10.256 -23.394  0.00  0.00    +0.015 C 
ATOM     11  C   UNL     1      31.427  -8.900 -21.603  0.00  0.00    +0.004 C 
ATOM     12  C   UNL     1      31.706  -9.079 -22.957  0.00  0.00    +0.001 C 
BRANCH   8  16
ATOM     13  F   UNL     1      32.400 -10.242 -18.406  0.00  0.00    -0.166 F 
ATOM     14  F   UNL     1      31.365  -8.393 -18.868  0.00  0.00    -0.166 F 
ATOM     15  F   UNL     1      30.275 -10.275 -18.864  0.00  0.00    -0.166 F 
ATOM     16  C   UNL     1      31.458  -9.705 -19.236  0.00  0.00    +0.419 C 
ENDBRANCH   8  16
ENDBRANCH   2   7
BRANCH   3  17
ATOM     17  C   UNL     1      34.566 -15.866 -22.673  0.00  0.00    +0.052 C 
ATOM     18  C   UNL     1      35.397 -18.426 -22.015  0.00  0.00    +0.145 C 
ATOM     19  C   UNL     1      34.932 -16.145 -21.367  0.00  0.00    +0.018 C 
ATOM     20  C   UNL     1      34.607 -16.840 -23.657  0.00  0.00    +0.018 C 
ATOM     21  C   UNL     1      35.351 -17.434 -21.036  0.00  0.00    +0.039 C 
ATOM     22  C   UNL     1      35.025 -18.129 -23.326  0.00  0.00    +0.039 C 
BRANCH  18  23
ATOM     23  O   UNL     1      35.803 -19.684 -21.692  0.00  0.00    -0.453 OA
BRANCH  23  25
ATOM     24  N   UNL     1      33.529 -21.797 -18.930  0.00  0.00    -0.242 NA
ATOM     25  C   UNL     1      35.045 -20.389 -20.773  0.00  0.00    +0.148 C 
ATOM     26  C   UNL     1      33.676 -20.219 -20.756  0.00  0.00    +0.058 C 
ATOM     27  C   UNL     1      35.674 -21.244 -19.894  0.00  0.00    +0.058 C 
ATOM     28  C   UNL     1      32.963 -20.946 -19.816  0.00  0.00    +0.102 C 
ATOM     29  C   UNL     1      34.872 -21.924 -18.993  0.00  0.00    +0.102 C 
ENDBRANCH  23  25
ENDBRANCH  18  23
ENDBRANCH   3  17
TORSDOF 5
ENDMDL
MODEL 9
REMARK VINA RESULT:     -10.9      7.480     12.494
REMARK  Name = 15942672
REMARK  5 active torsions:
REMARK  status: ('A' for Active; 'I' for Inactive)
REMARK    1  A    between atoms: N_2  and  C_7
REMARK    2  A    between atoms: N_3  and  C_17
REMARK    3  A    between atoms: C_8  and  C_16
REMARK    4  A    between atoms: C_18  and  O_23
REMARK    5  A    between atoms: O_23  and  C_25
REMARK                            x       y       z     vdW  Elec       q    Type
REMARK                         _______ _______ _______ _____ _____    ______ ____
ROOT
ATOM      1  O   UNL     1      32.701 -12.681 -22.028  0.00  0.00    -0.252 OA
ATOM      2  N   UNL     1      32.970 -11.012 -23.650  0.00  0.00    -0.268 N 
ATOM      3  N   UNL     1      33.688 -13.162 -24.093  0.00  0.00    -0.268 N 
ATOM      4  C   UNL     1      33.082 -12.328 -23.140  0.00  0.00    +0.308 C 
ATOM      5  H   UNL     1      33.321 -10.876 -24.560  0.00  0.00    +0.156 HD
ATOM      6  H   UNL     1      33.941 -12.735 -24.942  0.00  0.00    +0.156 HD
ENDROOT
BRANCH   2   7
ATOM      7  C   UNL     1      32.432  -9.882 -23.034  0.00  0.00    +0.052 C 
ATOM      8  C   UNL     1      32.017  -8.585 -21.038  0.00  0.00    +0.073 C 
ATOM      9  C   UNL     1      32.555  -9.715 -21.654  0.00  0.00    +0.019 C 
ATOM     10  C   UNL     1      31.770  -8.920 -23.797  0.00  0.00    +0.015 C 
ATOM     11  C   UNL     1      31.356  -7.623 -21.802  0.00  0.00    +0.004 C 
ATOM     12  C   UNL     1      31.232  -7.791 -23.180  0.00  0.00    +0.001 C 
BRANCH   8  16
ATOM     13  F   UNL     1      30.962  -8.480 -18.894  0.00  0.00    -0.166 F 
ATOM     14  F   UNL     1      32.954  -9.334 -18.969  0.00  0.00    -0.166 F 
ATOM     15  F   UNL     1      32.681  -7.192 -19.229  0.00  0.00    -0.166 F 
ATOM     16  C   UNL     1      32.149  -8.404 -19.563  0.00  0.00    +0.419 C 
ENDBRANCH   8  16
ENDBRANCH   2   7
BRANCH   3  17
ATOM     17  C   UNL     1      33.983 -14.542 -23.982  0.00  0.00    +0.052 C 
ATOM     18  C   UNL     1      34.560 -17.243 -23.767  0.00  0.00    +0.145 C 
ATOM     19  C   UNL     1      34.660 -15.003 -22.866  0.00  0.00    +0.018 C 
ATOM     20  C   UNL     1      33.589 -15.402 -24.993  0.00  0.00    +0.018 C 
ATOM     21  C   UNL     1      34.951 -16.364 -22.757  0.00  0.00    +0.039 C 
ATOM     22  C   UNL     1      33.879 -16.762 -24.885  0.00  0.00    +0.039 C 
BRANCH  18  23
ATOM     23  O   UNL     1      34.842 -18.570 -23.660  0.00  0.00    -0.453 OA
BRANCH  23  25
ATOM     24  N   UNL     1      36.297 -19.946 -20.019  0.00  0.00    -0.242 NA
ATOM     25  C   UNL     1      35.327 -19.030 -22.448  0.00  0.00    +0.148 C 
ATOM     26  C   UNL     1      34.523 -19.825 -21.658  0.00  0.00    +0.058 C 
ATOM     27  C   UNL     1      36.602 -18.681 -22.056  0.00  0.00    +0.058 C 
ATOM     28  C   UNL     1      35.055 -20.257 -20.453  0.00  0.00    +0.102 C 
ATOM     29  C   UNL     1      37.040 -19.164 -20.834  0.00  0.00    +0.102 C 
ENDBRANCH  23  25
ENDBRANCH  18  23
ENDBRANCH   3  17
TORSDOF 5
ENDMDL
