MODEL 1
REMARK VINA RESULT:     -11.9      0.000      0.000
REMARK  Name = 23586145
REMARK  7 active torsions:
REMARK  status: ('A' for Active; 'I' for Inactive)
REMARK    1  A    between atoms: C_5  and  O_24
REMARK    2  A    between atoms: C_7  and  N_10
REMARK    3  A    between atoms: N_10  and  C_12
REMARK    4  A    between atoms: C_15  and  S_18
REMARK    5  A    between atoms: S_18  and  N_21
REMARK    6  A    between atoms: O_24  and  C_25
REMARK    7  A    between atoms: C_25  and  C_26
REMARK                            x       y       z     vdW  Elec       q    Type
REMARK                         _______ _______ _______ _____ _____    ______ ____
ROOT
ATOM      1  N   UNL     1      32.506 -23.739 -14.302  0.00  0.00    -0.299 NA
ATOM      2  N   UNL     1      31.527 -23.108 -16.406  0.00  0.00    -0.106 N 
ATOM      3  N   UNL     1      30.300 -22.786 -16.893  0.00  0.00    -0.139 NA
ATOM      4  N   UNL     1      30.157 -23.246 -14.667  0.00  0.00    -0.145 NA
ATOM      5  C   UNL     1      33.624 -23.795 -14.951  0.00  0.00    +0.291 C 
ATOM      6  C   UNL     1      33.851 -23.521 -16.387  0.00  0.00    +0.105 C 
ATOM      7  C   UNL     1      32.754 -23.176 -17.084  0.00  0.00    +0.142 C 
ATOM      8  C   UNL     1      31.413 -23.386 -15.039  0.00  0.00    +0.178 C 
ATOM      9  C   UNL     1      29.529 -22.885 -15.815  0.00  0.00    +0.230 C 
ENDROOT
BRANCH   7  10
ATOM     10  N   UNL     1      32.755 -22.885 -18.418  0.00  0.00    -0.299 N 
ATOM     11  H   UNL     1      32.118 -23.394 -18.969  0.00  0.00    +0.153 HD
BRANCH  10  12
ATOM     12  C   UNL     1      33.548 -21.956 -19.103  0.00  0.00    +0.049 C 
ATOM     13  C   UNL     1      34.945 -22.033 -19.041  0.00  0.00    +0.016 C 
ATOM     14  C   UNL     1      32.952 -20.938 -19.859  0.00  0.00    +0.016 C 
ATOM     15  C   UNL     1      35.132 -20.097 -20.474  0.00  0.00    +0.122 C 
ATOM     16  C   UNL     1      35.733 -21.107 -19.724  0.00  0.00    +0.021 C 
ATOM     17  C   UNL     1      33.741 -20.013 -20.542  0.00  0.00    +0.021 C 
BRANCH  15  18
ATOM     18  S   UNL     1      36.119 -18.938 -21.329  0.00  0.00    +0.057 S 
ATOM     19  O   UNL     1      37.472 -19.003 -20.793  0.00  0.00    -0.153 OA
ATOM     20  O   UNL     1      35.899 -19.108 -22.758  0.00  0.00    -0.153 OA
BRANCH  18  21
ATOM     21  N   UNL     1      35.399 -17.470 -20.833  0.00  0.00    -0.203 NA
ATOM     22  H   UNL     1      36.061 -16.705 -20.969  0.00  0.00    +0.144 HD
ATOM     23  H   UNL     1      35.146 -17.531 -19.848  0.00  0.00    +0.144 HD
ENDBRANCH  18  21
ENDBRANCH  15  18
ENDBRANCH  10  12
ENDBRANCH   7  10
BRANCH   5  24
ATOM     24  O   UNL     1      34.744 -24.130 -14.318  0.00  0.00    -0.451 OA
BRANCH  24  25
ATOM     25  C   UNL     1      35.911 -23.468 -14.767  0.00  0.00    +0.208 C 
BRANCH  25  26
ATOM     26  C   UNL     1      37.100 -23.980 -13.955  0.00  0.00    +0.044 C 
ATOM     27  C   UNL     1      36.850 -23.792 -12.452  0.00  0.00    +0.004 C 
ATOM     28  C   UNL     1      37.387 -25.451 -14.282  0.00  0.00    +0.004 C 
ATOM     29  C   UNL     1      38.004 -24.344 -11.616  0.00  0.00    +0.000 C 
ATOM     30  C   UNL     1      38.539 -26.001 -13.443  0.00  0.00    +0.000 C 
ATOM     31  C   UNL     1      38.291 -25.805 -11.951  0.00  0.00    +0.000 C 
ENDBRANCH  25  26
ENDBRANCH  24  25
ENDBRANCH   5  24
TORSDOF 7
ENDMDL
MODEL 2
REMARK VINA RESULT:     -11.8      3.539      7.320
REMARK  Name = 23586145
REMARK  7 active torsions:
REMARK  status: ('A' for Active; 'I' for Inactive)
REMARK    1  A    between atoms: C_5  and  O_24
REMARK    2  A    between atoms: C_7  and  N_10
REMARK    3  A    between atoms: N_10  and  C_12
REMARK    4  A    between atoms: C_15  and  S_18
REMARK    5  A    between atoms: S_18  and  N_21
REMARK    6  A    between atoms: O_24  and  C_25
REMARK    7  A    between atoms: C_25  and  C_26
REMARK                            x       y       z     vdW  Elec       q    Type
REMARK                         _______ _______ _______ _____ _____    ______ ____
ROOT
ATOM      1  N   UNL     1      31.349 -23.820 -15.963  0.00  0.00    -0.299 NA
ATOM      2  N   UNL     1      32.207 -24.653 -13.876  0.00  0.00    -0.106 N 
ATOM      3  N   UNL     1      31.731 -25.269 -12.763  0.00  0.00    -0.139 NA
ATOM      4  N   UNL     1      30.029 -24.886 -14.227  0.00  0.00    -0.145 NA
ATOM      5  C   UNL     1      32.571 -23.477 -16.215  0.00  0.00    +0.291 C 
ATOM      6  C   UNL     1      33.760 -23.667 -15.356  0.00  0.00    +0.105 C 
ATOM      7  C   UNL     1      33.523 -24.269 -14.177  0.00  0.00    +0.142 C 
ATOM      8  C   UNL     1      31.144 -24.428 -14.760  0.00  0.00    +0.178 C 
ATOM      9  C   UNL     1      30.434 -25.380 -13.029  0.00  0.00    +0.230 C 
ENDROOT
BRANCH   7  10
ATOM     10  N   UNL     1      34.486 -24.535 -13.247  0.00  0.00    -0.299 N 
ATOM     11  H   UNL     1      34.193 -24.512 -12.307  0.00  0.00    +0.153 HD
BRANCH  10  12
ATOM     12  C   UNL     1      35.837 -24.835 -13.457  0.00  0.00    +0.049 C 
ATOM     13  C   UNL     1      36.214 -25.759 -14.439  0.00  0.00    +0.016 C 
ATOM     14  C   UNL     1      36.828 -24.213 -12.686  0.00  0.00    +0.016 C 
ATOM     15  C   UNL     1      38.541 -25.434 -13.875  0.00  0.00    +0.122 C 
ATOM     16  C   UNL     1      37.561 -26.057 -14.647  0.00  0.00    +0.021 C 
ATOM     17  C   UNL     1      38.175 -24.511 -12.895  0.00  0.00    +0.021 C 
BRANCH  15  18
ATOM     18  S   UNL     1      40.227 -25.807 -14.136  0.00  0.00    +0.057 S 
ATOM     19  O   UNL     1      41.006 -24.598 -13.907  0.00  0.00    -0.153 OA
ATOM     20  O   UNL     1      40.549 -27.025 -13.406  0.00  0.00    -0.153 OA
BRANCH  18  21
ATOM     21  N   UNL     1      40.227 -26.154 -15.810  0.00  0.00    -0.203 NA
ATOM     22  H   UNL     1      40.286 -25.283 -16.337  0.00  0.00    +0.144 HD
ATOM     23  H   UNL     1      39.367 -26.643 -16.055  0.00  0.00    +0.144 HD
ENDBRANCH  18  21
ENDBRANCH  15  18
ENDBRANCH  10  12
ENDBRANCH   7  10
BRANCH   5  24
ATOM     24  O   UNL     1      32.870 -22.877 -17.363  0.00  0.00    -0.451 OA
BRANCH  24  25
ATOM     25  C   UNL     1      34.219 -22.995 -17.773  0.00  0.00    +0.208 C 
BRANCH  25  26
ATOM     26  C   UNL     1      34.391 -22.253 -19.097  0.00  0.00    +0.044 C 
ATOM     27  C   UNL     1      33.209 -21.305 -19.342  0.00  0.00    +0.004 C 
ATOM     28  C   UNL     1      35.720 -21.487 -19.121  0.00  0.00    +0.004 C 
ATOM     29  C   UNL     1      33.382 -20.512 -20.636  0.00  0.00    +0.000 C 
ATOM     30  C   UNL     1      35.889 -20.693 -20.415  0.00  0.00    +0.000 C 
ATOM     31  C   UNL     1      34.709 -19.759 -20.660  0.00  0.00    +0.000 C 
ENDBRANCH  25  26
ENDBRANCH  24  25
ENDBRANCH   5  24
TORSDOF 7
ENDMDL
MODEL 3
REMARK VINA RESULT:     -11.7      3.983      7.337
REMARK  Name = 23586145
REMARK  7 active torsions:
REMARK  status: ('A' for Active; 'I' for Inactive)
REMARK    1  A    between atoms: C_5  and  O_24
REMARK    2  A    between atoms: C_7  and  N_10
REMARK    3  A    between atoms: N_10  and  C_12
REMARK    4  A    between atoms: C_15  and  S_18
REMARK    5  A    between atoms: S_18  and  N_21
REMARK    6  A    between atoms: O_24  and  C_25
REMARK    7  A    between atoms: C_25  and  C_26
REMARK                            x       y       z     vdW  Elec       q    Type
REMARK                         _______ _______ _______ _____ _____    ______ ____
ROOT
ATOM      1  N   UNL     1      37.222 -23.754 -13.502  0.00  0.00    -0.299 NA
ATOM      2  N   UNL     1      35.321 -24.483 -12.220  0.00  0.00    -0.106 N 
ATOM      3  N   UNL     1      34.999 -24.681 -10.915  0.00  0.00    -0.139 NA
ATOM      4  N   UNL     1      37.148 -23.945 -11.082  0.00  0.00    -0.145 NA
ATOM      5  C   UNL     1      36.469 -23.938 -14.538  0.00  0.00    +0.291 C 
ATOM      6  C   UNL     1      35.067 -24.408 -14.566  0.00  0.00    +0.105 C 
ATOM      7  C   UNL     1      34.528 -24.673 -13.362  0.00  0.00    +0.142 C 
ATOM      8  C   UNL     1      36.645 -24.032 -12.297  0.00  0.00    +0.178 C 
ATOM      9  C   UNL     1      36.122 -24.345 -10.289  0.00  0.00    +0.230 C 
ENDROOT
BRANCH   7  10
ATOM     10  N   UNL     1      33.250 -25.116 -13.177  0.00  0.00    -0.299 N 
ATOM     11  H   UNL     1      33.134 -25.817 -12.496  0.00  0.00    +0.153 HD
BRANCH  10  12
ATOM     12  C   UNL     1      32.084 -24.702 -13.832  0.00  0.00    +0.049 C 
ATOM     13  C   UNL     1      32.086 -23.544 -14.619  0.00  0.00    +0.016 C 
ATOM     14  C   UNL     1      30.901 -25.442 -13.706  0.00  0.00    +0.016 C 
ATOM     15  C   UNL     1      29.750 -23.876 -15.141  0.00  0.00    +0.122 C 
ATOM     16  C   UNL     1      30.923 -23.133 -15.271  0.00  0.00    +0.021 C 
ATOM     17  C   UNL     1      29.739 -25.031 -14.358  0.00  0.00    +0.021 C 
BRANCH  15  18
ATOM     18  S   UNL     1      28.295 -23.361 -15.957  0.00  0.00    +0.057 S 
ATOM     19  O   UNL     1      27.254 -23.161 -14.958  0.00  0.00    -0.153 OA
ATOM     20  O   UNL     1      28.636 -22.281 -16.872  0.00  0.00    -0.153 OA
BRANCH  18  21
ATOM     21  N   UNL     1      27.923 -24.756 -16.870  0.00  0.00    -0.203 NA
ATOM     22  H   UNL     1      26.936 -24.983 -16.755  0.00  0.00    +0.144 HD
ATOM     23  H   UNL     1      28.492 -25.537 -16.544  0.00  0.00    +0.144 HD
ENDBRANCH  18  21
ENDBRANCH  15  18
ENDBRANCH  10  12
ENDBRANCH   7  10
BRANCH   5  24
ATOM     24  O   UNL     1      36.943 -23.694 -15.756  0.00  0.00    -0.451 OA
BRANCH  24  25
ATOM     25  C   UNL     1      36.716 -22.385 -16.242  0.00  0.00    +0.208 C 
BRANCH  25  26
ATOM     26  C   UNL     1      36.039 -22.486 -17.607  0.00  0.00    +0.044 C 
ATOM     27  C   UNL     1      34.513 -22.543 -17.452  0.00  0.00    +0.004 C 
ATOM     28  C   UNL     1      36.453 -21.314 -18.506  0.00  0.00    +0.004 C 
ATOM     29  C   UNL     1      33.810 -22.592 -18.808  0.00  0.00    +0.000 C 
ATOM     30  C   UNL     1      35.747 -21.365 -19.860  0.00  0.00    +0.000 C 
ATOM     31  C   UNL     1      34.232 -21.430 -19.701  0.00  0.00    +0.000 C 
ENDBRANCH  25  26
ENDBRANCH  24  25
ENDBRANCH   5  24
TORSDOF 7
ENDMDL
MODEL 4
REMARK VINA RESULT:     -11.5      2.134      6.010
REMARK  Name = 23586145
REMARK  7 active torsions:
REMARK  status: ('A' for Active; 'I' for Inactive)
REMARK    1  A    between atoms: C_5  and  O_24
REMARK    2  A    between atoms: C_7  and  N_10
REMARK    3  A    between atoms: N_10  and  C_12
REMARK    4  A    between atoms: C_15  and  S_18
REMARK    5  A    between atoms: S_18  and  N_21
REMARK    6  A    between atoms: O_24  and  C_25
REMARK    7  A    between atoms: C_25  and  C_26
REMARK                            x       y       z     vdW  Elec       q    Type
REMARK                         _______ _______ _______ _____ _____    ______ ____
ROOT
ATOM      1  N   UNL     1      32.151 -23.439 -14.299  0.00  0.00    -0.299 NA
ATOM      2  N   UNL     1      33.887 -23.633 -15.953  0.00  0.00    -0.106 N 
ATOM      3  N   UNL     1      35.223 -23.879 -15.990  0.00  0.00    -0.139 NA
ATOM      4  N   UNL     1      34.487 -23.910 -13.835  0.00  0.00    -0.145 NA
ATOM      5  C   UNL     1      31.361 -23.214 -15.299  0.00  0.00    +0.291 C 
ATOM      6  C   UNL     1      31.710 -23.167 -16.735  0.00  0.00    +0.105 C 
ATOM      7  C   UNL     1      33.007 -23.386 -17.017  0.00  0.00    +0.142 C 
ATOM      8  C   UNL     1      33.459 -23.657 -14.620  0.00  0.00    +0.178 C 
ATOM      9  C   UNL     1      35.522 -24.035 -14.705  0.00  0.00    +0.230 C 
ENDROOT
BRANCH   7  10
ATOM     10  N   UNL     1      33.526 -23.385 -18.279  0.00  0.00    -0.299 N 
ATOM     11  H   UNL     1      33.501 -24.247 -18.754  0.00  0.00    +0.153 HD
BRANCH  10  12
ATOM     12  C   UNL     1      34.092 -22.317 -18.985  0.00  0.00    +0.049 C 
ATOM     13  C   UNL     1      35.483 -22.160 -19.039  0.00  0.00    +0.016 C 
ATOM     14  C   UNL     1      33.274 -21.392 -19.647  0.00  0.00    +0.016 C 
ATOM     15  C   UNL     1      35.224 -20.179 -20.398  0.00  0.00    +0.122 C 
ATOM     16  C   UNL     1      36.046 -21.095 -19.742  0.00  0.00    +0.021 C 
ATOM     17  C   UNL     1      33.837 -20.328 -20.350  0.00  0.00    +0.021 C 
BRANCH  15  18
ATOM     18  S   UNL     1      35.929 -18.847 -21.278  0.00  0.00    +0.057 S 
ATOM     19  O   UNL     1      35.812 -19.124 -22.703  0.00  0.00    -0.153 OA
ATOM     20  O   UNL     1      35.399 -17.603 -20.738  0.00  0.00    -0.153 OA
BRANCH  18  21
ATOM     21  N   UNL     1      37.570 -18.988 -20.821  0.00  0.00    -0.203 NA
ATOM     22  H   UNL     1      38.126 -18.311 -21.343  0.00  0.00    +0.144 HD
ATOM     23  H   UNL     1      37.899 -19.930 -21.027  0.00  0.00    +0.144 HD
ENDBRANCH  18  21
ENDBRANCH  15  18
ENDBRANCH  10  12
ENDBRANCH   7  10
BRANCH   5  24
ATOM     24  O   UNL     1      30.068 -22.990 -15.087  0.00  0.00    -0.451 OA
BRANCH  24  25
ATOM     25  C   UNL     1      29.231 -24.125 -15.202  0.00  0.00    +0.208 C 
BRANCH  25  26
ATOM     26  C   UNL     1      27.885 -23.680 -15.770  0.00  0.00    +0.044 C 
ATOM     27  C   UNL     1      27.285 -22.551 -14.920  0.00  0.00    +0.004 C 
ATOM     28  C   UNL     1      28.032 -23.241 -17.233  0.00  0.00    +0.004 C 
ATOM     29  C   UNL     1      25.962 -22.052 -15.498  0.00  0.00    +0.000 C 
ATOM     30  C   UNL     1      26.708 -22.741 -17.808  0.00  0.00    +0.000 C 
ATOM     31  C   UNL     1      26.111 -21.626 -16.955  0.00  0.00    +0.000 C 
ENDBRANCH  25  26
ENDBRANCH  24  25
ENDBRANCH   5  24
TORSDOF 7
ENDMDL
MODEL 5
REMARK VINA RESULT:     -11.3      5.108     10.766
REMARK  Name = 23586145
REMARK  7 active torsions:
REMARK  status: ('A' for Active; 'I' for Inactive)
REMARK    1  A    between atoms: C_5  and  O_24
REMARK    2  A    between atoms: C_7  and  N_10
REMARK    3  A    between atoms: N_10  and  C_12
REMARK    4  A    between atoms: C_15  and  S_18
REMARK    5  A    between atoms: S_18  and  N_21
REMARK    6  A    between atoms: O_24  and  C_25
REMARK    7  A    between atoms: C_25  and  C_26
REMARK                            x       y       z     vdW  Elec       q    Type
REMARK                         _______ _______ _______ _____ _____    ______ ____
ROOT
ATOM      1  N   UNL     1      33.952 -15.987 -23.824  0.00  0.00    -0.299 NA
ATOM      2  N   UNL     1      34.653 -18.230 -23.312  0.00  0.00    -0.106 N 
ATOM      3  N   UNL     1      34.497 -19.479 -23.825  0.00  0.00    -0.139 NA
ATOM      4  N   UNL     1      33.380 -17.966 -25.109  0.00  0.00    -0.145 NA
ATOM      5  C   UNL     1      34.621 -15.643 -22.771  0.00  0.00    +0.291 C 
ATOM      6  C   UNL     1      35.384 -16.521 -21.857  0.00  0.00    +0.105 C 
ATOM      7  C   UNL     1      35.370 -17.828 -22.174  0.00  0.00    +0.142 C 
ATOM      8  C   UNL     1      33.959 -17.319 -24.117  0.00  0.00    +0.178 C 
ATOM      9  C   UNL     1      33.733 -19.258 -24.889  0.00  0.00    +0.230 C 
ENDROOT
BRANCH   7  10
ATOM     10  N   UNL     1      36.013 -18.796 -21.458  0.00  0.00    -0.299 N 
ATOM     11  H   UNL     1      36.996 -18.768 -21.486  0.00  0.00    +0.153 HD
BRANCH  10  12
ATOM     12  C   UNL     1      35.454 -19.825 -20.691  0.00  0.00    +0.049 C 
ATOM     13  C   UNL     1      34.064 -19.984 -20.623  0.00  0.00    +0.016 C 
ATOM     14  C   UNL     1      36.279 -20.709 -19.983  0.00  0.00    +0.016 C 
ATOM     15  C   UNL     1      34.337 -21.885 -19.156  0.00  0.00    +0.122 C 
ATOM     16  C   UNL     1      33.508 -21.010 -19.858  0.00  0.00    +0.021 C 
ATOM     17  C   UNL     1      35.723 -21.734 -19.219  0.00  0.00    +0.021 C 
BRANCH  15  18
ATOM     18  S   UNL     1      33.640 -23.169 -18.200  0.00  0.00    +0.057 S 
ATOM     19  O   UNL     1      32.329 -22.737 -17.736  0.00  0.00    -0.153 OA
ATOM     20  O   UNL     1      33.772 -24.418 -18.936  0.00  0.00    -0.153 OA
BRANCH  18  21
ATOM     21  N   UNL     1      34.713 -23.201 -16.870  0.00  0.00    -0.203 NA
ATOM     22  H   UNL     1      34.319 -22.654 -16.104  0.00  0.00    +0.144 HD
ATOM     23  H   UNL     1      35.609 -22.802 -17.146  0.00  0.00    +0.144 HD
ENDBRANCH  18  21
ENDBRANCH  15  18
ENDBRANCH  10  12
ENDBRANCH   7  10
BRANCH   5  24
ATOM     24  O   UNL     1      34.673 -14.367 -22.404  0.00  0.00    -0.451 OA
BRANCH  24  25
ATOM     25  C   UNL     1      34.085 -13.453 -23.310  0.00  0.00    +0.208 C 
BRANCH  25  26
ATOM     26  C   UNL     1      32.831 -12.867 -22.663  0.00  0.00    +0.044 C 
ATOM     27  C   UNL     1      32.800 -13.183 -21.161  0.00  0.00    +0.004 C 
ATOM     28  C   UNL     1      32.753 -11.354 -22.904  0.00  0.00    +0.004 C 
ATOM     29  C   UNL     1      31.581 -12.563 -20.480  0.00  0.00    +0.000 C 
ATOM     30  C   UNL     1      31.535 -10.736 -22.220  0.00  0.00    +0.000 C 
ATOM     31  C   UNL     1      31.502 -11.061 -20.730  0.00  0.00    +0.000 C 
ENDBRANCH  25  26
ENDBRANCH  24  25
ENDBRANCH   5  24
TORSDOF 7
ENDMDL
MODEL 6
REMARK VINA RESULT:     -11.1      2.123      5.456
REMARK  Name = 23586145
REMARK  7 active torsions:
REMARK  status: ('A' for Active; 'I' for Inactive)
REMARK    1  A    between atoms: C_5  and  O_24
REMARK    2  A    between atoms: C_7  and  N_10
REMARK    3  A    between atoms: N_10  and  C_12
REMARK    4  A    between atoms: C_15  and  S_18
REMARK    5  A    between atoms: S_18  and  N_21
REMARK    6  A    between atoms: O_24  and  C_25
REMARK    7  A    between atoms: C_25  and  C_26
REMARK                            x       y       z     vdW  Elec       q    Type
REMARK                         _______ _______ _______ _____ _____    ______ ____
ROOT
ATOM      1  N   UNL     1      33.688 -23.462 -13.733  0.00  0.00    -0.299 NA
ATOM      2  N   UNL     1      34.957 -23.497 -15.775  0.00  0.00    -0.106 N 
ATOM      3  N   UNL     1      36.260 -23.572 -16.153  0.00  0.00    -0.139 NA
ATOM      4  N   UNL     1      36.106 -23.614 -13.881  0.00  0.00    -0.145 NA
ATOM      5  C   UNL     1      32.647 -23.377 -14.497  0.00  0.00    +0.291 C 
ATOM      6  C   UNL     1      32.610 -23.341 -15.975  0.00  0.00    +0.105 C 
ATOM      7  C   UNL     1      33.811 -23.404 -16.579  0.00  0.00    +0.142 C 
ATOM      8  C   UNL     1      34.888 -23.524 -14.377  0.00  0.00    +0.178 C 
ATOM      9  C   UNL     1      36.893 -23.640 -14.987  0.00  0.00    +0.230 C 
ENDROOT
BRANCH   7  10
ATOM     10  N   UNL     1      33.988 -23.386 -17.933  0.00  0.00    -0.299 N 
ATOM     11  H   UNL     1      33.789 -24.228 -18.403  0.00  0.00    +0.153 HD
BRANCH  10  12
ATOM     12  C   UNL     1      34.417 -22.325 -18.738  0.00  0.00    +0.049 C 
ATOM     13  C   UNL     1      33.488 -21.534 -19.425  0.00  0.00    +0.016 C 
ATOM     14  C   UNL     1      35.783 -22.041 -18.867  0.00  0.00    +0.016 C 
ATOM     15  C   UNL     1      35.279 -20.202 -20.350  0.00  0.00    +0.122 C 
ATOM     16  C   UNL     1      33.917 -20.477 -20.228  0.00  0.00    +0.021 C 
ATOM     17  C   UNL     1      36.212 -20.984 -19.669  0.00  0.00    +0.021 C 
BRANCH  15  18
ATOM     18  S   UNL     1      35.816 -18.879 -21.355  0.00  0.00    +0.057 S 
ATOM     19  O   UNL     1      35.562 -19.226 -22.746  0.00  0.00    -0.153 OA
ATOM     20  O   UNL     1      35.282 -17.639 -20.810  0.00  0.00    -0.153 OA
BRANCH  18  21
ATOM     21  N   UNL     1      37.501 -18.921 -21.073  0.00  0.00    -0.203 NA
ATOM     22  H   UNL     1      37.923 -19.647 -21.652  0.00  0.00    +0.144 HD
ATOM     23  H   UNL     1      37.676 -19.124 -20.090  0.00  0.00    +0.144 HD
ENDBRANCH  18  21
ENDBRANCH  15  18
ENDBRANCH  10  12
ENDBRANCH   7  10
BRANCH   5  24
ATOM     24  O   UNL     1      31.432 -23.310 -13.961  0.00  0.00    -0.451 OA
BRANCH  24  25
ATOM     25  C   UNL     1      30.704 -24.524 -13.963  0.00  0.00    +0.208 C 
BRANCH  25  26
ATOM     26  C   UNL     1      29.360 -24.281 -14.647  0.00  0.00    +0.044 C 
ATOM     27  C   UNL     1      29.105 -22.777 -14.821  0.00  0.00    +0.004 C 
ATOM     28  C   UNL     1      29.299 -25.005 -15.998  0.00  0.00    +0.004 C 
ATOM     29  C   UNL     1      27.789 -22.509 -15.549  0.00  0.00    +0.000 C 
ATOM     30  C   UNL     1      27.983 -24.733 -16.725  0.00  0.00    +0.000 C 
ATOM     31  C   UNL     1      27.730 -23.238 -16.887  0.00  0.00    +0.000 C 
ENDBRANCH  25  26
ENDBRANCH  24  25
ENDBRANCH   5  24
TORSDOF 7
ENDMDL
MODEL 7
REMARK VINA RESULT:     -11.0      3.373      7.242
REMARK  Name = 23586145
REMARK  7 active torsions:
REMARK  status: ('A' for Active; 'I' for Inactive)
REMARK    1  A    between atoms: C_5  and  O_24
REMARK    2  A    between atoms: C_7  and  N_10
REMARK    3  A    between atoms: N_10  and  C_12
REMARK    4  A    between atoms: C_15  and  S_18
REMARK    5  A    between atoms: S_18  and  N_21
REMARK    6  A    between atoms: O_24  and  C_25
REMARK    7  A    between atoms: C_25  and  C_26
REMARK                            x       y       z     vdW  Elec       q    Type
REMARK                         _______ _______ _______ _____ _____    ______ ____
ROOT
ATOM      1  N   UNL     1      31.949 -22.816 -17.614  0.00  0.00    -0.299 NA
ATOM      2  N   UNL     1      32.352 -23.498 -15.343  0.00  0.00    -0.106 N 
ATOM      3  N   UNL     1      31.629 -23.742 -14.219  0.00  0.00    -0.139 NA
ATOM      4  N   UNL     1      30.241 -23.122 -15.916  0.00  0.00    -0.145 NA
ATOM      5  C   UNL     1      33.231 -22.904 -17.764  0.00  0.00    +0.291 C 
ATOM      6  C   UNL     1      34.236 -23.293 -16.750  0.00  0.00    +0.105 C 
ATOM      7  C   UNL     1      33.739 -23.585 -15.535  0.00  0.00    +0.142 C 
ATOM      8  C   UNL     1      31.478 -23.119 -16.370  0.00  0.00    +0.178 C 
ATOM      9  C   UNL     1      30.385 -23.502 -14.621  0.00  0.00    +0.230 C 
ENDROOT
BRANCH   7  10
ATOM     10  N   UNL     1      34.501 -23.965 -14.468  0.00  0.00    -0.299 N 
ATOM     11  H   UNL     1      34.066 -23.907 -13.587  0.00  0.00    +0.153 HD
BRANCH  10  12
ATOM     12  C   UNL     1      35.823 -24.425 -14.465  0.00  0.00    +0.049 C 
ATOM     13  C   UNL     1      36.889 -23.519 -14.541  0.00  0.00    +0.016 C 
ATOM     14  C   UNL     1      36.096 -25.796 -14.386  0.00  0.00    +0.016 C 
ATOM     15  C   UNL     1      38.469 -25.346 -14.459  0.00  0.00    +0.122 C 
ATOM     16  C   UNL     1      38.206 -23.978 -14.538  0.00  0.00    +0.021 C 
ATOM     17  C   UNL     1      37.413 -26.256 -14.383  0.00  0.00    +0.021 C 
BRANCH  15  18
ATOM     18  S   UNL     1      40.117 -25.920 -14.455  0.00  0.00    +0.057 S 
ATOM     19  O   UNL     1      40.259 -26.903 -13.390  0.00  0.00    -0.153 OA
ATOM     20  O   UNL     1      40.487 -26.273 -15.819  0.00  0.00    -0.153 OA
BRANCH  18  21
ATOM     21  N   UNL     1      40.955 -24.499 -14.011  0.00  0.00    -0.203 NA
ATOM     22  H   UNL     1      40.931 -23.835 -14.785  0.00  0.00    +0.144 HD
ATOM     23  H   UNL     1      41.923 -24.730 -13.791  0.00  0.00    +0.144 HD
ENDBRANCH  18  21
ENDBRANCH  15  18
ENDBRANCH  10  12
ENDBRANCH   7  10
BRANCH   5  24
ATOM     24  O   UNL     1      33.784 -22.628 -18.941  0.00  0.00    -0.451 OA
BRANCH  24  25
ATOM     25  C   UNL     1      35.171 -22.353 -18.907  0.00  0.00    +0.208 C 
BRANCH  25  26
ATOM     26  C   UNL     1      35.398 -20.938 -19.437  0.00  0.00    +0.044 C 
ATOM     27  C   UNL     1      36.829 -20.782 -19.970  0.00  0.00    +0.004 C 
ATOM     28  C   UNL     1      34.370 -20.595 -20.523  0.00  0.00    +0.004 C 
ATOM     29  C   UNL     1      37.065 -19.390 -20.554  0.00  0.00    +0.000 C 
ATOM     30  C   UNL     1      34.610 -19.203 -21.107  0.00  0.00    +0.000 C 
ATOM     31  C   UNL     1      36.036 -19.050 -21.627  0.00  0.00    +0.000 C 
ENDBRANCH  25  26
ENDBRANCH  24  25
ENDBRANCH   5  24
TORSDOF 7
ENDMDL
MODEL 8
REMARK VINA RESULT:     -10.7      3.771      7.446
REMARK  Name = 23586145
REMARK  7 active torsions:
REMARK  status: ('A' for Active; 'I' for Inactive)
REMARK    1  A    between atoms: C_5  and  O_24
REMARK    2  A    between atoms: C_7  and  N_10
REMARK    3  A    between atoms: N_10  and  C_12
REMARK    4  A    between atoms: C_15  and  S_18
REMARK    5  A    between atoms: S_18  and  N_21
REMARK    6  A    between atoms: O_24  and  C_25
REMARK    7  A    between atoms: C_25  and  C_26
REMARK                            x       y       z     vdW  Elec       q    Type
REMARK                         _______ _______ _______ _____ _____    ______ ____
ROOT
ATOM      1  N   UNL     1      33.068 -21.952 -19.231  0.00  0.00    -0.299 NA
ATOM      2  N   UNL     1      35.385 -21.644 -18.664  0.00  0.00    -0.106 N 
ATOM      3  N   UNL     1      36.472 -21.003 -19.169  0.00  0.00    -0.139 NA
ATOM      4  N   UNL     1      34.670 -20.658 -20.518  0.00  0.00    -0.145 NA
ATOM      5  C   UNL     1      33.002 -22.666 -18.154  0.00  0.00    +0.291 C 
ATOM      6  C   UNL     1      34.090 -22.965 -17.198  0.00  0.00    +0.105 C 
ATOM      7  C   UNL     1      35.283 -22.423 -17.501  0.00  0.00    +0.142 C 
ATOM      8  C   UNL     1      34.292 -21.418 -19.509  0.00  0.00    +0.178 C 
ATOM      9  C   UNL     1      35.985 -20.436 -20.268  0.00  0.00    +0.230 C 
ENDROOT
BRANCH   7  10
ATOM     10  N   UNL     1      36.410 -22.582 -16.746  0.00  0.00    -0.299 N 
ATOM     11  H   UNL     1      37.238 -22.213 -17.129  0.00  0.00    +0.153 HD
BRANCH  10  12
ATOM     12  C   UNL     1      36.539 -23.202 -15.498  0.00  0.00    +0.049 C 
ATOM     13  C   UNL     1      37.702 -23.911 -15.176  0.00  0.00    +0.016 C 
ATOM     14  C   UNL     1      35.505 -23.121 -14.557  0.00  0.00    +0.016 C 
ATOM     15  C   UNL     1      36.795 -24.444 -13.001  0.00  0.00    +0.122 C 
ATOM     16  C   UNL     1      37.830 -24.530 -13.932  0.00  0.00    +0.021 C 
ATOM     17  C   UNL     1      35.632 -23.739 -13.313  0.00  0.00    +0.021 C 
BRANCH  15  18
ATOM     18  S   UNL     1      36.955 -25.218 -11.444  0.00  0.00    +0.057 S 
ATOM     19  O   UNL     1      37.564 -26.525 -11.641  0.00  0.00    -0.153 OA
ATOM     20  O   UNL     1      37.559 -24.271 -10.517  0.00  0.00    -0.153 OA
BRANCH  18  21
ATOM     21  N   UNL     1      35.315 -25.432 -11.017  0.00  0.00    -0.203 NA
ATOM     22  H   UNL     1      34.807 -24.562 -11.176  0.00  0.00    +0.144 HD
ATOM     23  H   UNL     1      35.250 -25.688 -10.033  0.00  0.00    +0.144 HD
ENDBRANCH  18  21
ENDBRANCH  15  18
ENDBRANCH  10  12
ENDBRANCH   7  10
BRANCH   5  24
ATOM     24  O   UNL     1      31.851 -23.229 -17.799  0.00  0.00    -0.451 OA
BRANCH  24  25
ATOM     25  C   UNL     1      31.335 -22.812 -16.549  0.00  0.00    +0.208 C 
BRANCH  25  26
ATOM     26  C   UNL     1      31.237 -24.032 -15.635  0.00  0.00    +0.044 C 
ATOM     27  C   UNL     1      31.986 -23.783 -14.318  0.00  0.00    +0.004 C 
ATOM     28  C   UNL     1      29.770 -24.393 -15.368  0.00  0.00    +0.004 C 
ATOM     29  C   UNL     1      31.859 -24.969 -13.364  0.00  0.00    +0.000 C 
ATOM     30  C   UNL     1      29.646 -25.578 -14.412  0.00  0.00    +0.000 C 
ATOM     31  C   UNL     1      30.399 -25.330 -13.109  0.00  0.00    +0.000 C 
ENDBRANCH  25  26
ENDBRANCH  24  25
ENDBRANCH   5  24
TORSDOF 7
ENDMDL
MODEL 9
REMARK VINA RESULT:     -10.4      5.842     11.097
REMARK  Name = 23586145
REMARK  7 active torsions:
REMARK  status: ('A' for Active; 'I' for Inactive)
REMARK    1  A    between atoms: C_5  and  O_24
REMARK    2  A    between atoms: C_7  and  N_10
REMARK    3  A    between atoms: N_10  and  C_12
REMARK    4  A    between atoms: C_15  and  S_18
REMARK    5  A    between atoms: S_18  and  N_21
REMARK    6  A    between atoms: O_24  and  C_25
REMARK    7  A    between atoms: C_25  and  C_26
REMARK                            x       y       z     vdW  Elec       q    Type
REMARK                         _______ _______ _______ _____ _____    ______ ____
ROOT
ATOM      1  N   UNL     1      33.423 -14.330 -22.451  0.00  0.00    -0.299 NA
ATOM      2  N   UNL     1      34.496 -16.352 -23.190  0.00  0.00    -0.106 N 
ATOM      3  N   UNL     1      34.719 -17.007 -24.359  0.00  0.00    -0.139 NA
ATOM      4  N   UNL     1      33.554 -15.090 -24.753  0.00  0.00    -0.145 NA
ATOM      5  C   UNL     1      33.790 -14.687 -21.262  0.00  0.00    +0.291 C 
ATOM      6  C   UNL     1      34.545 -15.898 -20.874  0.00  0.00    +0.105 C 
ATOM      7  C   UNL     1      34.881 -16.713 -21.890  0.00  0.00    +0.142 C 
ATOM      8  C   UNL     1      33.780 -15.179 -23.457  0.00  0.00    +0.178 C 
ATOM      9  C   UNL     1      34.137 -16.211 -25.250  0.00  0.00    +0.230 C 
ENDROOT
BRANCH   7  10
ATOM     10  N   UNL     1      35.578 -17.877 -21.738  0.00  0.00    -0.299 N 
ATOM     11  H   UNL     1      36.459 -17.910 -22.177  0.00  0.00    +0.153 HD
BRANCH  10  12
ATOM     12  C   UNL     1      35.201 -19.031 -21.041  0.00  0.00    +0.049 C 
ATOM     13  C   UNL     1      36.169 -19.834 -20.423  0.00  0.00    +0.016 C 
ATOM     14  C   UNL     1      33.852 -19.396 -20.952  0.00  0.00    +0.016 C 
ATOM     15  C   UNL     1      34.446 -21.339 -19.645  0.00  0.00    +0.122 C 
ATOM     16  C   UNL     1      35.792 -20.983 -19.728  0.00  0.00    +0.021 C 
ATOM     17  C   UNL     1      33.476 -20.545 -20.258  0.00  0.00    +0.021 C 
BRANCH  15  18
ATOM     18  S   UNL     1      33.976 -22.778 -18.776  0.00  0.00    +0.057 S 
ATOM     19  O   UNL     1      32.665 -22.550 -18.185  0.00  0.00    -0.153 OA
ATOM     20  O   UNL     1      34.189 -23.931 -19.639  0.00  0.00    -0.153 OA
BRANCH  18  21
ATOM     21  N   UNL     1      35.146 -22.802 -17.531  0.00  0.00    -0.203 NA
ATOM     22  H   UNL     1      36.059 -22.568 -17.920  0.00  0.00    +0.144 HD
ATOM     23  H   UNL     1      35.182 -23.733 -17.116  0.00  0.00    +0.144 HD
ENDBRANCH  18  21
ENDBRANCH  15  18
ENDBRANCH  10  12
ENDBRANCH   7  10
BRANCH   5  24
ATOM     24  O   UNL     1      33.488 -13.924 -20.216  0.00  0.00    -0.451 OA
BRANCH  24  25
ATOM     25  C   UNL     1      32.230 -13.280 -20.282  0.00  0.00    +0.208 C 
BRANCH  25  26
ATOM     26  C   UNL     1      32.459 -11.769 -20.280  0.00  0.00    +0.044 C 
ATOM     27  C   UNL     1      31.843 -11.127 -21.531  0.00  0.00    +0.004 C 
ATOM     28  C   UNL     1      31.890 -11.136 -19.004  0.00  0.00    +0.004 C 
ATOM     29  C   UNL     1      32.014  -9.609 -21.527  0.00  0.00    +0.000 C 
ATOM     30  C   UNL     1      32.060  -9.618 -19.004  0.00  0.00    +0.000 C 
ATOM     31  C   UNL     1      31.454  -8.985 -20.252  0.00  0.00    +0.000 C 
ENDBRANCH  25  26
ENDBRANCH  24  25
ENDBRANCH   5  24
TORSDOF 7
ENDMDL
