MODEL 1
REMARK VINA RESULT:     -12.6      0.000      0.000
REMARK  Name = 448605
REMARK  6 active torsions:
REMARK  status: ('A' for Active; 'I' for Inactive)
REMARK    1  A    between atoms: C_3  and  N_11
REMARK    2  A    between atoms: C_4  and  C_27
REMARK    3  A    between atoms: C_9  and  C_21
REMARK    4  A    between atoms: N_26  and  C_29
REMARK    5  A    between atoms: C_30  and  C_35
REMARK    6  A    between atoms: C_35  and  N_36
REMARK                            x       y       z     vdW  Elec       q    Type
REMARK                         _______ _______ _______ _____ _____    ______ ____
ROOT
ATOM      1  C   UNL     1      34.031 -23.333 -16.032  0.00  0.00    +0.014 C 
ATOM      2  C   UNL     1      33.071 -23.007 -17.020  0.00  0.00    +0.001 C 
ATOM      3  C   UNL     1      35.377 -22.995 -16.244  0.00  0.00    +0.057 C 
ATOM      4  C   UNL     1      34.829 -22.025 -18.386  0.00  0.00    +0.055 C 
ATOM      5  C   UNL     1      33.487 -22.353 -18.192  0.00  0.00    +0.005 C 
ATOM      6  C   UNL     1      35.772 -22.345 -17.414  0.00  0.00    +0.020 C 
ATOM      7  C   UNL     1      33.616 -23.986 -14.860  0.00  0.00    +0.004 C 
ATOM      8  C   UNL     1      31.725 -23.345 -16.808  0.00  0.00    +0.000 C 
ATOM      9  C   UNL     1      32.273 -24.314 -14.666  0.00  0.00    +0.031 C 
ATOM     10  C   UNL     1      31.329 -23.994 -15.638  0.00  0.00    +0.003 C 
ENDROOT
BRANCH   3  11
ATOM     11  N   UNL     1      36.378 -23.297 -15.288  0.00  0.00    -0.257 N 
ATOM     12  N   UNL     1      36.338 -25.642 -15.291  0.00  0.00    -0.180 NA
ATOM     13  N   UNL     1      37.857 -24.433 -13.864  0.00  0.00    -0.203 NA
ATOM     14  C   UNL     1      36.880 -24.511 -14.793  0.00  0.00    +0.091 C 
ATOM     15  C   UNL     1      36.844 -26.790 -14.793  0.00  0.00    +0.108 C 
ATOM     16  C   UNL     1      38.315 -25.618 -13.409  0.00  0.00    +0.165 C 
ATOM     17  C   UNL     1      37.842 -26.839 -13.842  0.00  0.00    +0.022 C 
ATOM     18  H   UNL     1      36.803 -22.501 -14.895  0.00  0.00    +0.164 HD
ENDBRANCH   3  11
BRANCH   9  21
ATOM     19  N   UNL     1      30.514 -25.238 -13.177  0.00  0.00    -0.343 N 
ATOM     20  N   UNL     1      32.766 -25.379 -12.569  0.00  0.00    -0.285 NA
ATOM     21  C   UNL     1      31.859 -24.991 -13.447  0.00  0.00    +0.117 C 
ATOM     22  H   UNL     1      30.256 -25.697 -12.345  0.00  0.00    +0.144 HD
ATOM     23  H   UNL     1      29.822 -24.954 -13.817  0.00  0.00    +0.144 HD
ATOM     24  H   UNL     1      32.487 -25.837 -11.743  0.00  0.00    +0.188 HD
ENDBRANCH   9  21
BRANCH   4  27
ATOM     25  O   UNL     1      36.223 -21.779 -20.232  0.00  0.00    -0.270 OA
ATOM     26  N   UNL     1      34.461 -20.248 -19.988  0.00  0.00    -0.280 N 
ATOM     27  C   UNL     1      35.242 -21.348 -19.605  0.00  0.00    +0.250 C 
ATOM     28  H   UNL     1      33.715 -20.024 -19.388  0.00  0.00    +0.155 HD
BRANCH  26  29
ATOM     29  C   UNL     1      34.606 -19.418 -21.127  0.00  0.00    +0.051 C 
ATOM     30  C   UNL     1      34.888 -17.796 -23.353  0.00  0.00    -0.044 C 
ATOM     31  C   UNL     1      34.132 -19.861 -22.350  0.00  0.00    +0.014 C 
ATOM     32  C   UNL     1      35.218 -18.184 -20.991  0.00  0.00    +0.014 C 
ATOM     33  C   UNL     1      34.275 -19.043 -23.472  0.00  0.00    -0.005 C 
ATOM     34  C   UNL     1      35.360 -17.367 -22.112  0.00  0.00    -0.005 C 
BRANCH  30  35
ATOM     35  C   UNL     1      35.040 -16.923 -24.552  0.00  0.00    -0.059 C 
BRANCH  35  36
ATOM     36  N   UNL     1      33.907 -16.053 -24.743  0.00  0.00    +0.383 N 
ATOM     37  H   UNL     1      33.956 -15.628 -25.669  0.00  0.00    -0.089 HD
ATOM     38  H   UNL     1      33.917 -15.321 -24.032  0.00  0.00    -0.089 HD
ATOM     39  H   UNL     1      33.046 -16.594 -24.662  0.00  0.00    -0.089 HD
ENDBRANCH  35  36
ENDBRANCH  30  35
ENDBRANCH  26  29
ENDBRANCH   4  27
TORSDOF 6
ENDMDL
MODEL 2
REMARK VINA RESULT:     -12.5      1.726      4.608
REMARK  Name = 448605
REMARK  6 active torsions:
REMARK  status: ('A' for Active; 'I' for Inactive)
REMARK    1  A    between atoms: C_3  and  N_11
REMARK    2  A    between atoms: C_4  and  C_27
REMARK    3  A    between atoms: C_9  and  C_21
REMARK    4  A    between atoms: N_26  and  C_29
REMARK    5  A    between atoms: C_30  and  C_35
REMARK    6  A    between atoms: C_35  and  N_36
REMARK                            x       y       z     vdW  Elec       q    Type
REMARK                         _______ _______ _______ _____ _____    ______ ____
ROOT
ATOM      1  C   UNL     1      34.776 -23.479 -16.190  0.00  0.00    +0.014 C 
ATOM      2  C   UNL     1      35.781 -22.686 -16.796  0.00  0.00    +0.001 C 
ATOM      3  C   UNL     1      33.485 -23.491 -16.741  0.00  0.00    +0.057 C 
ATOM      4  C   UNL     1      34.173 -21.952 -18.469  0.00  0.00    +0.055 C 
ATOM      5  C   UNL     1      35.462 -21.929 -17.936  0.00  0.00    +0.005 C 
ATOM      6  C   UNL     1      33.186 -22.732 -17.873  0.00  0.00    +0.020 C 
ATOM      7  C   UNL     1      35.094 -24.237 -15.051  0.00  0.00    +0.004 C 
ATOM      8  C   UNL     1      37.072 -22.674 -16.246  0.00  0.00    +0.000 C 
ATOM      9  C   UNL     1      36.384 -24.213 -14.517  0.00  0.00    +0.031 C 
ATOM     10  C   UNL     1      37.371 -23.434 -15.114  0.00  0.00    +0.003 C 
ENDROOT
BRANCH   3  11
ATOM     11  N   UNL     1      32.443 -24.266 -16.174  0.00  0.00    -0.257 N 
ATOM     12  N   UNL     1      30.608 -22.822 -16.397  0.00  0.00    -0.180 NA
ATOM     13  N   UNL     1      30.355 -24.998 -15.393  0.00  0.00    -0.203 NA
ATOM     14  C   UNL     1      31.075 -24.018 -15.980  0.00  0.00    +0.091 C 
ATOM     15  C   UNL     1      29.290 -22.617 -16.195  0.00  0.00    +0.108 C 
ATOM     16  C   UNL     1      29.044 -24.726 -15.222  0.00  0.00    +0.165 C 
ATOM     17  C   UNL     1      28.451 -23.542 -15.607  0.00  0.00    +0.022 C 
ATOM     18  H   UNL     1      32.736 -25.150 -15.854  0.00  0.00    +0.164 HD
ENDBRANCH   3  11
BRANCH   9  21
ATOM     19  N   UNL     1      38.007 -25.380 -13.045  0.00  0.00    -0.343 N 
ATOM     20  N   UNL     1      35.729 -25.381 -12.522  0.00  0.00    -0.285 NA
ATOM     21  C   UNL     1      36.697 -25.004 -13.338  0.00  0.00    +0.117 C 
ATOM     22  H   UNL     1      38.197 -25.916 -12.242  0.00  0.00    +0.144 HD
ATOM     23  H   UNL     1      38.742 -25.111 -13.642  0.00  0.00    +0.144 HD
ATOM     24  H   UNL     1      35.940 -25.917 -11.723  0.00  0.00    +0.188 HD
ENDBRANCH   9  21
BRANCH   4  27
ATOM     25  O   UNL     1      32.726 -21.243 -20.146  0.00  0.00    -0.270 OA
ATOM     26  N   UNL     1      34.890 -20.338 -20.123  0.00  0.00    -0.280 N 
ATOM     27  C   UNL     1      33.860 -21.162 -19.650  0.00  0.00    +0.250 C 
ATOM     28  H   UNL     1      35.738 -20.382 -19.625  0.00  0.00    +0.155 HD
BRANCH  26  29
ATOM     29  C   UNL     1      34.871 -19.449 -21.227  0.00  0.00    +0.051 C 
ATOM     30  C   UNL     1      34.834 -17.712 -23.382  0.00  0.00    -0.044 C 
ATOM     31  C   UNL     1      35.261 -18.134 -21.041  0.00  0.00    +0.014 C 
ATOM     32  C   UNL     1      34.462 -19.915 -22.465  0.00  0.00    +0.014 C 
ATOM     33  C   UNL     1      35.242 -17.258 -22.127  0.00  0.00    -0.005 C 
ATOM     34  C   UNL     1      34.444 -19.040 -23.550  0.00  0.00    -0.005 C 
BRANCH  30  35
ATOM     35  C   UNL     1      34.815 -16.776 -24.542  0.00  0.00    -0.059 C 
BRANCH  35  36
ATOM     36  N   UNL     1      33.754 -15.805 -24.446  0.00  0.00    +0.383 N 
ATOM     37  H   UNL     1      33.456 -15.532 -25.382  0.00  0.00    -0.089 HD
ATOM     38  H   UNL     1      34.089 -14.984 -23.942  0.00  0.00    -0.089 HD
ATOM     39  H   UNL     1      32.965 -16.213 -23.944  0.00  0.00    -0.089 HD
ENDBRANCH  35  36
ENDBRANCH  30  35
ENDBRANCH  26  29
ENDBRANCH   4  27
TORSDOF 6
ENDMDL
MODEL 3
REMARK VINA RESULT:     -12.1      1.560      4.134
REMARK  Name = 448605
REMARK  6 active torsions:
REMARK  status: ('A' for Active; 'I' for Inactive)
REMARK    1  A    between atoms: C_3  and  N_11
REMARK    2  A    between atoms: C_4  and  C_27
REMARK    3  A    between atoms: C_9  and  C_21
REMARK    4  A    between atoms: N_26  and  C_29
REMARK    5  A    between atoms: C_30  and  C_35
REMARK    6  A    between atoms: C_35  and  N_36
REMARK                            x       y       z     vdW  Elec       q    Type
REMARK                         _______ _______ _______ _____ _____    ______ ____
ROOT
ATOM      1  C   UNL     1      34.933 -23.128 -16.714  0.00  0.00    +0.014 C 
ATOM      2  C   UNL     1      35.894 -22.270 -17.301  0.00  0.00    +0.001 C 
ATOM      3  C   UNL     1      33.636 -23.175 -17.249  0.00  0.00    +0.057 C 
ATOM      4  C   UNL     1      34.234 -21.544 -18.925  0.00  0.00    +0.055 C 
ATOM      5  C   UNL     1      35.528 -21.485 -18.408  0.00  0.00    +0.005 C 
ATOM      6  C   UNL     1      33.290 -22.388 -18.347  0.00  0.00    +0.020 C 
ATOM      7  C   UNL     1      35.299 -23.914 -15.609  0.00  0.00    +0.004 C 
ATOM      8  C   UNL     1      37.191 -22.223 -16.766  0.00  0.00    +0.000 C 
ATOM      9  C   UNL     1      36.594 -23.854 -15.090  0.00  0.00    +0.031 C 
ATOM     10  C   UNL     1      37.538 -23.011 -15.668  0.00  0.00    +0.003 C 
ENDROOT
BRANCH   3  11
ATOM     11  N   UNL     1      32.637 -24.016 -16.699  0.00  0.00    -0.257 N 
ATOM     12  N   UNL     1      32.321 -23.052 -14.584  0.00  0.00    -0.180 NA
ATOM     13  N   UNL     1      31.057 -24.987 -15.262  0.00  0.00    -0.203 NA
ATOM     14  C   UNL     1      31.976 -24.018 -15.461  0.00  0.00    +0.091 C 
ATOM     15  C   UNL     1      31.667 -23.083 -13.405  0.00  0.00    +0.108 C 
ATOM     16  C   UNL     1      30.441 -24.960 -14.061  0.00  0.00    +0.165 C 
ATOM     17  C   UNL     1      30.708 -24.023 -13.085  0.00  0.00    +0.022 C 
ATOM     18  H   UNL     1      32.351 -24.739 -17.303  0.00  0.00    +0.164 HD
ENDBRANCH   3  11
BRANCH   9  21
ATOM     19  N   UNL     1      36.100 -25.660 -13.459  0.00  0.00    -0.343 N 
ATOM     20  N   UNL     1      38.118 -24.487 -13.344  0.00  0.00    -0.285 NA
ATOM     21  C   UNL     1      36.957 -24.674 -13.945  0.00  0.00    +0.117 C 
ATOM     22  H   UNL     1      36.366 -26.203 -12.682  0.00  0.00    +0.144 HD
ATOM     23  H   UNL     1      35.228 -25.813 -13.891  0.00  0.00    +0.144 HD
ATOM     24  H   UNL     1      38.366 -25.042 -12.568  0.00  0.00    +0.188 HD
ENDBRANCH   9  21
BRANCH   4  27
ATOM     25  O   UNL     1      32.708 -20.769 -20.500  0.00  0.00    -0.270 OA
ATOM     26  N   UNL     1      34.892 -19.917 -20.591  0.00  0.00    -0.280 N 
ATOM     27  C   UNL     1      33.872 -20.725 -20.071  0.00  0.00    +0.250 C 
ATOM     28  H   UNL     1      35.766 -19.991 -20.145  0.00  0.00    +0.155 HD
BRANCH  26  29
ATOM     29  C   UNL     1      34.830 -19.006 -21.675  0.00  0.00    +0.051 C 
ATOM     30  C   UNL     1      34.708 -17.229 -23.794  0.00  0.00    -0.044 C 
ATOM     31  C   UNL     1      35.259 -17.704 -21.490  0.00  0.00    +0.014 C 
ATOM     32  C   UNL     1      34.340 -19.441 -22.896  0.00  0.00    +0.014 C 
ATOM     33  C   UNL     1      35.197 -16.808 -22.557  0.00  0.00    -0.005 C 
ATOM     34  C   UNL     1      34.280 -18.545 -23.962  0.00  0.00    -0.005 C 
BRANCH  30  35
ATOM     35  C   UNL     1      34.643 -16.271 -24.934  0.00  0.00    -0.059 C 
BRANCH  35  36
ATOM     36  N   UNL     1      33.338 -15.676 -25.077  0.00  0.00    +0.383 N 
ATOM     37  H   UNL     1      33.353 -14.727 -24.705  0.00  0.00    -0.089 HD
ATOM     38  H   UNL     1      32.653 -16.232 -24.564  0.00  0.00    -0.089 HD
ATOM     39  H   UNL     1      33.084 -15.650 -26.065  0.00  0.00    -0.089 HD
ENDBRANCH  35  36
ENDBRANCH  30  35
ENDBRANCH  26  29
ENDBRANCH   4  27
TORSDOF 6
ENDMDL
MODEL 4
REMARK VINA RESULT:     -10.4      9.678     17.010
REMARK  Name = 448605
REMARK  6 active torsions:
REMARK  status: ('A' for Active; 'I' for Inactive)
REMARK    1  A    between atoms: C_3  and  N_11
REMARK    2  A    between atoms: C_4  and  C_27
REMARK    3  A    between atoms: C_9  and  C_21
REMARK    4  A    between atoms: N_26  and  C_29
REMARK    5  A    between atoms: C_30  and  C_35
REMARK    6  A    between atoms: C_35  and  N_36
REMARK                            x       y       z     vdW  Elec       q    Type
REMARK                         _______ _______ _______ _____ _____    ______ ____
ROOT
ATOM      1  C   UNL     1      32.784  -6.722 -22.992  0.00  0.00    +0.014 C 
ATOM      2  C   UNL     1      31.753  -7.376 -22.275  0.00  0.00    +0.001 C 
ATOM      3  C   UNL     1      33.756  -7.490 -23.651  0.00  0.00    +0.057 C 
ATOM      4  C   UNL     1      32.703  -9.528 -22.898  0.00  0.00    +0.055 C 
ATOM      5  C   UNL     1      31.727  -8.781 -22.238  0.00  0.00    +0.005 C 
ATOM      6  C   UNL     1      33.716  -8.884 -23.604  0.00  0.00    +0.020 C 
ATOM      7  C   UNL     1      32.810  -5.319 -23.030  0.00  0.00    +0.004 C 
ATOM      8  C   UNL     1      30.781  -6.608 -21.616  0.00  0.00    +0.000 C 
ATOM      9  C   UNL     1      31.834  -4.570 -22.369  0.00  0.00    +0.031 C 
ATOM     10  C   UNL     1      30.821  -5.214 -21.664  0.00  0.00    +0.003 C 
ENDROOT
BRANCH   3  11
ATOM     11  N   UNL     1      34.809  -6.887 -24.384  0.00  0.00    -0.257 N 
ATOM     12  N   UNL     1      33.929  -6.890 -26.559  0.00  0.00    -0.180 NA
ATOM     13  N   UNL     1      36.119  -5.991 -26.111  0.00  0.00    -0.203 NA
ATOM     14  C   UNL     1      34.959  -6.575 -25.745  0.00  0.00    +0.091 C 
ATOM     15  C   UNL     1      34.107  -6.577 -27.859  0.00  0.00    +0.108 C 
ATOM     16  C   UNL     1      36.230  -5.705 -27.426  0.00  0.00    +0.165 C 
ATOM     17  C   UNL     1      35.247  -5.978 -28.355  0.00  0.00    +0.022 C 
ATOM     18  H   UNL     1      35.585  -6.639 -23.832  0.00  0.00    +0.164 HD
ENDBRANCH   3  11
BRANCH   9  21
ATOM     19  N   UNL     1      31.971  -2.435 -23.629  0.00  0.00    -0.343 N 
ATOM     20  N   UNL     1      31.823  -2.420 -21.297  0.00  0.00    -0.285 NA
ATOM     21  C   UNL     1      31.874  -3.117 -22.417  0.00  0.00    +0.117 C 
ATOM     22  H   UNL     1      31.997  -1.452 -23.639  0.00  0.00    +0.144 HD
ATOM     23  H   UNL     1      32.013  -2.938 -24.475  0.00  0.00    +0.144 HD
ATOM     24  H   UNL     1      31.851  -1.436 -21.328  0.00  0.00    +0.188 HD
ENDBRANCH   9  21
BRANCH   4  27
ATOM     25  O   UNL     1      31.782 -11.537 -22.173  0.00  0.00    -0.270 OA
ATOM     26  N   UNL     1      33.632 -11.646 -23.612  0.00  0.00    -0.280 N 
ATOM     27  C   UNL     1      32.662 -10.981 -22.850  0.00  0.00    +0.250 C 
ATOM     28  H   UNL     1      34.265 -11.069 -24.097  0.00  0.00    +0.155 HD
BRANCH  26  29
ATOM     29  C   UNL     1      33.821 -13.041 -23.777  0.00  0.00    +0.051 C 
ATOM     30  C   UNL     1      34.191 -15.765 -24.099  0.00  0.00    -0.044 C 
ATOM     31  C   UNL     1      33.435 -13.639 -24.964  0.00  0.00    +0.014 C 
ATOM     32  C   UNL     1      34.387 -13.773 -22.747  0.00  0.00    +0.014 C 
ATOM     33  C   UNL     1      33.621 -15.012 -25.126  0.00  0.00    -0.005 C 
ATOM     34  C   UNL     1      34.573 -15.145 -22.910  0.00  0.00    -0.005 C 
BRANCH  30  35
ATOM     35  C   UNL     1      34.389 -17.233 -24.273  0.00  0.00    -0.059 C 
BRANCH  35  36
ATOM     36  N   UNL     1      35.319 -17.777 -23.317  0.00  0.00    +0.383 N 
ATOM     37  H   UNL     1      34.832 -17.979 -22.444  0.00  0.00    -0.089 HD
ATOM     38  H   UNL     1      36.063 -17.100 -23.142  0.00  0.00    -0.089 HD
ATOM     39  H   UNL     1      35.723 -18.637 -23.688  0.00  0.00    -0.089 HD
ENDBRANCH  35  36
ENDBRANCH  30  35
ENDBRANCH  26  29
ENDBRANCH   4  27
TORSDOF 6
ENDMDL
