MODEL 1
REMARK VINA RESULT:     -11.3      0.000      0.000
REMARK  Name = 20055414
REMARK  5 active torsions:
REMARK  status: ('A' for Active; 'I' for Inactive)
REMARK    1  A    between atoms: N_1  and  C_18
REMARK    2  A    between atoms: N_2  and  C_8
REMARK    3  A    between atoms: C_11  and  C_17
REMARK    4  A    between atoms: C_18  and  C_19
REMARK    5  A    between atoms: C_19  and  C_30
REMARK                            x       y       z     vdW  Elec       q    Type
REMARK                         _______ _______ _______ _____ _____    ______ ____
ROOT
ATOM      1  N   UNL     1      34.739 -20.859 -20.927  0.00  0.00    +0.390 N 
ATOM      2  N   UNL     1      33.944 -22.037 -18.448  0.00  0.00    -0.312 N 
ATOM      3  C   UNL     1      33.447 -20.515 -20.320  0.00  0.00    -0.055 C 
ATOM      4  C   UNL     1      35.731 -21.117 -19.875  0.00  0.00    -0.055 C 
ATOM      5  C   UNL     1      32.932 -21.654 -19.438  0.00  0.00    +0.068 C 
ATOM      6  C   UNL     1      35.293 -22.277 -18.980  0.00  0.00    +0.068 C 
ATOM      7  H   UNL     1      34.625 -21.704 -21.486  0.00  0.00    -0.080 HD
ENDROOT
BRANCH   2   8
ATOM      8  C   UNL     1      33.560 -22.727 -17.293  0.00  0.00    +0.048 C 
ATOM      9  C   UNL     1      32.207 -22.899 -17.000  0.00  0.00    +0.018 C 
ATOM     10  C   UNL     1      34.530 -23.244 -16.434  0.00  0.00    +0.015 C 
ATOM     11  C   UNL     1      31.825 -23.586 -15.849  0.00  0.00    +0.073 C 
ATOM     12  C   UNL     1      34.148 -23.931 -15.283  0.00  0.00    +0.001 C 
ATOM     13  C   UNL     1      32.796 -24.103 -14.990  0.00  0.00    +0.004 C 
BRANCH  11  17
ATOM     14  F   UNL     1      30.009 -25.078 -15.401  0.00  0.00    -0.166 F 
ATOM     15  F   UNL     1      29.993 -23.170 -14.369  0.00  0.00    -0.166 F 
ATOM     16  F   UNL     1      29.563 -23.254 -16.499  0.00  0.00    -0.166 F 
ATOM     17  C   UNL     1      30.379 -23.770 -15.535  0.00  0.00    +0.419 C 
ENDBRANCH  11  17
ENDBRANCH   2   8
BRANCH   1  18
ATOM     18  C   UNL     1      35.193 -19.785 -21.809  0.00  0.00    -0.069 C 
BRANCH  18  19
ATOM     19  C   UNL     1      35.205 -18.411 -21.104  0.00  0.00    +0.043 C 
BRANCH  19  30
ATOM     20  N   UNL     1      34.812 -16.028 -21.662  0.00  0.00    -0.302 N 
ATOM     21  N   UNL     1      34.877 -16.019 -23.836  0.00  0.00    -0.134 NA
ATOM     22  N   UNL     1      35.085 -17.319 -23.363  0.00  0.00    -0.134 NA
ATOM     23  C   UNL     1      34.285 -13.873 -20.905  0.00  0.00    +0.030 C 
ATOM     24  C   UNL     1      34.449 -13.851 -22.469  0.00  0.00    +0.061 C 
ATOM     25  C   UNL     1      32.819 -13.502 -20.645  0.00  0.00    +0.002 C 
ATOM     26  C   UNL     1      33.112 -13.359 -23.013  0.00  0.00    +0.008 C 
ATOM     27  C   UNL     1      34.659 -15.301 -20.426  0.00  0.00    +0.109 C 
ATOM     28  C   UNL     1      32.093 -13.767 -21.956  0.00  0.00    +0.001 C 
ATOM     29  C   UNL     1      34.713 -15.269 -22.778  0.00  0.00    +0.143 A 
ATOM     30  C   UNL     1      35.039 -17.291 -22.042  0.00  0.00    +0.141 A 
ENDBRANCH  19  30
ENDBRANCH  18  19
ENDBRANCH   1  18
TORSDOF 5
ENDMDL
MODEL 2
REMARK VINA RESULT:     -11.2      3.687      6.264
REMARK  Name = 20055414
REMARK  5 active torsions:
REMARK  status: ('A' for Active; 'I' for Inactive)
REMARK    1  A    between atoms: N_1  and  C_18
REMARK    2  A    between atoms: N_2  and  C_8
REMARK    3  A    between atoms: C_11  and  C_17
REMARK    4  A    between atoms: C_18  and  C_19
REMARK    5  A    between atoms: C_19  and  C_30
REMARK                            x       y       z     vdW  Elec       q    Type
REMARK                         _______ _______ _______ _____ _____    ______ ____
ROOT
ATOM      1  N   UNL     1      34.392 -14.904 -23.449  0.00  0.00    +0.390 N 
ATOM      2  N   UNL     1      34.901 -17.342 -22.051  0.00  0.00    -0.312 N 
ATOM      3  C   UNL     1      34.120 -16.198 -24.087  0.00  0.00    -0.055 C 
ATOM      4  C   UNL     1      34.144 -14.998 -22.005  0.00  0.00    -0.055 C 
ATOM      5  C   UNL     1      35.018 -17.295 -23.512  0.00  0.00    +0.068 C 
ATOM      6  C   UNL     1      35.043 -16.054 -21.360  0.00  0.00    +0.068 C 
ATOM      7  H   UNL     1      35.371 -14.663 -23.600  0.00  0.00    -0.080 HD
ENDROOT
BRANCH   2   8
ATOM      8  C   UNL     1      35.273 -18.502 -21.362  0.00  0.00    +0.048 C 
ATOM      9  C   UNL     1      34.296 -19.390 -20.910  0.00  0.00    +0.018 C 
ATOM     10  C   UNL     1      36.622 -18.771 -21.126  0.00  0.00    +0.015 C 
ATOM     11  C   UNL     1      34.668 -20.544 -20.224  0.00  0.00    +0.073 C 
ATOM     12  C   UNL     1      36.993 -19.927 -20.439  0.00  0.00    +0.001 C 
ATOM     13  C   UNL     1      36.016 -20.813 -19.988  0.00  0.00    +0.004 C 
BRANCH  11  17
ATOM     14  F   UNL     1      33.994 -22.805 -19.824  0.00  0.00    -0.166 F 
ATOM     15  F   UNL     1      33.277 -21.305 -18.432  0.00  0.00    -0.166 F 
ATOM     16  F   UNL     1      32.459 -21.396 -20.445  0.00  0.00    -0.166 F 
ATOM     17  C   UNL     1      33.623 -21.493 -19.740  0.00  0.00    +0.419 C 
ENDBRANCH  11  17
ENDBRANCH   2   8
BRANCH   1  18
ATOM     18  C   UNL     1      33.566 -13.854 -24.045  0.00  0.00    -0.069 C 
BRANCH  18  19
ATOM     19  C   UNL     1      34.009 -12.440 -23.609  0.00  0.00    +0.043 C 
BRANCH  19  30
ATOM     20  N   UNL     1      32.854 -10.351 -22.942  0.00  0.00    -0.302 N 
ATOM     21  N   UNL     1      31.129 -11.079 -21.834  0.00  0.00    -0.134 NA
ATOM     22  N   UNL     1      31.893 -12.162 -22.282  0.00  0.00    -0.134 NA
ATOM     23  C   UNL     1      32.875  -8.009 -22.868  0.00  0.00    +0.030 C 
ATOM     24  C   UNL     1      31.570  -8.540 -22.170  0.00  0.00    +0.061 C 
ATOM     25  C   UNL     1      33.665  -7.295 -21.763  0.00  0.00    +0.002 C 
ATOM     26  C   UNL     1      31.625  -8.008 -20.742  0.00  0.00    +0.008 C 
ATOM     27  C   UNL     1      33.610  -9.239 -23.462  0.00  0.00    +0.109 C 
ATOM     28  C   UNL     1      33.111  -7.836 -20.452  0.00  0.00    +0.001 C 
ATOM     29  C   UNL     1      31.744 -10.003 -22.250  0.00  0.00    +0.143 A 
ATOM     30  C   UNL     1      32.931 -11.687 -22.950  0.00  0.00    +0.141 A 
ENDBRANCH  19  30
ENDBRANCH  18  19
ENDBRANCH   1  18
TORSDOF 5
ENDMDL
MODEL 3
REMARK VINA RESULT:     -11.1      1.943      3.177
REMARK  Name = 20055414
REMARK  5 active torsions:
REMARK  status: ('A' for Active; 'I' for Inactive)
REMARK    1  A    between atoms: N_1  and  C_18
REMARK    2  A    between atoms: N_2  and  C_8
REMARK    3  A    between atoms: C_11  and  C_17
REMARK    4  A    between atoms: C_18  and  C_19
REMARK    5  A    between atoms: C_19  and  C_30
REMARK                            x       y       z     vdW  Elec       q    Type
REMARK                         _______ _______ _______ _____ _____    ______ ____
ROOT
ATOM      1  N   UNL     1      34.930 -18.405 -22.804  0.00  0.00    +0.390 N 
ATOM      2  N   UNL     1      35.344 -20.222 -20.639  0.00  0.00    -0.312 N 
ATOM      3  C   UNL     1      36.279 -18.630 -22.269  0.00  0.00    -0.055 C 
ATOM      4  C   UNL     1      34.144 -19.641 -22.712  0.00  0.00    -0.055 C 
ATOM      5  C   UNL     1      36.225 -19.062 -20.803  0.00  0.00    +0.068 C 
ATOM      6  C   UNL     1      34.017 -20.105 -21.260  0.00  0.00    +0.068 C 
ATOM      7  H   UNL     1      34.474 -17.682 -22.248  0.00  0.00    -0.080 HD
ENDROOT
BRANCH   2   8
ATOM      8  C   UNL     1      35.471 -21.038 -19.509  0.00  0.00    +0.048 C 
ATOM      9  C   UNL     1      34.364 -21.732 -19.021  0.00  0.00    +0.018 C 
ATOM     10  C   UNL     1      36.705 -21.156 -18.870  0.00  0.00    +0.015 C 
ATOM     11  C   UNL     1      34.492 -22.544 -17.895  0.00  0.00    +0.073 C 
ATOM     12  C   UNL     1      36.833 -21.968 -17.743  0.00  0.00    +0.001 C 
ATOM     13  C   UNL     1      35.726 -22.662 -17.255  0.00  0.00    +0.004 C 
BRANCH  11  17
ATOM     14  F   UNL     1      33.221 -24.570 -17.831  0.00  0.00    -0.166 F 
ATOM     15  F   UNL     1      33.288 -23.393 -16.010  0.00  0.00    -0.166 F 
ATOM     16  F   UNL     1      32.126 -22.695 -17.710  0.00  0.00    -0.166 F 
ATOM     17  C   UNL     1      33.309 -23.286 -17.372  0.00  0.00    +0.419 C 
ENDBRANCH  11  17
ENDBRANCH   2   8
BRANCH   1  18
ATOM     18  C   UNL     1      34.998 -17.941 -24.189  0.00  0.00    -0.069 C 
BRANCH  18  19
ATOM     19  C   UNL     1      33.642 -17.404 -24.696  0.00  0.00    +0.043 C 
BRANCH  19  30
ATOM     20  N   UNL     1      33.849 -15.111 -23.779  0.00  0.00    -0.302 N 
ATOM     21  N   UNL     1      33.463 -13.855 -25.513  0.00  0.00    -0.134 NA
ATOM     22  N   UNL     1      33.379 -15.202 -25.878  0.00  0.00    -0.134 NA
ATOM     23  C   UNL     1      34.135 -13.745 -21.896  0.00  0.00    +0.030 C 
ATOM     24  C   UNL     1      33.972 -12.843 -23.173  0.00  0.00    +0.061 C 
ATOM     25  C   UNL     1      32.926 -13.417 -21.009  0.00  0.00    +0.002 C 
ATOM     26  C   UNL     1      32.752 -11.969 -22.903  0.00  0.00    +0.008 C 
ATOM     27  C   UNL     1      34.171 -15.219 -22.377  0.00  0.00    +0.109 C 
ATOM     28  C   UNL     1      31.900 -12.784 -21.940  0.00  0.00    +0.001 C 
ATOM     29  C   UNL     1      33.745 -13.841 -24.236  0.00  0.00    +0.143 A 
ATOM     30  C   UNL     1      33.617 -15.937 -24.805  0.00  0.00    +0.141 A 
ENDBRANCH  19  30
ENDBRANCH  18  19
ENDBRANCH   1  18
TORSDOF 5
ENDMDL
MODEL 4
REMARK VINA RESULT:     -11.1      2.414      2.894
REMARK  Name = 20055414
REMARK  5 active torsions:
REMARK  status: ('A' for Active; 'I' for Inactive)
REMARK    1  A    between atoms: N_1  and  C_18
REMARK    2  A    between atoms: N_2  and  C_8
REMARK    3  A    between atoms: C_11  and  C_17
REMARK    4  A    between atoms: C_18  and  C_19
REMARK    5  A    between atoms: C_19  and  C_30
REMARK                            x       y       z     vdW  Elec       q    Type
REMARK                         _______ _______ _______ _____ _____    ______ ____
ROOT
ATOM      1  N   UNL     1      35.335 -20.190 -21.317  0.00  0.00    +0.390 N 
ATOM      2  N   UNL     1      34.729 -21.621 -18.920  0.00  0.00    -0.312 N 
ATOM      3  C   UNL     1      34.002 -20.093 -20.710  0.00  0.00    -0.055 C 
ATOM      4  C   UNL     1      36.350 -20.347 -20.269  0.00  0.00    -0.055 C 
ATOM      5  C   UNL     1      33.672 -21.348 -19.899  0.00  0.00    +0.068 C 
ATOM      6  C   UNL     1      36.100 -21.612 -19.446  0.00  0.00    +0.068 C 
ATOM      7  H   UNL     1      35.359 -21.010 -21.925  0.00  0.00    -0.080 HD
ENDROOT
BRANCH   2   8
ATOM      8  C   UNL     1      34.455 -22.428 -17.810  0.00  0.00    +0.048 C 
ATOM      9  C   UNL     1      35.466 -22.723 -16.895  0.00  0.00    +0.018 C 
ATOM     10  C   UNL     1      33.171 -22.939 -17.619  0.00  0.00    +0.015 C 
ATOM     11  C   UNL     1      35.193 -23.527 -15.790  0.00  0.00    +0.073 C 
ATOM     12  C   UNL     1      32.898 -23.744 -16.512  0.00  0.00    +0.001 C 
ATOM     13  C   UNL     1      33.909 -24.038 -15.598  0.00  0.00    +0.004 C 
BRANCH  11  17
ATOM     14  F   UNL     1      37.530 -23.576 -15.278  0.00  0.00    -0.166 F 
ATOM     15  F   UNL     1      36.173 -23.145 -13.641  0.00  0.00    -0.166 F 
ATOM     16  F   UNL     1      36.288 -25.159 -14.453  0.00  0.00    -0.166 F 
ATOM     17  C   UNL     1      36.274 -23.843 -14.812  0.00  0.00    +0.419 C 
ENDBRANCH  11  17
ENDBRANCH   2   8
BRANCH   1  18
ATOM     18  C   UNL     1      35.615 -19.009 -22.132  0.00  0.00    -0.069 C 
BRANCH  18  19
ATOM     19  C   UNL     1      34.566 -18.804 -23.248  0.00  0.00    +0.043 C 
BRANCH  19  30
ATOM     20  N   UNL     1      34.573 -16.350 -22.896  0.00  0.00    -0.302 N 
ATOM     21  N   UNL     1      34.344 -15.568 -24.913  0.00  0.00    -0.134 NA
ATOM     22  N   UNL     1      34.357 -16.966 -24.948  0.00  0.00    -0.134 NA
ATOM     23  C   UNL     1      34.581 -14.562 -21.381  0.00  0.00    +0.030 C 
ATOM     24  C   UNL     1      34.533 -14.001 -22.848  0.00  0.00    +0.061 C 
ATOM     25  C   UNL     1      33.264 -14.116 -20.732  0.00  0.00    +0.002 C 
ATOM     26  C   UNL     1      33.257 -13.171 -22.927  0.00  0.00    +0.008 C 
ATOM     27  C   UNL     1      34.732 -16.102 -21.485  0.00  0.00    +0.109 C 
ATOM     28  C   UNL     1      32.330 -13.791 -21.889  0.00  0.00    +0.001 C 
ATOM     29  C   UNL     1      34.473 -15.234 -23.656  0.00  0.00    +0.143 A 
ATOM     30  C   UNL     1      34.496 -17.409 -23.710  0.00  0.00    +0.141 A 
ENDBRANCH  19  30
ENDBRANCH  18  19
ENDBRANCH   1  18
TORSDOF 5
ENDMDL
MODEL 5
REMARK VINA RESULT:     -11.0      4.775     10.363
REMARK  Name = 20055414
REMARK  5 active torsions:
REMARK  status: ('A' for Active; 'I' for Inactive)
REMARK    1  A    between atoms: N_1  and  C_18
REMARK    2  A    between atoms: N_2  and  C_8
REMARK    3  A    between atoms: C_11  and  C_17
REMARK    4  A    between atoms: C_18  and  C_19
REMARK    5  A    between atoms: C_19  and  C_30
REMARK                            x       y       z     vdW  Elec       q    Type
REMARK                         _______ _______ _______ _____ _____    ______ ____
ROOT
ATOM      1  N   UNL     1      34.068 -23.328 -17.437  0.00  0.00    +0.390 N 
ATOM      2  N   UNL     1      35.009 -21.363 -19.285  0.00  0.00    -0.312 N 
ATOM      3  C   UNL     1      35.285 -22.558 -17.150  0.00  0.00    -0.055 C 
ATOM      4  C   UNL     1      33.117 -22.497 -18.185  0.00  0.00    -0.055 C 
ATOM      5  C   UNL     1      35.960 -22.091 -18.441  0.00  0.00    +0.068 C 
ATOM      6  C   UNL     1      33.719 -22.030 -19.512  0.00  0.00    +0.068 C 
ATOM      7  H   UNL     1      34.318 -24.136 -18.007  0.00  0.00    -0.080 HD
ENDROOT
BRANCH   2   8
ATOM      8  C   UNL     1      35.482 -20.495 -20.275  0.00  0.00    +0.048 C 
ATOM      9  C   UNL     1      34.754 -20.313 -21.451  0.00  0.00    +0.018 C 
ATOM     10  C   UNL     1      36.683 -19.810 -20.086  0.00  0.00    +0.015 C 
ATOM     11  C   UNL     1      35.227 -19.447 -22.437  0.00  0.00    +0.073 C 
ATOM     12  C   UNL     1      37.156 -18.944 -21.072  0.00  0.00    +0.001 C 
ATOM     13  C   UNL     1      36.428 -18.763 -22.247  0.00  0.00    +0.004 C 
BRANCH  11  17
ATOM     14  F   UNL     1      33.095 -19.279 -23.511  0.00  0.00    -0.166 F 
ATOM     15  F   UNL     1      34.701 -18.062 -24.315  0.00  0.00    -0.166 F 
ATOM     16  F   UNL     1      34.710 -20.215 -24.627  0.00  0.00    -0.166 F 
ATOM     17  C   UNL     1      34.449 -19.253 -23.694  0.00  0.00    +0.419 C 
ENDBRANCH  11  17
ENDBRANCH   2   8
BRANCH   1  18
ATOM     18  C   UNL     1      33.463 -23.813 -16.198  0.00  0.00    -0.069 C 
BRANCH  18  19
ATOM     19  C   UNL     1      33.832 -22.935 -14.982  0.00  0.00    +0.043 C 
BRANCH  19  30
ATOM     20  N   UNL     1      35.594 -24.004 -13.605  0.00  0.00    -0.302 N 
ATOM     21  N   UNL     1      34.462 -24.927 -11.993  0.00  0.00    -0.134 NA
ATOM     22  N   UNL     1      33.589 -24.274 -12.869  0.00  0.00    -0.134 NA
ATOM     23  C   UNL     1      37.859 -24.555 -13.359  0.00  0.00    +0.030 C 
ATOM     24  C   UNL     1      37.050 -25.119 -12.135  0.00  0.00    +0.061 C 
ATOM     25  C   UNL     1      38.419 -25.788 -14.080  0.00  0.00    +0.002 C 
ATOM     26  C   UNL     1      37.283 -26.626 -12.151  0.00  0.00    +0.008 C 
ATOM     27  C   UNL     1      36.869 -23.728 -14.220  0.00  0.00    +0.109 C 
ATOM     28  C   UNL     1      37.563 -26.956 -13.612  0.00  0.00    +0.001 C 
ATOM     29  C   UNL     1      35.664 -24.744 -12.474  0.00  0.00    +0.143 A 
ATOM     30  C   UNL     1      34.306 -23.725 -13.835  0.00  0.00    +0.141 A 
ENDBRANCH  19  30
ENDBRANCH  18  19
ENDBRANCH   1  18
TORSDOF 5
ENDMDL
MODEL 6
REMARK VINA RESULT:     -10.9      4.778     10.387
REMARK  Name = 20055414
REMARK  5 active torsions:
REMARK  status: ('A' for Active; 'I' for Inactive)
REMARK    1  A    between atoms: N_1  and  C_18
REMARK    2  A    between atoms: N_2  and  C_8
REMARK    3  A    between atoms: C_11  and  C_17
REMARK    4  A    between atoms: C_18  and  C_19
REMARK    5  A    between atoms: C_19  and  C_30
REMARK                            x       y       z     vdW  Elec       q    Type
REMARK                         _______ _______ _______ _____ _____    ______ ____
ROOT
ATOM      1  N   UNL     1      33.777 -23.238 -17.462  0.00  0.00    +0.390 N 
ATOM      2  N   UNL     1      34.867 -21.330 -19.288  0.00  0.00    -0.312 N 
ATOM      3  C   UNL     1      35.041 -22.554 -17.158  0.00  0.00    -0.055 C 
ATOM      4  C   UNL     1      32.892 -22.339 -18.213  0.00  0.00    -0.055 C 
ATOM      5  C   UNL     1      35.759 -22.127 -18.439  0.00  0.00    +0.068 C 
ATOM      6  C   UNL     1      33.538 -21.906 -19.531  0.00  0.00    +0.068 C 
ATOM      7  H   UNL     1      33.978 -24.057 -18.035  0.00  0.00    -0.080 HD
ENDROOT
BRANCH   2   8
ATOM      8  C   UNL     1      35.408 -20.490 -20.267  0.00  0.00    +0.048 C 
ATOM      9  C   UNL     1      34.718 -20.272 -21.460  0.00  0.00    +0.018 C 
ATOM     10  C   UNL     1      36.640 -19.869 -20.051  0.00  0.00    +0.015 C 
ATOM     11  C   UNL     1      35.258 -19.435 -22.435  0.00  0.00    +0.073 C 
ATOM     12  C   UNL     1      37.179 -19.032 -21.027  0.00  0.00    +0.001 C 
ATOM     13  C   UNL     1      36.489 -18.814 -22.219  0.00  0.00    +0.004 C 
BRANCH  11  17
ATOM     14  F   UNL     1      34.775 -17.985 -24.275  0.00  0.00    -0.166 F 
ATOM     15  F   UNL     1      34.811 -20.115 -24.684  0.00  0.00    -0.166 F 
ATOM     16  F   UNL     1      33.166 -19.256 -23.550  0.00  0.00    -0.166 F 
ATOM     17  C   UNL     1      34.520 -19.202 -23.710  0.00  0.00    +0.419 C 
ENDBRANCH  11  17
ENDBRANCH   2   8
BRANCH   1  18
ATOM     18  C   UNL     1      33.128 -23.688 -16.232  0.00  0.00    -0.069 C 
BRANCH  18  19
ATOM     19  C   UNL     1      33.993 -23.421 -14.980  0.00  0.00    +0.043 C 
BRANCH  19  30
ATOM     20  N   UNL     1      35.517 -24.699 -13.501  0.00  0.00    -0.302 N 
ATOM     21  N   UNL     1      36.197 -26.319 -14.783  0.00  0.00    -0.134 NA
ATOM     22  N   UNL     1      35.314 -25.496 -15.490  0.00  0.00    -0.134 NA
ATOM     23  C   UNL     1      36.616 -24.848 -11.436  0.00  0.00    +0.030 C 
ATOM     24  C   UNL     1      37.013 -26.080 -12.327  0.00  0.00    +0.061 C 
ATOM     25  C   UNL     1      37.920 -24.068 -11.216  0.00  0.00    +0.002 C 
ATOM     26  C   UNL     1      38.529 -26.007 -12.474  0.00  0.00    +0.008 C 
ATOM     27  C   UNL     1      35.538 -24.048 -12.214  0.00  0.00    +0.109 C 
ATOM     28  C   UNL     1      38.859 -24.528 -12.322  0.00  0.00    +0.001 C 
ATOM     29  C   UNL     1      36.295 -25.802 -13.586  0.00  0.00    +0.143 A 
ATOM     30  C   UNL     1      34.921 -24.524 -14.686  0.00  0.00    +0.141 A 
ENDBRANCH  19  30
ENDBRANCH  18  19
ENDBRANCH   1  18
TORSDOF 5
ENDMDL
MODEL 7
REMARK VINA RESULT:     -10.9      4.419     10.115
REMARK  Name = 20055414
REMARK  5 active torsions:
REMARK  status: ('A' for Active; 'I' for Inactive)
REMARK    1  A    between atoms: N_1  and  C_18
REMARK    2  A    between atoms: N_2  and  C_8
REMARK    3  A    between atoms: C_11  and  C_17
REMARK    4  A    between atoms: C_18  and  C_19
REMARK    5  A    between atoms: C_19  and  C_30
REMARK                            x       y       z     vdW  Elec       q    Type
REMARK                         _______ _______ _______ _____ _____    ______ ____
ROOT
ATOM      1  N   UNL     1      35.673 -21.573 -19.506  0.00  0.00    +0.390 N 
ATOM      2  N   UNL     1      35.264 -19.161 -20.982  0.00  0.00    -0.312 N 
ATOM      3  C   UNL     1      36.627 -20.462 -19.396  0.00  0.00    -0.055 C 
ATOM      4  C   UNL     1      34.317 -21.047 -19.709  0.00  0.00    -0.055 C 
ATOM      5  C   UNL     1      36.625 -19.606 -20.664  0.00  0.00    +0.068 C 
ATOM      6  C   UNL     1      34.237 -20.211 -20.988  0.00  0.00    +0.068 C 
ATOM      7  H   UNL     1      35.928 -22.146 -20.311  0.00  0.00    -0.080 HD
ENDROOT
BRANCH   2   8
ATOM      8  C   UNL     1      35.073 -18.050 -21.811  0.00  0.00    +0.048 C 
ATOM      9  C   UNL     1      34.816 -16.797 -21.252  0.00  0.00    +0.018 C 
ATOM     10  C   UNL     1      35.139 -18.194 -23.197  0.00  0.00    +0.015 C 
ATOM     11  C   UNL     1      34.625 -15.691 -22.078  0.00  0.00    +0.073 C 
ATOM     12  C   UNL     1      34.949 -17.086 -24.023  0.00  0.00    +0.001 C 
ATOM     13  C   UNL     1      34.691 -15.835 -23.464  0.00  0.00    +0.004 C 
BRANCH  11  17
ATOM     14  F   UNL     1      34.684 -13.309 -22.297  0.00  0.00    -0.166 F 
ATOM     15  F   UNL     1      33.033 -14.153 -21.170  0.00  0.00    -0.166 F 
ATOM     16  F   UNL     1      35.035 -14.145 -20.319  0.00  0.00    -0.166 F 
ATOM     17  C   UNL     1      34.349 -14.353 -21.481  0.00  0.00    +0.419 C 
ENDBRANCH  11  17
ENDBRANCH   2   8
BRANCH   1  18
ATOM     18  C   UNL     1      35.724 -22.414 -18.311  0.00  0.00    -0.069 C 
BRANCH  18  19
ATOM     19  C   UNL     1      36.503 -21.746 -17.157  0.00  0.00    +0.043 C 
BRANCH  19  30
ATOM     20  N   UNL     1      36.200 -23.570 -15.506  0.00  0.00    -0.302 N 
ATOM     21  N   UNL     1      38.229 -23.945 -14.816  0.00  0.00    -0.134 NA
ATOM     22  N   UNL     1      38.237 -22.922 -15.769  0.00  0.00    -0.134 NA
ATOM     23  C   UNL     1      34.720 -24.930 -14.301  0.00  0.00    +0.030 C 
ATOM     24  C   UNL     1      36.198 -25.278 -13.892  0.00  0.00    +0.061 C 
ATOM     25  C   UNL     1      34.063 -24.387 -13.025  0.00  0.00    +0.002 C 
ATOM     26  C   UNL     1      36.276 -25.028 -12.390  0.00  0.00    +0.008 C 
ATOM     27  C   UNL     1      34.796 -23.892 -15.451  0.00  0.00    +0.109 C 
ATOM     28  C   UNL     1      35.214 -23.970 -12.121  0.00  0.00    +0.001 C 
ATOM     29  C   UNL     1      36.980 -24.308 -14.682  0.00  0.00    +0.143 A 
ATOM     30  C   UNL     1      36.992 -22.718 -16.166  0.00  0.00    +0.141 A 
ENDBRANCH  19  30
ENDBRANCH  18  19
ENDBRANCH   1  18
TORSDOF 5
ENDMDL
MODEL 8
REMARK VINA RESULT:     -10.8      4.640     10.363
REMARK  Name = 20055414
REMARK  5 active torsions:
REMARK  status: ('A' for Active; 'I' for Inactive)
REMARK    1  A    between atoms: N_1  and  C_18
REMARK    2  A    between atoms: N_2  and  C_8
REMARK    3  A    between atoms: C_11  and  C_17
REMARK    4  A    between atoms: C_18  and  C_19
REMARK    5  A    between atoms: C_19  and  C_30
REMARK                            x       y       z     vdW  Elec       q    Type
REMARK                         _______ _______ _______ _____ _____    ______ ____
ROOT
ATOM      1  N   UNL     1      36.048 -20.554 -19.519  0.00  0.00    +0.390 N 
ATOM      2  N   UNL     1      35.296 -18.787 -21.634  0.00  0.00    -0.312 N 
ATOM      3  C   UNL     1      34.847 -20.821 -20.320  0.00  0.00    -0.055 C 
ATOM      4  C   UNL     1      37.074 -19.916 -20.354  0.00  0.00    -0.055 C 
ATOM      5  C   UNL     1      34.269 -19.527 -20.895  0.00  0.00    +0.068 C 
ATOM      6  C   UNL     1      36.569 -18.591 -20.928  0.00  0.00    +0.068 C 
ATOM      7  H   UNL     1      35.801 -19.919 -18.760  0.00  0.00    -0.080 HD
ENDROOT
BRANCH   2   8
ATOM      8  C   UNL     1      34.916 -17.831 -22.583  0.00  0.00    +0.048 C 
ATOM      9  C   UNL     1      34.756 -16.497 -22.204  0.00  0.00    +0.018 C 
ATOM     10  C   UNL     1      34.697 -18.211 -23.907  0.00  0.00    +0.015 C 
ATOM     11  C   UNL     1      34.377 -15.546 -23.150  0.00  0.00    +0.073 C 
ATOM     12  C   UNL     1      34.318 -17.258 -24.853  0.00  0.00    +0.001 C 
ATOM     13  C   UNL     1      34.158 -15.926 -24.474  0.00  0.00    +0.004 C 
BRANCH  11  17
ATOM     14  F   UNL     1      32.923 -13.799 -22.403  0.00  0.00    -0.166 F 
ATOM     15  F   UNL     1      34.963 -13.763 -21.666  0.00  0.00    -0.166 F 
ATOM     16  F   UNL     1      34.549 -13.249 -23.738  0.00  0.00    -0.166 F 
ATOM     17  C   UNL     1      34.206 -14.121 -22.746  0.00  0.00    +0.419 C 
ENDBRANCH  11  17
ENDBRANCH   2   8
BRANCH   1  18
ATOM     18  C   UNL     1      36.560 -21.791 -18.932  0.00  0.00    -0.069 C 
BRANCH  18  19
ATOM     19  C   UNL     1      36.741 -21.683 -17.402  0.00  0.00    +0.043 C 
BRANCH  19  30
ATOM     20  N   UNL     1      36.443 -23.355 -15.595  0.00  0.00    -0.302 N 
ATOM     21  N   UNL     1      34.436 -24.112 -15.956  0.00  0.00    -0.134 NA
ATOM     22  N   UNL     1      34.754 -23.143 -16.913  0.00  0.00    -0.134 NA
ATOM     23  C   UNL     1      37.395 -24.537 -13.809  0.00  0.00    +0.030 C 
ATOM     24  C   UNL     1      35.904 -24.996 -14.002  0.00  0.00    +0.061 C 
ATOM     25  C   UNL     1      38.244 -25.783 -14.094  0.00  0.00    +0.002 C 
ATOM     26  C   UNL     1      35.969 -26.495 -14.271  0.00  0.00    +0.008 C 
ATOM     27  C   UNL     1      37.647 -23.372 -14.802  0.00  0.00    +0.109 C 
ATOM     28  C   UNL     1      37.343 -26.714 -14.892  0.00  0.00    +0.001 C 
ATOM     29  C   UNL     1      35.483 -24.213 -15.180  0.00  0.00    +0.143 A 
ATOM     30  C   UNL     1      35.977 -22.704 -16.667  0.00  0.00    +0.141 A 
ENDBRANCH  19  30
ENDBRANCH  18  19
ENDBRANCH   1  18
TORSDOF 5
ENDMDL
MODEL 9
REMARK VINA RESULT:     -10.8      4.277      9.854
REMARK  Name = 20055414
REMARK  5 active torsions:
REMARK  status: ('A' for Active; 'I' for Inactive)
REMARK    1  A    between atoms: N_1  and  C_18
REMARK    2  A    between atoms: N_2  and  C_8
REMARK    3  A    between atoms: C_11  and  C_17
REMARK    4  A    between atoms: C_18  and  C_19
REMARK    5  A    between atoms: C_19  and  C_30
REMARK                            x       y       z     vdW  Elec       q    Type
REMARK                         _______ _______ _______ _____ _____    ______ ____
ROOT
ATOM      1  N   UNL     1      35.896 -20.987 -20.052  0.00  0.00    +0.390 N 
ATOM      2  N   UNL     1      35.267 -18.647 -21.566  0.00  0.00    -0.312 N 
ATOM      3  C   UNL     1      36.707 -19.771 -19.914  0.00  0.00    -0.055 C 
ATOM      4  C   UNL     1      34.497 -20.626 -20.315  0.00  0.00    -0.055 C 
ATOM      5  C   UNL     1      36.656 -18.926 -21.189  0.00  0.00    +0.068 C 
ATOM      6  C   UNL     1      34.372 -19.811 -21.604  0.00  0.00    +0.068 C 
ATOM      7  H   UNL     1      36.249 -21.529 -20.840  0.00  0.00    -0.080 HD
ENDROOT
BRANCH   2   8
ATOM      8  C   UNL     1      34.980 -17.570 -22.412  0.00  0.00    +0.048 C 
ATOM      9  C   UNL     1      34.738 -16.305 -21.875  0.00  0.00    +0.018 C 
ATOM     10  C   UNL     1      34.937 -17.761 -23.794  0.00  0.00    +0.015 C 
ATOM     11  C   UNL     1      34.452 -15.233 -22.719  0.00  0.00    +0.073 C 
ATOM     12  C   UNL     1      34.651 -16.687 -24.637  0.00  0.00    +0.001 C 
ATOM     13  C   UNL     1      34.409 -15.424 -24.101  0.00  0.00    +0.004 C 
BRANCH  11  17
ATOM     14  F   UNL     1      34.543 -12.856 -22.978  0.00  0.00    -0.166 F 
ATOM     15  F   UNL     1      32.879 -13.659 -21.842  0.00  0.00    -0.166 F 
ATOM     16  F   UNL     1      34.878 -13.662 -20.986  0.00  0.00    -0.166 F 
ATOM     17  C   UNL     1      34.193 -13.881 -22.146  0.00  0.00    +0.419 C 
ENDBRANCH  11  17
ENDBRANCH   2   8
BRANCH   1  18
ATOM     18  C   UNL     1      35.996 -21.810 -18.848  0.00  0.00    -0.069 C 
BRANCH  18  19
ATOM     19  C   UNL     1      34.644 -22.445 -18.457  0.00  0.00    +0.043 C 
BRANCH  19  30
ATOM     20  N   UNL     1      33.566 -23.485 -16.482  0.00  0.00    -0.302 N 
ATOM     21  N   UNL     1      35.221 -23.717 -15.088  0.00  0.00    -0.134 NA
ATOM     22  N   UNL     1      35.680 -23.131 -16.273  0.00  0.00    -0.134 NA
ATOM     23  C   UNL     1      31.587 -24.182 -15.438  0.00  0.00    +0.030 C 
ATOM     24  C   UNL     1      32.804 -24.455 -14.481  0.00  0.00    +0.061 C 
ATOM     25  C   UNL     1      30.716 -23.152 -14.705  0.00  0.00    +0.002 C 
ATOM     26  C   UNL     1      32.511 -23.663 -13.211  0.00  0.00    +0.008 C 
ATOM     27  C   UNL     1      32.167 -23.663 -16.780  0.00  0.00    +0.109 C 
ATOM     28  C   UNL     1      31.630 -22.508 -13.673  0.00  0.00    +0.001 C 
ATOM     29  C   UNL     1      33.939 -23.913 -15.253  0.00  0.00    +0.143 A 
ATOM     30  C   UNL     1      34.653 -23.004 -17.096  0.00  0.00    +0.141 A 
ENDBRANCH  19  30
ENDBRANCH  18  19
ENDBRANCH   1  18
TORSDOF 5
ENDMDL
