MODEL 1
REMARK VINA RESULT:     -12.2      0.000      0.000
REMARK  Name = 46937030
REMARK  7 active torsions:
REMARK  status: ('A' for Active; 'I' for Inactive)
REMARK    1  A    between atoms: C_3  and  C_10
REMARK    2  A    between atoms: C_7  and  C_25
REMARK    3  A    between atoms: N_9  and  C_12
REMARK    4  A    between atoms: C_12  and  C_13
REMARK    5  A    between atoms: C_18  and  C_21
REMARK    6  A    between atoms: C_25  and  N_26
REMARK    7  A    between atoms: N_26  and  C_29
REMARK                            x       y       z     vdW  Elec       q    Type
REMARK                         _______ _______ _______ _____ _____    ______ ____
ROOT
ATOM      1  O   UNL     1      35.471 -25.695 -11.626  0.00  0.00    -0.277 OA
ATOM      2  N   UNL     1      36.117 -24.443 -13.456  0.00  0.00    -0.275 N 
ATOM      3  C   UNL     1      35.939 -23.372 -14.435  0.00  0.00    +0.152 C 
ATOM      4  C   UNL     1      37.357 -23.005 -14.862  0.00  0.00    +0.031 C 
ATOM      5  C   UNL     1      37.488 -24.939 -13.467  0.00  0.00    +0.094 C 
ATOM      6  C   UNL     1      38.126 -24.314 -14.696  0.00  0.00    +0.024 C 
ATOM      7  C   UNL     1      35.204 -24.878 -12.509  0.00  0.00    +0.204 C 
ENDROOT
BRANCH   3  10
ATOM      8  O   UNL     1      34.930 -25.127 -15.700  0.00  0.00    -0.273 OA
ATOM      9  N   UNL     1      34.786 -22.942 -16.488  0.00  0.00    -0.299 N 
ATOM     10  C   UNL     1      35.163 -23.926 -15.591  0.00  0.00    +0.241 C 
ATOM     11  H   UNL     1      35.032 -22.009 -16.292  0.00  0.00    +0.150 HD
BRANCH   9  12
ATOM     12  C   UNL     1      34.048 -23.217 -17.700  0.00  0.00    +0.116 C 
BRANCH  12  13
ATOM     13  C   UNL     1      34.282 -22.169 -18.751  0.00  0.00    -0.003 C 
ATOM     14  C   UNL     1      35.584 -21.844 -19.132  0.00  0.00    -0.003 C 
ATOM     15  C   UNL     1      33.199 -21.521 -19.344  0.00  0.00    -0.003 C 
ATOM     16  C   UNL     1      35.803 -20.871 -20.107  0.00  0.00    +0.002 C 
ATOM     17  C   UNL     1      33.418 -20.548 -20.319  0.00  0.00    +0.002 C 
ATOM     18  C   UNL     1      34.719 -20.224 -20.701  0.00  0.00    +0.031 C 
BRANCH  18  21
ATOM     19  N   UNL     1      35.485 -17.966 -21.395  0.00  0.00    -0.343 N 
ATOM     20  N   UNL     1      34.636 -19.459 -22.978  0.00  0.00    -0.285 NA
ATOM     21  C   UNL     1      34.946 -19.210 -21.718  0.00  0.00    +0.117 C 
ATOM     22  H   UNL     1      35.630 -17.294 -22.100  0.00  0.00    +0.144 HD
ATOM     23  H   UNL     1      35.720 -17.759 -20.462  0.00  0.00    +0.144 HD
ATOM     24  H   UNL     1      34.788 -18.774 -23.668  0.00  0.00    +0.188 HD
ENDBRANCH  18  21
ENDBRANCH  12  13
ENDBRANCH   9  12
ENDBRANCH   3  10
BRANCH   7  25
ATOM     25  C   UNL     1      33.820 -24.289 -12.603  0.00  0.00    +0.006 C 
BRANCH  25  26
ATOM     26  N   UNL     1      32.998 -25.248 -13.322  0.00  0.00    +0.391 N 
ATOM     27  H   UNL     1      33.247 -25.228 -14.312  0.00  0.00    -0.084 HD
ATOM     28  H   UNL     1      33.163 -26.178 -12.936  0.00  0.00    -0.084 HD
BRANCH  26  29
ATOM     29  C   UNL     1      31.576 -24.921 -13.176  0.00  0.00    -0.061 C 
ATOM     30  C   UNL     1      31.355 -23.411 -13.337  0.00  0.00    -0.021 C 
ATOM     31  C   UNL     1      30.757 -25.842 -14.094  0.00  0.00    -0.021 C 
ATOM     32  C   UNL     1      29.274 -25.485 -14.206  0.00  0.00    -0.002 C 
ATOM     33  C   UNL     1      31.707 -22.783 -14.686  0.00  0.00    -0.002 C 
ATOM     34  C   UNL     1      28.888 -24.782 -15.510  0.00  0.00    -0.000 C 
ATOM     35  C   UNL     1      30.916 -23.246 -15.908  0.00  0.00    -0.000 C 
ATOM     36  C   UNL     1      29.404 -23.354 -15.703  0.00  0.00    -0.000 C 
ENDBRANCH  26  29
ENDBRANCH  25  26
ENDBRANCH   7  25
TORSDOF 7
ENDMDL
MODEL 2
REMARK VINA RESULT:     -10.7      2.152      6.668
REMARK  Name = 46937030
REMARK  7 active torsions:
REMARK  status: ('A' for Active; 'I' for Inactive)
REMARK    1  A    between atoms: C_3  and  C_10
REMARK    2  A    between atoms: C_7  and  C_25
REMARK    3  A    between atoms: N_9  and  C_12
REMARK    4  A    between atoms: C_12  and  C_13
REMARK    5  A    between atoms: C_18  and  C_21
REMARK    6  A    between atoms: C_25  and  N_26
REMARK    7  A    between atoms: N_26  and  C_29
REMARK                            x       y       z     vdW  Elec       q    Type
REMARK                         _______ _______ _______ _____ _____    ______ ____
ROOT
ATOM      1  O   UNL     1      38.060 -22.734 -15.820  0.00  0.00    -0.277 OA
ATOM      2  N   UNL     1      37.174 -24.604 -14.793  0.00  0.00    -0.275 N 
ATOM      3  C   UNL     1      36.131 -25.607 -14.579  0.00  0.00    +0.152 C 
ATOM      4  C   UNL     1      36.880 -26.831 -14.063  0.00  0.00    +0.031 C 
ATOM      5  C   UNL     1      38.434 -25.023 -14.191  0.00  0.00    +0.094 C 
ATOM      6  C   UNL     1      38.084 -26.233 -13.340  0.00  0.00    +0.024 C 
ATOM      7  C   UNL     1      37.097 -23.464 -15.577  0.00  0.00    +0.204 C 
ENDROOT
BRANCH   3  10
ATOM      8  O   UNL     1      35.598 -24.535 -12.514  0.00  0.00    -0.273 OA
ATOM      9  N   UNL     1      33.867 -25.310 -13.863  0.00  0.00    -0.299 N 
ATOM     10  C   UNL     1      35.192 -25.081 -13.536  0.00  0.00    +0.241 C 
ATOM     11  H   UNL     1      33.664 -25.759 -14.715  0.00  0.00    +0.150 HD
BRANCH   9  12
ATOM     12  C   UNL     1      32.764 -24.921 -13.013  0.00  0.00    +0.116 C 
BRANCH  12  13
ATOM     13  C   UNL     1      31.531 -24.594 -13.807  0.00  0.00    -0.003 C 
ATOM     14  C   UNL     1      30.440 -25.463 -13.788  0.00  0.00    -0.003 C 
ATOM     15  C   UNL     1      31.478 -23.423 -14.562  0.00  0.00    -0.003 C 
ATOM     16  C   UNL     1      29.295 -25.161 -14.526  0.00  0.00    +0.002 C 
ATOM     17  C   UNL     1      30.333 -23.120 -15.300  0.00  0.00    +0.002 C 
ATOM     18  C   UNL     1      29.242 -23.989 -15.281  0.00  0.00    +0.031 C 
BRANCH  18  21
ATOM     19  N   UNL     1      27.164 -22.676 -15.637  0.00  0.00    -0.343 N 
ATOM     20  N   UNL     1      27.782 -24.339 -17.158  0.00  0.00    -0.285 NA
ATOM     21  C   UNL     1      28.048 -23.672 -16.048  0.00  0.00    +0.117 C 
ATOM     22  H   UNL     1      26.362 -22.478 -16.173  0.00  0.00    +0.144 HD
ATOM     23  H   UNL     1      27.343 -22.170 -14.812  0.00  0.00    +0.144 HD
ATOM     24  H   UNL     1      26.975 -24.127 -17.679  0.00  0.00    +0.188 HD
ENDBRANCH  18  21
ENDBRANCH  12  13
ENDBRANCH   9  12
ENDBRANCH   3  10
BRANCH   7  25
ATOM     25  C   UNL     1      35.738 -23.140 -16.143  0.00  0.00    +0.006 C 
BRANCH  25  26
ATOM     26  N   UNL     1      35.861 -21.872 -16.844  0.00  0.00    +0.391 N 
ATOM     27  H   UNL     1      35.036 -21.302 -16.655  0.00  0.00    -0.084 HD
ATOM     28  H   UNL     1      36.701 -21.395 -16.517  0.00  0.00    -0.084 HD
BRANCH  26  29
ATOM     29  C   UNL     1      35.975 -22.091 -18.289  0.00  0.00    -0.061 C 
ATOM     30  C   UNL     1      34.710 -22.772 -18.828  0.00  0.00    -0.021 C 
ATOM     31  C   UNL     1      36.392 -20.774 -18.960  0.00  0.00    -0.021 C 
ATOM     32  C   UNL     1      36.353 -20.790 -20.490  0.00  0.00    -0.002 C 
ATOM     33  C   UNL     1      33.389 -22.010 -18.707  0.00  0.00    -0.002 C 
ATOM     34  C   UNL     1      35.152 -20.065 -21.102  0.00  0.00    -0.000 C 
ATOM     35  C   UNL     1      33.263 -20.690 -19.467  0.00  0.00    -0.000 C 
ATOM     36  C   UNL     1      33.780 -20.715 -20.906  0.00  0.00    -0.000 C 
ENDBRANCH  26  29
ENDBRANCH  25  26
ENDBRANCH   7  25
TORSDOF 7
ENDMDL
MODEL 3
REMARK VINA RESULT:      -9.8      7.666     13.303
REMARK  Name = 46937030
REMARK  7 active torsions:
REMARK  status: ('A' for Active; 'I' for Inactive)
REMARK    1  A    between atoms: C_3  and  C_10
REMARK    2  A    between atoms: C_7  and  C_25
REMARK    3  A    between atoms: N_9  and  C_12
REMARK    4  A    between atoms: C_12  and  C_13
REMARK    5  A    between atoms: C_18  and  C_21
REMARK    6  A    between atoms: C_25  and  N_26
REMARK    7  A    between atoms: N_26  and  C_29
REMARK                            x       y       z     vdW  Elec       q    Type
REMARK                         _______ _______ _______ _____ _____    ______ ____
ROOT
ATOM      1  O   UNL     1      31.379 -12.010 -22.530  0.00  0.00    -0.277 OA
ATOM      2  N   UNL     1      32.901 -13.462 -21.574  0.00  0.00    -0.275 N 
ATOM      3  C   UNL     1      34.234 -14.041 -21.418  0.00  0.00    +0.152 C 
ATOM      4  C   UNL     1      34.265 -14.547 -19.980  0.00  0.00    +0.031 C 
ATOM      5  C   UNL     1      32.040 -13.824 -20.456  0.00  0.00    +0.094 C 
ATOM      6  C   UNL     1      32.806 -14.894 -19.695  0.00  0.00    +0.024 C 
ATOM      7  C   UNL     1      32.482 -12.561 -22.540  0.00  0.00    +0.204 C 
ENDROOT
BRANCH   3  10
ATOM      8  O   UNL     1      33.857 -15.139 -23.504  0.00  0.00    -0.273 OA
ATOM      9  N   UNL     1      35.068 -16.243 -21.850  0.00  0.00    -0.299 N 
ATOM     10  C   UNL     1      34.360 -15.180 -22.384  0.00  0.00    +0.241 C 
ATOM     11  H   UNL     1      35.425 -16.157 -20.937  0.00  0.00    +0.150 HD
BRANCH   9  12
ATOM     12  C   UNL     1      35.310 -17.473 -22.570  0.00  0.00    +0.116 C 
BRANCH  12  13
ATOM     13  C   UNL     1      35.398 -18.655 -21.647  0.00  0.00    -0.003 C 
ATOM     14  C   UNL     1      36.625 -19.015 -21.092  0.00  0.00    -0.003 C 
ATOM     15  C   UNL     1      34.252 -19.392 -21.348  0.00  0.00    -0.003 C 
ATOM     16  C   UNL     1      36.707 -20.114 -20.235  0.00  0.00    +0.002 C 
ATOM     17  C   UNL     1      34.334 -20.490 -20.491  0.00  0.00    +0.002 C 
ATOM     18  C   UNL     1      35.561 -20.850 -19.935  0.00  0.00    +0.031 C 
BRANCH  18  21
ATOM     19  N   UNL     1      36.589 -22.046 -18.016  0.00  0.00    -0.343 N 
ATOM     20  N   UNL     1      34.821 -23.015 -19.197  0.00  0.00    -0.285 NA
ATOM     21  C   UNL     1      35.646 -21.995 -19.041  0.00  0.00    +0.117 C 
ATOM     22  H   UNL     1      36.628 -22.830 -17.422  0.00  0.00    +0.144 HD
ATOM     23  H   UNL     1      37.214 -21.297 -17.885  0.00  0.00    +0.144 HD
ATOM     24  H   UNL     1      34.877 -23.791 -18.594  0.00  0.00    +0.188 HD
ENDBRANCH  18  21
ENDBRANCH  12  13
ENDBRANCH   9  12
ENDBRANCH   3  10
BRANCH   7  25
ATOM     25  C   UNL     1      33.466 -12.268 -23.644  0.00  0.00    +0.006 C 
BRANCH  25  26
ATOM     26  N   UNL     1      34.301 -11.169 -23.189  0.00  0.00    +0.391 N 
ATOM     27  H   UNL     1      34.083 -10.963 -22.213  0.00  0.00    -0.084 HD
ATOM     28  H   UNL     1      35.280 -11.439 -23.282  0.00  0.00    -0.084 HD
BRANCH  26  29
ATOM     29  C   UNL     1      34.062  -9.970 -23.999  0.00  0.00    -0.061 C 
ATOM     30  C   UNL     1      32.754  -9.289 -23.574  0.00  0.00    -0.021 C 
ATOM     31  C   UNL     1      35.330  -9.102 -23.988  0.00  0.00    -0.021 C 
ATOM     32  C   UNL     1      35.168  -7.719 -24.621  0.00  0.00    -0.002 C 
ATOM     33  C   UNL     1      32.667  -8.751 -22.145  0.00  0.00    -0.002 C 
ATOM     34  C   UNL     1      35.056  -6.570 -23.615  0.00  0.00    -0.000 C 
ATOM     35  C   UNL     1      33.629  -7.631 -21.752  0.00  0.00    -0.000 C 
ATOM     36  C   UNL     1      33.775  -6.508 -22.779  0.00  0.00    -0.000 C 
ENDBRANCH  26  29
ENDBRANCH  25  26
ENDBRANCH   7  25
TORSDOF 7
ENDMDL
MODEL 4
REMARK VINA RESULT:      -9.6      1.957      5.108
REMARK  Name = 46937030
REMARK  7 active torsions:
REMARK  status: ('A' for Active; 'I' for Inactive)
REMARK    1  A    between atoms: C_3  and  C_10
REMARK    2  A    between atoms: C_7  and  C_25
REMARK    3  A    between atoms: N_9  and  C_12
REMARK    4  A    between atoms: C_12  and  C_13
REMARK    5  A    between atoms: C_18  and  C_21
REMARK    6  A    between atoms: C_25  and  N_26
REMARK    7  A    between atoms: N_26  and  C_29
REMARK                            x       y       z     vdW  Elec       q    Type
REMARK                         _______ _______ _______ _____ _____    ______ ____
ROOT
ATOM      1  O   UNL     1      32.704 -23.927 -13.032  0.00  0.00    -0.277 OA
ATOM      2  N   UNL     1      33.173 -23.658 -15.279  0.00  0.00    -0.275 N 
ATOM      3  C   UNL     1      33.982 -23.868 -16.478  0.00  0.00    +0.152 C 
ATOM      4  C   UNL     1      32.990 -23.751 -17.632  0.00  0.00    +0.031 C 
ATOM      5  C   UNL     1      31.850 -23.153 -15.621  0.00  0.00    +0.094 C 
ATOM      6  C   UNL     1      31.933 -22.789 -17.095  0.00  0.00    +0.024 C 
ATOM      7  C   UNL     1      33.491 -24.010 -13.977  0.00  0.00    +0.204 C 
ENDROOT
BRANCH   3  10
ATOM      8  O   UNL     1      35.281 -22.085 -15.565  0.00  0.00    -0.273 OA
ATOM      9  N   UNL     1      35.545 -22.638 -17.811  0.00  0.00    -0.299 N 
ATOM     10  C   UNL     1      35.003 -22.772 -16.544  0.00  0.00    +0.241 C 
ATOM     11  H   UNL     1      35.241 -23.252 -18.519  0.00  0.00    +0.150 HD
BRANCH   9  12
ATOM     12  C   UNL     1      36.535 -21.640 -18.146  0.00  0.00    +0.116 C 
BRANCH  12  13
ATOM     13  C   UNL     1      36.137 -20.835 -19.349  0.00  0.00    -0.003 C 
ATOM     14  C   UNL     1      37.046 -19.947 -19.925  0.00  0.00    -0.003 C 
ATOM     15  C   UNL     1      34.858 -20.973 -19.889  0.00  0.00    -0.003 C 
ATOM     16  C   UNL     1      36.676 -19.198 -21.043  0.00  0.00    +0.002 C 
ATOM     17  C   UNL     1      34.488 -20.224 -21.007  0.00  0.00    +0.002 C 
ATOM     18  C   UNL     1      35.398 -19.337 -21.584  0.00  0.00    +0.031 C 
BRANCH  18  21
ATOM     19  N   UNL     1      35.485 -17.261 -22.942  0.00  0.00    -0.343 N 
ATOM     20  N   UNL     1      34.193 -19.076 -23.647  0.00  0.00    -0.285 NA
ATOM     21  C   UNL     1      35.012 -18.558 -22.749  0.00  0.00    +0.117 C 
ATOM     22  H   UNL     1      35.211 -16.751 -23.739  0.00  0.00    +0.144 HD
ATOM     23  H   UNL     1      36.093 -16.855 -22.283  0.00  0.00    +0.144 HD
ATOM     24  H   UNL     1      33.931 -18.550 -24.436  0.00  0.00    +0.188 HD
ENDBRANCH  18  21
ENDBRANCH  12  13
ENDBRANCH   9  12
ENDBRANCH   3  10
BRANCH   7  25
ATOM     25  C   UNL     1      34.892 -24.521 -13.752  0.00  0.00    +0.006 C 
BRANCH  25  26
ATOM     26  N   UNL     1      35.548 -23.583 -12.856  0.00  0.00    +0.391 N 
ATOM     27  H   UNL     1      35.097 -22.671 -12.937  0.00  0.00    -0.084 HD
ATOM     28  H   UNL     1      35.470 -23.931 -11.901  0.00  0.00    -0.084 HD
BRANCH  26  29
ATOM     29  C   UNL     1      36.968 -23.451 -13.197  0.00  0.00    -0.061 C 
ATOM     30  C   UNL     1      37.844 -23.811 -11.990  0.00  0.00    -0.021 C 
ATOM     31  C   UNL     1      37.238 -24.216 -14.502  0.00  0.00    -0.021 C 
ATOM     32  C   UNL     1      38.716 -24.343 -14.879  0.00  0.00    -0.002 C 
ATOM     33  C   UNL     1      37.759 -25.241 -11.455  0.00  0.00    -0.002 C 
ATOM     34  C   UNL     1      39.323 -25.721 -14.608  0.00  0.00    -0.000 C 
ATOM     35  C   UNL     1      38.200 -26.371 -12.384  0.00  0.00    -0.000 C 
ATOM     36  C   UNL     1      39.505 -26.119 -13.141  0.00  0.00    -0.000 C 
ENDBRANCH  26  29
ENDBRANCH  25  26
ENDBRANCH   7  25
TORSDOF 7
ENDMDL
MODEL 5
REMARK VINA RESULT:      -9.6      6.109     10.350
REMARK  Name = 46937030
REMARK  7 active torsions:
REMARK  status: ('A' for Active; 'I' for Inactive)
REMARK    1  A    between atoms: C_3  and  C_10
REMARK    2  A    between atoms: C_7  and  C_25
REMARK    3  A    between atoms: N_9  and  C_12
REMARK    4  A    between atoms: C_12  and  C_13
REMARK    5  A    between atoms: C_18  and  C_21
REMARK    6  A    between atoms: C_25  and  N_26
REMARK    7  A    between atoms: N_26  and  C_29
REMARK                            x       y       z     vdW  Elec       q    Type
REMARK                         _______ _______ _______ _____ _____    ______ ____
ROOT
ATOM      1  O   UNL     1      34.616 -19.737 -23.470  0.00  0.00    -0.277 OA
ATOM      2  N   UNL     1      34.702 -17.429 -23.465  0.00  0.00    -0.275 N 
ATOM      3  C   UNL     1      35.269 -16.144 -23.059  0.00  0.00    +0.152 C 
ATOM      4  C   UNL     1      34.914 -15.193 -24.198  0.00  0.00    +0.031 C 
ATOM      5  C   UNL     1      33.806 -17.269 -24.603  0.00  0.00    +0.094 C 
ATOM      6  C   UNL     1      33.611 -15.769 -24.747  0.00  0.00    +0.024 C 
ATOM      7  C   UNL     1      35.038 -18.685 -22.986  0.00  0.00    +0.204 C 
ENDROOT
BRANCH   3  10
ATOM      8  O   UNL     1      34.865 -16.242 -20.708  0.00  0.00    -0.273 OA
ATOM      9  N   UNL     1      33.655 -14.728 -21.999  0.00  0.00    -0.299 N 
ATOM     10  C   UNL     1      34.596 -15.722 -21.788  0.00  0.00    +0.241 C 
ATOM     11  H   UNL     1      33.528 -14.389 -22.914  0.00  0.00    +0.150 HD
BRANCH   9  12
ATOM     12  C   UNL     1      32.851 -14.163 -20.939  0.00  0.00    +0.116 C 
BRANCH  12  13
ATOM     13  C   UNL     1      32.482 -12.734 -21.216  0.00  0.00    -0.003 C 
ATOM     14  C   UNL     1      32.695 -12.192 -22.484  0.00  0.00    -0.003 C 
ATOM     15  C   UNL     1      31.928 -11.948 -20.206  0.00  0.00    -0.003 C 
ATOM     16  C   UNL     1      32.352 -10.865 -22.742  0.00  0.00    +0.002 C 
ATOM     17  C   UNL     1      31.585 -10.620 -20.463  0.00  0.00    +0.002 C 
ATOM     18  C   UNL     1      31.797 -10.079 -21.731  0.00  0.00    +0.031 C 
BRANCH  18  21
ATOM     19  N   UNL     1      31.654  -7.695 -21.053  0.00  0.00    -0.343 N 
ATOM     20  N   UNL     1      30.895  -8.368 -23.158  0.00  0.00    -0.285 NA
ATOM     21  C   UNL     1      31.439  -8.695 -21.999  0.00  0.00    +0.117 C 
ATOM     22  H   UNL     1      31.404  -6.764 -21.257  0.00  0.00    +0.144 HD
ATOM     23  H   UNL     1      32.055  -7.918 -20.183  0.00  0.00    +0.144 HD
ATOM     24  H   UNL     1      30.652  -7.432 -23.341  0.00  0.00    +0.188 HD
ENDBRANCH  18  21
ENDBRANCH  12  13
ENDBRANCH   9  12
ENDBRANCH   3  10
BRANCH   7  25
ATOM     25  C   UNL     1      35.975 -18.716 -21.805  0.00  0.00    +0.006 C 
BRANCH  25  26
ATOM     26  N   UNL     1      35.172 -19.028 -20.634  0.00  0.00    +0.391 N 
ATOM     27  H   UNL     1      35.744 -18.916 -19.796  0.00  0.00    -0.084 HD
ATOM     28  H   UNL     1      34.375 -18.393 -20.603  0.00  0.00    -0.084 HD
BRANCH  26  29
ATOM     29  C   UNL     1      34.678 -20.406 -20.699  0.00  0.00    -0.061 C 
ATOM     30  C   UNL     1      35.830 -21.398 -20.488  0.00  0.00    -0.021 C 
ATOM     31  C   UNL     1      33.466 -20.544 -19.766  0.00  0.00    -0.021 C 
ATOM     32  C   UNL     1      32.964 -21.976 -19.570  0.00  0.00    -0.002 C 
ATOM     33  C   UNL     1      36.555 -21.365 -19.142  0.00  0.00    -0.002 C 
ATOM     34  C   UNL     1      33.353 -22.606 -18.230  0.00  0.00    -0.000 C 
ATOM     35  C   UNL     1      35.744 -21.710 -17.894  0.00  0.00    -0.000 C 
ATOM     36  C   UNL     1      34.835 -22.933 -18.025  0.00  0.00    -0.000 C 
ENDBRANCH  26  29
ENDBRANCH  25  26
ENDBRANCH   7  25
TORSDOF 7
ENDMDL
MODEL 6
REMARK VINA RESULT:      -9.5      2.357      7.653
REMARK  Name = 46937030
REMARK  7 active torsions:
REMARK  status: ('A' for Active; 'I' for Inactive)
REMARK    1  A    between atoms: C_3  and  C_10
REMARK    2  A    between atoms: C_7  and  C_25
REMARK    3  A    between atoms: N_9  and  C_12
REMARK    4  A    between atoms: C_12  and  C_13
REMARK    5  A    between atoms: C_18  and  C_21
REMARK    6  A    between atoms: C_25  and  N_26
REMARK    7  A    between atoms: N_26  and  C_29
REMARK                            x       y       z     vdW  Elec       q    Type
REMARK                         _______ _______ _______ _____ _____    ______ ____
ROOT
ATOM      1  O   UNL     1      32.550 -24.269 -17.741  0.00  0.00    -0.277 OA
ATOM      2  N   UNL     1      32.111 -23.731 -15.538  0.00  0.00    -0.275 N 
ATOM      3  C   UNL     1      32.465 -23.174 -14.234  0.00  0.00    +0.152 C 
ATOM      4  C   UNL     1      31.132 -22.755 -13.623  0.00  0.00    +0.031 C 
ATOM      5  C   UNL     1      30.673 -23.939 -15.645  0.00  0.00    +0.094 C 
ATOM      6  C   UNL     1      30.136 -23.736 -14.237  0.00  0.00    +0.024 C 
ATOM      7  C   UNL     1      32.946 -23.920 -16.627  0.00  0.00    +0.204 C 
ENDROOT
BRANCH   3  10
ATOM      8  O   UNL     1      32.608 -25.385 -13.345  0.00  0.00    -0.273 OA
ATOM      9  N   UNL     1      34.255 -23.837 -12.788  0.00  0.00    -0.299 N 
ATOM     10  C   UNL     1      33.101 -24.263 -13.423  0.00  0.00    +0.241 C 
ATOM     11  H   UNL     1      34.553 -22.909 -12.929  0.00  0.00    +0.150 HD
BRANCH   9  12
ATOM     12  C   UNL     1      35.045 -24.688 -11.927  0.00  0.00    +0.116 C 
BRANCH  12  13
ATOM     13  C   UNL     1      36.336 -25.099 -12.575  0.00  0.00    -0.003 C 
ATOM     14  C   UNL     1      36.320 -25.747 -13.810  0.00  0.00    -0.003 C 
ATOM     15  C   UNL     1      37.550 -24.833 -11.941  0.00  0.00    -0.003 C 
ATOM     16  C   UNL     1      37.520 -26.129 -14.412  0.00  0.00    +0.002 C 
ATOM     17  C   UNL     1      38.749 -25.214 -12.543  0.00  0.00    +0.002 C 
ATOM     18  C   UNL     1      38.734 -25.862 -13.778  0.00  0.00    +0.031 C 
BRANCH  18  21
ATOM     19  N   UNL     1      40.954 -26.971 -13.703  0.00  0.00    -0.343 N 
ATOM     20  N   UNL     1      40.219 -25.939 -15.666  0.00  0.00    -0.285 NA
ATOM     21  C   UNL     1      39.984 -26.259 -14.406  0.00  0.00    +0.117 C 
ATOM     22  H   UNL     1      41.793 -27.230 -14.148  0.00  0.00    +0.144 HD
ATOM     23  H   UNL     1      40.799 -27.216 -12.762  0.00  0.00    +0.144 HD
ATOM     24  H   UNL     1      41.065 -26.206 -16.093  0.00  0.00    +0.188 HD
ENDBRANCH  18  21
ENDBRANCH  12  13
ENDBRANCH   9  12
ENDBRANCH   3  10
BRANCH   7  25
ATOM     25  C   UNL     1      34.414 -23.672 -16.388  0.00  0.00    +0.006 C 
BRANCH  25  26
ATOM     26  N   UNL     1      34.717 -22.358 -16.931  0.00  0.00    +0.391 N 
ATOM     27  H   UNL     1      33.848 -21.835 -17.048  0.00  0.00    -0.084 HD
ATOM     28  H   UNL     1      35.337 -21.870 -16.285  0.00  0.00    -0.084 HD
BRANCH  26  29
ATOM     29  C   UNL     1      35.385 -22.478 -18.230  0.00  0.00    -0.061 C 
ATOM     30  C   UNL     1      34.351 -22.664 -19.349  0.00  0.00    -0.021 C 
ATOM     31  C   UNL     1      36.375 -21.314 -18.389  0.00  0.00    -0.021 C 
ATOM     32  C   UNL     1      37.000 -21.186 -19.780  0.00  0.00    -0.002 C 
ATOM     33  C   UNL     1      33.354 -21.529 -19.587  0.00  0.00    -0.002 C 
ATOM     34  C   UNL     1      36.415 -20.062 -20.638  0.00  0.00    -0.000 C 
ATOM     35  C   UNL     1      33.914 -20.179 -20.036  0.00  0.00    -0.000 C 
ATOM     36  C   UNL     1      34.978 -20.248 -21.132  0.00  0.00    -0.000 C 
ENDBRANCH  26  29
ENDBRANCH  25  26
ENDBRANCH   7  25
TORSDOF 7
ENDMDL
