MODEL 1
REMARK VINA RESULT:     -12.4      0.000      0.000
REMARK  Name = 5326869
REMARK  6 active torsions:
REMARK  status: ('A' for Active; 'I' for Inactive)
REMARK    1  A    between atoms: N_2  and  C_11
REMARK    2  A    between atoms: C_3  and  C_25
REMARK    3  A    between atoms: N_5  and  C_14
REMARK    4  A    between atoms: C_14  and  C_15
REMARK    5  A    between atoms: C_15  and  C_17
REMARK    6  A    between atoms: C_23  and  N_30
REMARK                            x       y       z     vdW  Elec       q    Type
REMARK                         _______ _______ _______ _____ _____    ______ ____
ROOT
ATOM      1  O   UNL     1      31.594 -13.750 -20.663  0.00  0.00    -0.270 OA
ATOM      2  N   UNL     1      33.132 -12.963 -22.257  0.00  0.00    -0.280 N 
ATOM      3  C   UNL     1      32.238 -12.847 -21.185  0.00  0.00    +0.250 C 
ATOM      4  H   UNL     1      33.565 -12.129 -22.551  0.00  0.00    +0.155 HD
ENDROOT
BRANCH   2  11
ATOM      5  N   UNL     1      35.033 -17.485 -22.629  0.00  0.00    -0.286 N 
ATOM      6  C   UNL     1      34.432 -16.312 -23.024  0.00  0.00    +0.053 C 
ATOM      7  C   UNL     1      34.180 -16.420 -24.393  0.00  0.00    +0.015 C 
ATOM      8  C   UNL     1      35.169 -18.329 -23.699  0.00  0.00    +0.065 C 
ATOM      9  C   UNL     1      34.097 -15.174 -22.281  0.00  0.00    +0.029 C 
ATOM     10  C   UNL     1      34.649 -17.698 -24.805  0.00  0.00    +0.017 C 
ATOM     11  C   UNL     1      33.485 -14.116 -22.960  0.00  0.00    +0.052 C 
ATOM     12  C   UNL     1      33.561 -15.340 -25.056  0.00  0.00    +0.003 C 
ATOM     13  C   UNL     1      33.220 -14.196 -24.326  0.00  0.00    +0.015 C 
BRANCH   5  14
ATOM     14  C   UNL     1      35.463 -17.799 -21.283  0.00  0.00    +0.100 C 
BRANCH  14  15
ATOM     15  C   UNL     1      36.163 -19.156 -21.166  0.00  0.00    +0.048 C 
BRANCH  15  17
ATOM     16  N   UNL     1      33.828 -22.101 -19.106  0.00  0.00    -0.242 NA
ATOM     17  C   UNL     1      35.342 -20.193 -20.442  0.00  0.00    -0.017 C 
ATOM     18  C   UNL     1      35.978 -21.162 -19.688  0.00  0.00    +0.016 C 
ATOM     19  C   UNL     1      33.963 -20.160 -20.540  0.00  0.00    +0.016 C 
ATOM     20  C   UNL     1      35.179 -22.091 -19.042  0.00  0.00    +0.099 C 
ATOM     21  C   UNL     1      33.254 -21.133 -19.855  0.00  0.00    +0.099 C 
ENDBRANCH  15  17
ENDBRANCH  14  15
ENDBRANCH   5  14
ENDBRANCH   2  11
BRANCH   3  25
ATOM     22  F   UNL     1      31.745  -9.779 -17.479  0.00  0.00    -0.204 F 
ATOM     23  C   UNL     1      31.770  -9.131 -21.059  0.00  0.00    +0.050 C 
ATOM     24  C   UNL     1      31.946 -10.424 -21.553  0.00  0.00    +0.019 C 
ATOM     25  C   UNL     1      32.049 -11.470 -20.660  0.00  0.00    +0.057 C 
ATOM     26  C   UNL     1      31.702  -8.914 -19.684  0.00  0.00    +0.044 C 
ATOM     27  C   UNL     1      31.985 -11.281 -19.295  0.00  0.00    +0.034 C 
ATOM     28  C   UNL     1      31.809  -9.988 -18.801  0.00  0.00    +0.142 C 
BRANCH  23  30
ATOM     29  O   UNL     1      31.184  -5.864 -23.640  0.00  0.00    -0.350 OA
ATOM     30  N   UNL     1      31.663  -8.054 -21.944  0.00  0.00    -0.303 N 
ATOM     31  C   UNL     1      31.126  -8.265 -23.293  0.00  0.00    +0.123 C 
ATOM     32  C   UNL     1      31.436  -6.715 -21.383  0.00  0.00    +0.123 C 
ATOM     33  C   UNL     1      31.558  -7.121 -24.204  0.00  0.00    +0.164 C 
ATOM     34  C   UNL     1      31.851  -5.654 -22.395  0.00  0.00    +0.164 C 
ENDBRANCH  23  30
ENDBRANCH   3  25
TORSDOF 6
ENDMDL
MODEL 2
REMARK VINA RESULT:     -12.1      4.573     11.507
REMARK  Name = 5326869
REMARK  6 active torsions:
REMARK  status: ('A' for Active; 'I' for Inactive)
REMARK    1  A    between atoms: N_2  and  C_11
REMARK    2  A    between atoms: C_3  and  C_25
REMARK    3  A    between atoms: N_5  and  C_14
REMARK    4  A    between atoms: C_14  and  C_15
REMARK    5  A    between atoms: C_15  and  C_17
REMARK    6  A    between atoms: C_23  and  N_30
REMARK                            x       y       z     vdW  Elec       q    Type
REMARK                         _______ _______ _______ _____ _____    ______ ____
ROOT
ATOM      1  O   UNL     1      32.710 -21.345 -20.109  0.00  0.00    -0.270 OA
ATOM      2  N   UNL     1      34.859 -20.393 -20.129  0.00  0.00    -0.280 N 
ATOM      3  C   UNL     1      33.834 -21.213 -19.639  0.00  0.00    +0.250 C 
ATOM      4  H   UNL     1      35.704 -20.410 -19.623  0.00  0.00    +0.155 HD
ENDROOT
BRANCH   2  11
ATOM      5  N   UNL     1      34.804 -15.997 -22.337  0.00  0.00    -0.286 N 
ATOM      6  C   UNL     1      34.807 -17.368 -22.211  0.00  0.00    +0.053 C 
ATOM      7  C   UNL     1      34.776 -17.899 -23.502  0.00  0.00    +0.015 C 
ATOM      8  C   UNL     1      34.771 -15.645 -23.660  0.00  0.00    +0.065 C 
ATOM      9  C   UNL     1      34.835 -18.170 -21.064  0.00  0.00    +0.029 C 
ATOM     10  C   UNL     1      34.754 -16.800 -24.406  0.00  0.00    +0.017 C 
ATOM     11  C   UNL     1      34.831 -19.557 -21.245  0.00  0.00    +0.052 C 
ATOM     12  C   UNL     1      34.772 -19.300 -23.659  0.00  0.00    +0.003 C 
ATOM     13  C   UNL     1      34.800 -20.114 -22.522  0.00  0.00    +0.015 C 
BRANCH   5  14
ATOM     14  C   UNL     1      34.832 -15.052 -21.242  0.00  0.00    +0.100 C 
BRANCH  14  15
ATOM     15  C   UNL     1      33.452 -14.776 -20.637  0.00  0.00    +0.048 C 
BRANCH  15  17
ATOM     16  N   UNL     1      31.772 -11.033 -21.875  0.00  0.00    -0.242 NA
ATOM     17  C   UNL     1      32.859 -13.459 -21.073  0.00  0.00    -0.017 C 
ATOM     18  C   UNL     1      32.081 -12.736 -20.189  0.00  0.00    +0.016 C 
ATOM     19  C   UNL     1      33.105 -12.992 -22.351  0.00  0.00    +0.016 C 
ATOM     20  C   UNL     1      31.561 -11.533 -20.637  0.00  0.00    +0.099 C 
ATOM     21  C   UNL     1      32.539 -11.777 -22.702  0.00  0.00    +0.099 C 
ENDBRANCH  15  17
ENDBRANCH  14  15
ENDBRANCH   5  14
ENDBRANCH   2  11
BRANCH   3  25
ATOM     22  F   UNL     1      37.067 -22.959 -16.496  0.00  0.00    -0.204 F 
ATOM     23  C   UNL     1      33.439 -23.227 -16.504  0.00  0.00    +0.050 C 
ATOM     24  C   UNL     1      33.132 -22.516 -17.664  0.00  0.00    +0.019 C 
ATOM     25  C   UNL     1      34.160 -21.972 -18.404  0.00  0.00    +0.057 C 
ATOM     26  C   UNL     1      34.768 -23.377 -16.110  0.00  0.00    +0.044 C 
ATOM     27  C   UNL     1      35.483 -22.105 -18.035  0.00  0.00    +0.034 C 
ATOM     28  C   UNL     1      35.791 -22.816 -16.875  0.00  0.00    +0.142 C 
BRANCH  23  30
ATOM     29  O   UNL     1      30.303 -24.664 -14.100  0.00  0.00    -0.350 OA
ATOM     30  N   UNL     1      32.414 -23.789 -15.737  0.00  0.00    -0.303 N 
ATOM     31  C   UNL     1      32.663 -24.156 -14.338  0.00  0.00    +0.123 C 
ATOM     32  C   UNL     1      31.028 -23.412 -16.047  0.00  0.00    +0.123 C 
ATOM     33  C   UNL     1      31.619 -25.167 -13.877  0.00  0.00    +0.164 C 
ATOM     34  C   UNL     1      30.072 -24.462 -15.495  0.00  0.00    +0.164 C 
ENDBRANCH  23  30
ENDBRANCH   3  25
TORSDOF 6
ENDMDL
MODEL 3
REMARK VINA RESULT:     -11.7      4.771      9.032
REMARK  Name = 5326869
REMARK  6 active torsions:
REMARK  status: ('A' for Active; 'I' for Inactive)
REMARK    1  A    between atoms: N_2  and  C_11
REMARK    2  A    between atoms: C_3  and  C_25
REMARK    3  A    between atoms: N_5  and  C_14
REMARK    4  A    between atoms: C_14  and  C_15
REMARK    5  A    between atoms: C_15  and  C_17
REMARK    6  A    between atoms: C_23  and  N_30
REMARK                            x       y       z     vdW  Elec       q    Type
REMARK                         _______ _______ _______ _____ _____    ______ ____
ROOT
ATOM      1  O   UNL     1      36.867 -19.019 -20.175  0.00  0.00    -0.270 OA
ATOM      2  N   UNL     1      35.306 -20.776 -20.096  0.00  0.00    -0.280 N 
ATOM      3  C   UNL     1      35.930 -19.650 -20.651  0.00  0.00    +0.250 C 
ATOM      4  H   UNL     1      34.564 -21.159 -20.617  0.00  0.00    +0.155 HD
ENDROOT
BRANCH   2  11
ATOM      5  N   UNL     1      34.191 -23.527 -16.174  0.00  0.00    -0.286 N 
ATOM      6  C   UNL     1      34.955 -22.768 -17.030  0.00  0.00    +0.053 C 
ATOM      7  C   UNL     1      36.241 -22.709 -16.491  0.00  0.00    +0.015 C 
ATOM      8  C   UNL     1      34.948 -23.949 -15.114  0.00  0.00    +0.065 C 
ATOM      9  C   UNL     1      34.608 -22.135 -18.230  0.00  0.00    +0.029 C 
ATOM     10  C   UNL     1      36.222 -23.459 -15.282  0.00  0.00    +0.017 C 
ATOM     11  C   UNL     1      35.609 -21.421 -18.896  0.00  0.00    +0.052 C 
ATOM     12  C   UNL     1      37.233 -21.983 -17.181  0.00  0.00    +0.003 C 
ATOM     13  C   UNL     1      36.901 -21.345 -18.382  0.00  0.00    +0.015 C 
BRANCH   5  14
ATOM     14  C   UNL     1      32.790 -23.845 -16.352  0.00  0.00    +0.100 C 
BRANCH  14  15
ATOM     15  C   UNL     1      31.888 -23.265 -15.259  0.00  0.00    +0.048 C 
BRANCH  15  17
ATOM     16  N   UNL     1      27.752 -24.273 -15.748  0.00  0.00    -0.242 NA
ATOM     17  C   UNL     1      30.432 -23.620 -15.432  0.00  0.00    -0.017 C 
ATOM     18  C   UNL     1      29.943 -24.782 -14.865  0.00  0.00    +0.016 C 
ATOM     19  C   UNL     1      29.607 -22.778 -16.153  0.00  0.00    +0.016 C 
ATOM     20  C   UNL     1      28.599 -25.064 -15.052  0.00  0.00    +0.099 C 
ATOM     21  C   UNL     1      28.278 -23.149 -16.282  0.00  0.00    +0.099 C 
ENDBRANCH  15  17
ENDBRANCH  14  15
ENDBRANCH   5  14
ENDBRANCH   2  11
BRANCH   3  25
ATOM     22  F   UNL     1      34.331 -20.529 -25.129  0.00  0.00    -0.204 F 
ATOM     23  C   UNL     1      34.554 -17.390 -23.304  0.00  0.00    +0.050 C 
ATOM     24  C   UNL     1      35.091 -17.833 -22.095  0.00  0.00    +0.019 C 
ATOM     25  C   UNL     1      35.360 -19.177 -21.939  0.00  0.00    +0.057 C 
ATOM     26  C   UNL     1      34.298 -18.300 -24.328  0.00  0.00    +0.044 C 
ATOM     27  C   UNL     1      35.115 -20.098 -22.937  0.00  0.00    +0.034 C 
ATOM     28  C   UNL     1      34.578 -19.654 -24.146  0.00  0.00    +0.142 C 
BRANCH  23  30
ATOM     29  O   UNL     1      33.943 -13.288 -24.001  0.00  0.00    -0.350 OA
ATOM     30  N   UNL     1      34.273 -16.032 -23.488  0.00  0.00    -0.303 N 
ATOM     31  C   UNL     1      34.865 -15.034 -22.591  0.00  0.00    +0.123 C 
ATOM     32  C   UNL     1      33.991 -15.560 -24.850  0.00  0.00    +0.123 C 
ATOM     33  C   UNL     1      34.058 -13.742 -22.653  0.00  0.00    +0.164 C 
ATOM     34  C   UNL     1      33.231 -14.241 -24.792  0.00  0.00    +0.164 C 
ENDBRANCH  23  30
ENDBRANCH   3  25
TORSDOF 6
ENDMDL
MODEL 4
REMARK VINA RESULT:     -11.5      4.702     11.770
REMARK  Name = 5326869
REMARK  6 active torsions:
REMARK  status: ('A' for Active; 'I' for Inactive)
REMARK    1  A    between atoms: N_2  and  C_11
REMARK    2  A    between atoms: C_3  and  C_25
REMARK    3  A    between atoms: N_5  and  C_14
REMARK    4  A    between atoms: C_14  and  C_15
REMARK    5  A    between atoms: C_15  and  C_17
REMARK    6  A    between atoms: C_23  and  N_30
REMARK                            x       y       z     vdW  Elec       q    Type
REMARK                         _______ _______ _______ _____ _____    ______ ____
ROOT
ATOM      1  O   UNL     1      36.485 -21.402 -19.910  0.00  0.00    -0.270 OA
ATOM      2  N   UNL     1      34.379 -20.375 -20.107  0.00  0.00    -0.280 N 
ATOM      3  C   UNL     1      35.328 -21.237 -19.540  0.00  0.00    +0.250 C 
ATOM      4  H   UNL     1      33.493 -20.369 -19.679  0.00  0.00    +0.155 HD
ENDROOT
BRANCH   2  11
ATOM      5  N   UNL     1      34.841 -15.958 -22.222  0.00  0.00    -0.286 N 
ATOM      6  C   UNL     1      34.754 -17.328 -22.123  0.00  0.00    +0.053 C 
ATOM      7  C   UNL     1      34.857 -17.841 -23.417  0.00  0.00    +0.015 C 
ATOM      8  C   UNL     1      34.995 -15.588 -23.532  0.00  0.00    +0.065 C 
ATOM      9  C   UNL     1      34.594 -18.144 -20.997  0.00  0.00    +0.029 C 
ATOM     10  C   UNL     1      35.009 -16.732 -24.296  0.00  0.00    +0.017 C 
ATOM     11  C   UNL     1      34.537 -19.525 -21.202  0.00  0.00    +0.052 C 
ATOM     12  C   UNL     1      34.798 -19.238 -23.599  0.00  0.00    +0.003 C 
ATOM     13  C   UNL     1      34.638 -20.066 -22.483  0.00  0.00    +0.015 C 
BRANCH   5  14
ATOM     14  C   UNL     1      34.782 -15.028 -21.115  0.00  0.00    +0.100 C 
BRANCH  14  15
ATOM     15  C   UNL     1      33.359 -14.767 -20.611  0.00  0.00    +0.048 C 
BRANCH  15  17
ATOM     16  N   UNL     1      31.746 -11.025 -21.938  0.00  0.00    -0.242 NA
ATOM     17  C   UNL     1      32.790 -13.451 -21.078  0.00  0.00    -0.017 C 
ATOM     18  C   UNL     1      31.997 -12.710 -20.223  0.00  0.00    +0.016 C 
ATOM     19  C   UNL     1      33.072 -13.002 -22.356  0.00  0.00    +0.016 C 
ATOM     20  C   UNL     1      31.500 -11.507 -20.699  0.00  0.00    +0.099 C 
ATOM     21  C   UNL     1      32.527 -11.787 -22.736  0.00  0.00    +0.099 C 
ENDBRANCH  15  17
ENDBRANCH  14  15
ENDBRANCH   5  14
ENDBRANCH   2  11
BRANCH   3  25
ATOM     22  F   UNL     1      31.772 -23.485 -17.157  0.00  0.00    -0.204 F 
ATOM     23  C   UNL     1      35.303 -23.182 -16.338  0.00  0.00    +0.050 C 
ATOM     24  C   UNL     1      35.754 -22.424 -17.419  0.00  0.00    +0.019 C 
ATOM     25  C   UNL     1      34.849 -22.042 -18.387  0.00  0.00    +0.057 C 
ATOM     26  C   UNL     1      33.959 -23.539 -16.249  0.00  0.00    +0.044 C 
ATOM     27  C   UNL     1      33.514 -22.383 -18.323  0.00  0.00    +0.034 C 
ATOM     28  C   UNL     1      33.063 -23.140 -17.241  0.00  0.00    +0.142 C 
BRANCH  23  30
ATOM     29  O   UNL     1      37.995 -24.127 -13.248  0.00  0.00    -0.350 OA
ATOM     30  N   UNL     1      36.201 -23.582 -15.343  0.00  0.00    -0.303 N 
ATOM     31  C   UNL     1      37.641 -23.366 -15.525  0.00  0.00    +0.123 C 
ATOM     32  C   UNL     1      35.739 -23.575 -13.948  0.00  0.00    +0.123 C 
ATOM     33  C   UNL     1      38.422 -24.293 -14.600  0.00  0.00    +0.164 C 
ATOM     34  C   UNL     1      36.622 -24.490 -13.108  0.00  0.00    +0.164 C 
ENDBRANCH  23  30
ENDBRANCH   3  25
TORSDOF 6
ENDMDL
MODEL 5
REMARK VINA RESULT:     -11.1      2.833      5.385
REMARK  Name = 5326869
REMARK  6 active torsions:
REMARK  status: ('A' for Active; 'I' for Inactive)
REMARK    1  A    between atoms: N_2  and  C_11
REMARK    2  A    between atoms: C_3  and  C_25
REMARK    3  A    between atoms: N_5  and  C_14
REMARK    4  A    between atoms: C_14  and  C_15
REMARK    5  A    between atoms: C_15  and  C_17
REMARK    6  A    between atoms: C_23  and  N_30
REMARK                            x       y       z     vdW  Elec       q    Type
REMARK                         _______ _______ _______ _____ _____    ______ ____
ROOT
ATOM      1  O   UNL     1      34.634 -15.634 -20.400  0.00  0.00    -0.270 OA
ATOM      2  N   UNL     1      35.051 -17.155 -22.144  0.00  0.00    -0.280 N 
ATOM      3  C   UNL     1      34.612 -15.947 -21.585  0.00  0.00    +0.250 C 
ATOM      4  H   UNL     1      34.957 -17.238 -23.120  0.00  0.00    +0.155 HD
ENDROOT
BRANCH   2  11
ATOM      5  N   UNL     1      34.787 -21.283 -19.481  0.00  0.00    -0.286 N 
ATOM      6  C   UNL     1      35.357 -20.250 -20.190  0.00  0.00    +0.053 C 
ATOM      7  C   UNL     1      36.738 -20.455 -20.176  0.00  0.00    +0.015 C 
ATOM      8  C   UNL     1      35.758 -22.132 -19.021  0.00  0.00    +0.065 C 
ATOM      9  C   UNL     1      34.761 -19.160 -20.835  0.00  0.00    +0.029 C 
ATOM     10  C   UNL     1      36.976 -21.646 -19.435  0.00  0.00    +0.017 C 
ATOM     11  C   UNL     1      35.604 -18.255 -21.486  0.00  0.00    +0.052 C 
ATOM     12  C   UNL     1      37.567 -19.529 -20.840  0.00  0.00    +0.003 C 
ATOM     13  C   UNL     1      36.985 -18.434 -21.489  0.00  0.00    +0.015 C 
BRANCH   5  14
ATOM     14  C   UNL     1      33.370 -21.462 -19.247  0.00  0.00    +0.100 C 
BRANCH  14  15
ATOM     15  C   UNL     1      32.994 -22.889 -18.833  0.00  0.00    +0.048 C 
BRANCH  15  17
ATOM     16  N   UNL     1      32.598 -23.385 -14.595  0.00  0.00    -0.242 NA
ATOM     17  C   UNL     1      32.855 -23.062 -17.342  0.00  0.00    -0.017 C 
ATOM     18  C   UNL     1      31.604 -22.974 -16.760  0.00  0.00    +0.016 C 
ATOM     19  C   UNL     1      33.980 -23.310 -16.577  0.00  0.00    +0.016 C 
ATOM     20  C   UNL     1      31.529 -23.141 -15.386  0.00  0.00    +0.099 C 
ATOM     21  C   UNL     1      33.798 -23.462 -15.212  0.00  0.00    +0.099 C 
ENDBRANCH  15  17
ENDBRANCH  14  15
ENDBRANCH   5  14
ENDBRANCH   2  11
BRANCH   3  25
ATOM     22  F   UNL     1      33.425 -14.678 -26.098  0.00  0.00    -0.204 F 
ATOM     23  C   UNL     1      33.019 -12.854 -22.976  0.00  0.00    +0.050 C 
ATOM     24  C   UNL     1      33.557 -13.770 -22.072  0.00  0.00    +0.019 C 
ATOM     25  C   UNL     1      34.040 -14.971 -22.548  0.00  0.00    +0.057 C 
ATOM     26  C   UNL     1      32.975 -13.161 -24.335  0.00  0.00    +0.044 C 
ATOM     27  C   UNL     1      34.007 -15.298 -23.887  0.00  0.00    +0.034 C 
ATOM     28  C   UNL     1      33.469 -14.383 -24.792  0.00  0.00    +0.142 C 
BRANCH  23  30
ATOM     29  O   UNL     1      31.292  -9.228 -21.732  0.00  0.00    -0.350 OA
ATOM     30  N   UNL     1      32.523 -11.629 -22.519  0.00  0.00    -0.303 N 
ATOM     31  C   UNL     1      32.590 -10.444 -23.382  0.00  0.00    +0.123 C 
ATOM     32  C   UNL     1      31.407 -11.645 -21.563  0.00  0.00    +0.123 C 
ATOM     33  C   UNL     1      32.471  -9.182 -22.534  0.00  0.00    +0.164 C 
ATOM     34  C   UNL     1      31.351 -10.320 -20.813  0.00  0.00    +0.164 C 
ENDBRANCH  23  30
ENDBRANCH   3  25
TORSDOF 6
ENDMDL
MODEL 6
REMARK VINA RESULT:     -10.6      3.389     11.389
REMARK  Name = 5326869
REMARK  6 active torsions:
REMARK  status: ('A' for Active; 'I' for Inactive)
REMARK    1  A    between atoms: N_2  and  C_11
REMARK    2  A    between atoms: C_3  and  C_25
REMARK    3  A    between atoms: N_5  and  C_14
REMARK    4  A    between atoms: C_14  and  C_15
REMARK    5  A    between atoms: C_15  and  C_17
REMARK    6  A    between atoms: C_23  and  N_30
REMARK                            x       y       z     vdW  Elec       q    Type
REMARK                         _______ _______ _______ _____ _____    ______ ____
ROOT
ATOM      1  O   UNL     1      34.758 -14.142 -20.482  0.00  0.00    -0.270 OA
ATOM      2  N   UNL     1      33.208 -13.733 -22.202  0.00  0.00    -0.280 N 
ATOM      3  C   UNL     1      34.172 -14.475 -21.506  0.00  0.00    +0.250 C 
ATOM      4  H   UNL     1      32.839 -14.157 -23.011  0.00  0.00    +0.155 HD
ENDROOT
BRANCH   2  11
ATOM      5  N   UNL     1      33.048  -8.835 -22.632  0.00  0.00    -0.286 N 
ATOM      6  C   UNL     1      32.718 -10.093 -22.181  0.00  0.00    +0.053 C 
ATOM      7  C   UNL     1      31.687  -9.940 -21.252  0.00  0.00    +0.015 C 
ATOM      8  C   UNL     1      32.263  -7.894 -22.021  0.00  0.00    +0.065 C 
ATOM      9  C   UNL     1      33.250 -11.343 -22.521  0.00  0.00    +0.029 C 
ATOM     10  C   UNL     1      31.410  -8.547 -21.162  0.00  0.00    +0.017 C 
ATOM     11  C   UNL     1      32.709 -12.468 -21.891  0.00  0.00    +0.052 C 
ATOM     12  C   UNL     1      31.157 -11.089 -20.632  0.00  0.00    +0.003 C 
ATOM     13  C   UNL     1      31.679 -12.345 -20.961  0.00  0.00    +0.015 C 
BRANCH   5  14
ATOM     14  C   UNL     1      34.072  -8.533 -23.609  0.00  0.00    +0.100 C 
BRANCH  14  15
ATOM     15  C   UNL     1      34.851  -7.251 -23.301  0.00  0.00    +0.048 C 
BRANCH  15  17
ATOM     16  N   UNL     1      34.153  -4.115 -26.136  0.00  0.00    -0.242 NA
ATOM     17  C   UNL     1      34.606  -6.146 -24.298  0.00  0.00    -0.017 C 
ATOM     18  C   UNL     1      35.527  -5.920 -25.303  0.00  0.00    +0.016 C 
ATOM     19  C   UNL     1      33.462  -5.377 -24.194  0.00  0.00    +0.016 C 
ATOM     20  C   UNL     1      35.256  -4.894 -26.195  0.00  0.00    +0.099 C 
ATOM     21  C   UNL     1      33.283  -4.376 -25.135  0.00  0.00    +0.099 C 
ENDBRANCH  15  17
ENDBRANCH  14  15
ENDBRANCH   5  14
ENDBRANCH   2  11
BRANCH   3  25
ATOM     22  F   UNL     1      34.739 -17.329 -25.368  0.00  0.00    -0.204 F 
ATOM     23  C   UNL     1      35.220 -18.057 -21.837  0.00  0.00    +0.050 C 
ATOM     24  C   UNL     1      34.892 -16.824 -21.273  0.00  0.00    +0.019 C 
ATOM     25  C   UNL     1      34.519 -15.790 -22.105  0.00  0.00    +0.057 C 
ATOM     26  C   UNL     1      35.168 -18.228 -23.219  0.00  0.00    +0.044 C 
ATOM     27  C   UNL     1      34.460 -15.932 -23.476  0.00  0.00    +0.034 C 
ATOM     28  C   UNL     1      34.788 -17.165 -24.040  0.00  0.00    +0.142 C 
BRANCH  23  30
ATOM     29  O   UNL     1      36.485 -21.376 -19.586  0.00  0.00    -0.350 OA
ATOM     30  N   UNL     1      35.601 -19.122 -21.014  0.00  0.00    -0.303 N 
ATOM     31  C   UNL     1      34.774 -20.333 -20.952  0.00  0.00    +0.123 C 
ATOM     32  C   UNL     1      37.035 -19.332 -20.771  0.00  0.00    +0.123 C 
ATOM     33  C   UNL     1      35.087 -21.106 -19.676  0.00  0.00    +0.164 C 
ATOM     34  C   UNL     1      37.228 -20.159 -19.505  0.00  0.00    +0.164 C 
ENDBRANCH  23  30
ENDBRANCH   3  25
TORSDOF 6
ENDMDL
MODEL 7
REMARK VINA RESULT:     -10.3      3.169      6.257
REMARK  Name = 5326869
REMARK  6 active torsions:
REMARK  status: ('A' for Active; 'I' for Inactive)
REMARK    1  A    between atoms: N_2  and  C_11
REMARK    2  A    between atoms: C_3  and  C_25
REMARK    3  A    between atoms: N_5  and  C_14
REMARK    4  A    between atoms: C_14  and  C_15
REMARK    5  A    between atoms: C_15  and  C_17
REMARK    6  A    between atoms: C_23  and  N_30
REMARK                            x       y       z     vdW  Elec       q    Type
REMARK                         _______ _______ _______ _____ _____    ______ ____
ROOT
ATOM      1  O   UNL     1      34.103  -7.414 -21.700  0.00  0.00    -0.270 OA
ATOM      2  N   UNL     1      31.832  -8.010 -21.574  0.00  0.00    -0.280 N 
ATOM      3  C   UNL     1      32.913  -7.167 -21.863  0.00  0.00    +0.250 C 
ATOM      4  H   UNL     1      30.938  -7.647 -21.769  0.00  0.00    +0.155 HD
ENDROOT
BRANCH   2  11
ATOM      5  N   UNL     1      32.380 -12.889 -21.897  0.00  0.00    -0.286 N 
ATOM      6  C   UNL     1      32.154 -11.660 -21.318  0.00  0.00    +0.053 C 
ATOM      7  C   UNL     1      31.936 -11.881 -19.957  0.00  0.00    +0.015 C 
ATOM      8  C   UNL     1      32.313 -13.876 -20.951  0.00  0.00    +0.065 C 
ATOM      9  C   UNL     1      32.126 -10.383 -21.891  0.00  0.00    +0.029 C 
ATOM     10  C   UNL     1      32.040 -13.283 -19.739  0.00  0.00    +0.017 C 
ATOM     11  C   UNL     1      31.868  -9.301 -21.045  0.00  0.00    +0.052 C 
ATOM     12  C   UNL     1      31.678 -10.774 -19.124  0.00  0.00    +0.003 C 
ATOM     13  C   UNL     1      31.647  -9.491 -19.682  0.00  0.00    +0.015 C 
BRANCH   5  14
ATOM     14  C   UNL     1      32.653 -13.121 -23.299  0.00  0.00    +0.100 C 
BRANCH  14  15
ATOM     15  C   UNL     1      34.099 -13.539 -23.580  0.00  0.00    +0.048 C 
BRANCH  15  17
ATOM     16  N   UNL     1      34.643 -17.787 -23.752  0.00  0.00    -0.242 NA
ATOM     17  C   UNL     1      34.289 -15.034 -23.640  0.00  0.00    -0.017 C 
ATOM     18  C   UNL     1      33.794 -15.741 -24.719  0.00  0.00    +0.016 C 
ATOM     19  C   UNL     1      34.959 -15.677 -22.615  0.00  0.00    +0.016 C 
ATOM     20  C   UNL     1      33.996 -17.112 -24.728  0.00  0.00    +0.099 C 
ATOM     21  C   UNL     1      35.108 -17.050 -22.718  0.00  0.00    +0.099 C 
ENDBRANCH  15  17
ENDBRANCH  14  15
ENDBRANCH   5  14
ENDBRANCH   2  11
BRANCH   3  25
ATOM     22  F   UNL     1      31.115  -2.722 -21.237  0.00  0.00    -0.204 F 
ATOM     23  C   UNL     1      32.448  -4.301 -24.231  0.00  0.00    +0.050 C 
ATOM     24  C   UNL     1      32.787  -5.558 -23.730  0.00  0.00    +0.019 C 
ATOM     25  C   UNL     1      32.552  -5.829 -22.398  0.00  0.00    +0.057 C 
ATOM     26  C   UNL     1      31.884  -3.343 -23.389  0.00  0.00    +0.044 C 
ATOM     27  C   UNL     1      31.995  -4.899 -21.544  0.00  0.00    +0.034 C 
ATOM     28  C   UNL     1      31.656  -3.642 -22.046  0.00  0.00    +0.142 C 
BRANCH  23  30
ATOM     29  O   UNL     1      33.380  -3.298 -28.207  0.00  0.00    -0.350 OA
ATOM     30  N   UNL     1      32.676  -4.001 -25.578  0.00  0.00    -0.303 N 
ATOM     31  C   UNL     1      32.392  -2.654 -26.087  0.00  0.00    +0.123 C 
ATOM     32  C   UNL     1      33.751  -4.719 -26.276  0.00  0.00    +0.123 C 
ATOM     33  C   UNL     1      32.234  -2.699 -27.603  0.00  0.00    +0.164 C 
ATOM     34  C   UNL     1      33.521  -4.654 -27.782  0.00  0.00    +0.164 C 
ENDBRANCH  23  30
ENDBRANCH   3  25
TORSDOF 6
ENDMDL
MODEL 8
REMARK VINA RESULT:     -10.2      3.507     11.269
REMARK  Name = 5326869
REMARK  6 active torsions:
REMARK  status: ('A' for Active; 'I' for Inactive)
REMARK    1  A    between atoms: N_2  and  C_11
REMARK    2  A    between atoms: C_3  and  C_25
REMARK    3  A    between atoms: N_5  and  C_14
REMARK    4  A    between atoms: C_14  and  C_15
REMARK    5  A    between atoms: C_15  and  C_17
REMARK    6  A    between atoms: C_23  and  N_30
REMARK                            x       y       z     vdW  Elec       q    Type
REMARK                         _______ _______ _______ _____ _____    ______ ____
ROOT
ATOM      1  O   UNL     1      32.550 -12.507 -21.390  0.00  0.00    -0.270 OA
ATOM      2  N   UNL     1      32.860 -10.962 -23.135  0.00  0.00    -0.280 N 
ATOM      3  C   UNL     1      32.835 -12.236 -22.551  0.00  0.00    +0.250 C 
ATOM      4  H   UNL     1      33.113 -10.928 -24.086  0.00  0.00    +0.155 HD
ENDROOT
BRANCH   2  11
ATOM      5  N   UNL     1      32.566  -6.051 -23.069  0.00  0.00    -0.286 N 
ATOM      6  C   UNL     1      32.469  -7.347 -22.614  0.00  0.00    +0.053 C 
ATOM      7  C   UNL     1      31.981  -7.288 -21.308  0.00  0.00    +0.015 C 
ATOM      8  C   UNL     1      32.157  -5.178 -22.097  0.00  0.00    +0.065 C 
ATOM      9  C   UNL     1      32.773  -8.554 -23.254  0.00  0.00    +0.029 C 
ATOM     10  C   UNL     1      31.788  -5.914 -20.995  0.00  0.00    +0.017 C 
ATOM     11  C   UNL     1      32.571  -9.736 -22.535  0.00  0.00    +0.052 C 
ATOM     12  C   UNL     1      31.785  -8.493 -20.603  0.00  0.00    +0.003 C 
ATOM     13  C   UNL     1      32.084  -9.708 -21.229  0.00  0.00    +0.015 C 
BRANCH   5  14
ATOM     14  C   UNL     1      33.030  -5.653 -24.381  0.00  0.00    +0.100 C 
BRANCH  14  15
ATOM     15  C   UNL     1      34.548  -5.766 -24.553  0.00  0.00    +0.048 C 
BRANCH  15  17
ATOM     16  N   UNL     1      35.787  -5.926 -28.652  0.00  0.00    -0.242 NA
ATOM     17  C   UNL     1      34.985  -5.823 -25.995  0.00  0.00    -0.017 C 
ATOM     18  C   UNL     1      34.237  -6.546 -26.905  0.00  0.00    +0.016 C 
ATOM     19  C   UNL     1      36.127  -5.150 -26.388  0.00  0.00    +0.016 C 
ATOM     20  C   UNL     1      34.679  -6.566 -28.218  0.00  0.00    +0.099 C 
ATOM     21  C   UNL     1      36.484  -5.233 -27.724  0.00  0.00    +0.099 C 
ENDBRANCH  15  17
ENDBRANCH  14  15
ENDBRANCH   5  14
ENDBRANCH   2  11
BRANCH   3  25
ATOM     22  F   UNL     1      33.453 -14.063 -26.985  0.00  0.00    -0.204 F 
ATOM     23  C   UNL     1      34.010 -15.592 -23.731  0.00  0.00    +0.050 C 
ATOM     24  C   UNL     1      33.645 -14.542 -22.888  0.00  0.00    +0.019 C 
ATOM     25  C   UNL     1      33.222 -13.355 -23.448  0.00  0.00    +0.057 C 
ATOM     26  C   UNL     1      33.945 -15.430 -25.114  0.00  0.00    +0.044 C 
ATOM     27  C   UNL     1      33.149 -13.169 -24.814  0.00  0.00    +0.034 C 
ATOM     28  C   UNL     1      33.514 -14.219 -25.657  0.00  0.00    +0.142 C 
BRANCH  23  30
ATOM     29  O   UNL     1      35.564 -19.181 -22.185  0.00  0.00    -0.350 OA
ATOM     30  N   UNL     1      34.442 -16.806 -23.188  0.00  0.00    -0.303 N 
ATOM     31  C   UNL     1      34.557 -17.992 -24.045  0.00  0.00    +0.123 C 
ATOM     32  C   UNL     1      35.368 -16.766 -22.048  0.00  0.00    +0.123 C 
ATOM     33  C   UNL     1      34.549 -19.252 -23.186  0.00  0.00    +0.164 C 
ATOM     34  C   UNL     1      35.316 -18.091 -21.295  0.00  0.00    +0.164 C 
ENDBRANCH  23  30
ENDBRANCH   3  25
TORSDOF 6
ENDMDL
MODEL 9
REMARK VINA RESULT:     -10.1      6.325     10.800
REMARK  Name = 5326869
REMARK  6 active torsions:
REMARK  status: ('A' for Active; 'I' for Inactive)
REMARK    1  A    between atoms: N_2  and  C_11
REMARK    2  A    between atoms: C_3  and  C_25
REMARK    3  A    between atoms: N_5  and  C_14
REMARK    4  A    between atoms: C_14  and  C_15
REMARK    5  A    between atoms: C_15  and  C_17
REMARK    6  A    between atoms: C_23  and  N_30
REMARK                            x       y       z     vdW  Elec       q    Type
REMARK                         _______ _______ _______ _____ _____    ______ ____
ROOT
ATOM      1  O   UNL     1      32.322 -22.116 -19.756  0.00  0.00    -0.270 OA
ATOM      2  N   UNL     1      33.601 -22.064 -17.784  0.00  0.00    -0.280 N 
ATOM      3  C   UNL     1      33.319 -21.780 -19.127  0.00  0.00    +0.250 C 
ATOM      4  H   UNL     1      34.454 -21.715 -17.439  0.00  0.00    +0.155 HD
ENDROOT
BRANCH   2  11
ATOM      5  N   UNL     1      32.941 -24.826 -13.767  0.00  0.00    -0.286 N 
ATOM      6  C   UNL     1      32.618 -24.120 -14.904  0.00  0.00    +0.053 C 
ATOM      7  C   UNL     1      31.235 -24.216 -15.068  0.00  0.00    +0.015 C 
ATOM      8  C   UNL     1      31.812 -25.363 -13.208  0.00  0.00    +0.065 C 
ATOM      9  C   UNL     1      33.437 -23.412 -15.790  0.00  0.00    +0.029 C 
ATOM     10  C   UNL     1      30.740 -25.003 -13.991  0.00  0.00    +0.017 C 
ATOM     11  C   UNL     1      32.822 -22.783 -16.877  0.00  0.00    +0.052 C 
ATOM     12  C   UNL     1      30.637 -23.573 -16.170  0.00  0.00    +0.003 C 
ATOM     13  C   UNL     1      31.443 -22.861 -17.065  0.00  0.00    +0.015 C 
BRANCH   5  14
ATOM     14  C   UNL     1      34.274 -24.986 -13.226  0.00  0.00    +0.100 C 
BRANCH  14  15
ATOM     15  C   UNL     1      35.260 -25.623 -14.210  0.00  0.00    +0.048 C 
BRANCH  15  17
ATOM     16  N   UNL     1      39.362 -25.100 -13.085  0.00  0.00    -0.242 NA
ATOM     17  C   UNL     1      36.704 -25.440 -13.814  0.00  0.00    -0.017 C 
ATOM     18  C   UNL     1      37.701 -25.973 -14.608  0.00  0.00    +0.016 C 
ATOM     19  C   UNL     1      37.010 -24.739 -12.662  0.00  0.00    +0.016 C 
ATOM     20  C   UNL     1      39.011 -25.777 -14.201  0.00  0.00    +0.099 C 
ATOM     21  C   UNL     1      38.351 -24.598 -12.342  0.00  0.00    +0.099 C 
ENDBRANCH  15  17
ENDBRANCH  14  15
ENDBRANCH   5  14
ENDBRANCH   2  11
BRANCH   3  25
ATOM     22  F   UNL     1      37.942 -20.498 -19.733  0.00  0.00    -0.204 F 
ATOM     23  C   UNL     1      34.978 -19.490 -21.586  0.00  0.00    +0.050 C 
ATOM     24  C   UNL     1      33.994 -20.211 -20.908  0.00  0.00    +0.019 C 
ATOM     25  C   UNL     1      34.366 -21.011 -19.848  0.00  0.00    +0.057 C 
ATOM     26  C   UNL     1      36.310 -19.587 -21.189  0.00  0.00    +0.044 C 
ATOM     27  C   UNL     1      35.678 -21.124 -19.436  0.00  0.00    +0.034 C 
ATOM     28  C   UNL     1      36.661 -20.404 -20.114  0.00  0.00    +0.142 C 
BRANCH  23  30
ATOM     29  O   UNL     1      34.142 -17.127 -24.962  0.00  0.00    -0.350 OA
ATOM     30  N   UNL     1      34.626 -18.672 -22.664  0.00  0.00    -0.303 N 
ATOM     31  C   UNL     1      35.254 -17.354 -22.818  0.00  0.00    +0.123 C 
ATOM     32  C   UNL     1      34.208 -19.315 -23.917  0.00  0.00    +0.123 C 
ATOM     33  C   UNL     1      34.392 -16.475 -23.718  0.00  0.00    +0.164 C 
ATOM     34  C   UNL     1      33.402 -18.332 -24.758  0.00  0.00    +0.164 C 
ENDBRANCH  23  30
ENDBRANCH   3  25
TORSDOF 6
ENDMDL
