MODEL 1
REMARK VINA RESULT:     -11.9      0.000      0.000
REMARK  Name = 60795
REMARK  7 active torsions:
REMARK  status: ('A' for Active; 'I' for Inactive)
REMARK    1  A    between atoms: C_1  and  N_2
REMARK    2  A    between atoms: C_1  and  C_17
REMARK    3  A    between atoms: N_3  and  C_11
REMARK    4  A    between atoms: C_17  and  C_18
REMARK    5  A    between atoms: C_18  and  C_19
REMARK    6  A    between atoms: C_19  and  O_20
REMARK    7  A    between atoms: O_20  and  C_26
REMARK                            x       y       z     vdW  Elec       q    Type
REMARK                         _______ _______ _______ _____ _____    ______ ____
ROOT
ATOM      1  C   UNL     1      34.769 -17.489 -24.171  0.00  0.00    -0.077 C 
ENDROOT
BRANCH   1   2
ATOM      2  N   UNL     1      34.639 -16.045 -23.983  0.00  0.00    +0.389 N 
ATOM      3  N   UNL     1      33.403 -13.634 -23.077  0.00  0.00    -0.311 N 
ATOM      4  C   UNL     1      33.418 -15.549 -24.628  0.00  0.00    -0.055 C 
ATOM      5  C   UNL     1      34.619 -15.712 -22.553  0.00  0.00    -0.055 C 
ATOM      6  C   UNL     1      33.300 -14.030 -24.488  0.00  0.00    +0.068 C 
ATOM      7  C   UNL     1      34.540 -14.197 -22.342  0.00  0.00    +0.068 C 
ATOM      8  H   UNL     1      35.446 -15.595 -24.414  0.00  0.00    -0.080 HD
BRANCH   3  11
ATOM      9 CL   UNL     1      31.948 -13.551 -20.444  0.00  0.00    -0.080 Cl
ATOM     10 CL   UNL     1      30.798 -10.650 -19.693  0.00  0.00    -0.081 Cl
ATOM     11  C   UNL     1      32.884 -12.390 -22.703  0.00  0.00    +0.059 C 
ATOM     12  C   UNL     1      32.175 -12.191 -21.499  0.00  0.00    +0.081 C 
ATOM     13  C   UNL     1      33.065 -11.277 -23.551  0.00  0.00    +0.015 C 
ATOM     14  C   UNL     1      31.670 -10.935 -21.159  0.00  0.00    +0.069 C 
ATOM     15  C   UNL     1      32.561 -10.022 -23.211  0.00  0.00    +0.002 C 
ATOM     16  C   UNL     1      31.863  -9.851 -22.015  0.00  0.00    +0.012 C 
ENDBRANCH   3  11
ENDBRANCH   1   2
BRANCH   1  17
ATOM     17  C   UNL     1      35.283 -18.148 -22.893  0.00  0.00    -0.019 C 
BRANCH  17  18
ATOM     18  C   UNL     1      34.615 -19.503 -22.661  0.00  0.00    +0.045 C 
BRANCH  18  19
ATOM     19  C   UNL     1      34.435 -19.794 -21.177  0.00  0.00    +0.205 C 
BRANCH  19  20
ATOM     20  O   UNL     1      35.460 -20.679 -20.730  0.00  0.00    -0.475 OA
BRANCH  20  26
ATOM     21  O   UNL     1      37.840 -23.404 -14.617  0.00  0.00    -0.275 OA
ATOM     22  N   UNL     1      37.069 -22.573 -16.615  0.00  0.00    -0.284 N 
ATOM     23  C   UNL     1      34.727 -22.805 -17.230  0.00  0.00    -0.008 C 
ATOM     24  C   UNL     1      34.511 -23.659 -16.014  0.00  0.00    +0.037 C 
ATOM     25  C   UNL     1      36.013 -22.323 -17.510  0.00  0.00    +0.049 C 
ATOM     26  C   UNL     1      35.223 -21.375 -19.584  0.00  0.00    +0.140 C 
ATOM     27  C   UNL     1      35.461 -23.260 -14.895  0.00  0.00    +0.090 C 
ATOM     28  C   UNL     1      36.264 -21.618 -18.689  0.00  0.00    +0.051 C 
ATOM     29  C   UNL     1      33.693 -22.568 -18.141  0.00  0.00    +0.000 C 
ATOM     30  C   UNL     1      33.939 -21.846 -19.310  0.00  0.00    +0.037 C 
ATOM     31  C   UNL     1      36.899 -23.125 -15.360  0.00  0.00    +0.226 C 
ATOM     32  H   UNL     1      37.983 -22.341 -16.900  0.00  0.00    +0.155 HD
ENDBRANCH  20  26
ENDBRANCH  19  20
ENDBRANCH  18  19
ENDBRANCH  17  18
ENDBRANCH   1  17
TORSDOF 7
ENDMDL
MODEL 2
REMARK VINA RESULT:     -11.8      4.295     11.187
REMARK  Name = 60795
REMARK  7 active torsions:
REMARK  status: ('A' for Active; 'I' for Inactive)
REMARK    1  A    between atoms: C_1  and  N_2
REMARK    2  A    between atoms: C_1  and  C_17
REMARK    3  A    between atoms: N_3  and  C_11
REMARK    4  A    between atoms: C_17  and  C_18
REMARK    5  A    between atoms: C_18  and  C_19
REMARK    6  A    between atoms: C_19  and  O_20
REMARK    7  A    between atoms: O_20  and  C_26
REMARK                            x       y       z     vdW  Elec       q    Type
REMARK                         _______ _______ _______ _____ _____    ______ ____
ROOT
ATOM      1  C   UNL     1      34.338 -16.201 -24.495  0.00  0.00    -0.077 C 
ENDROOT
BRANCH   1   2
ATOM      2  N   UNL     1      34.940 -17.255 -23.679  0.00  0.00    +0.389 N 
ATOM      3  N   UNL     1      35.024 -19.222 -21.609  0.00  0.00    -0.311 N 
ATOM      4  C   UNL     1      34.992 -16.848 -22.269  0.00  0.00    -0.055 C 
ATOM      5  C   UNL     1      34.180 -18.505 -23.810  0.00  0.00    -0.055 C 
ATOM      6  C   UNL     1      35.671 -17.919 -21.413  0.00  0.00    +0.068 C 
ATOM      7  C   UNL     1      34.831 -19.632 -23.003  0.00  0.00    +0.068 C 
ATOM      8  H   UNL     1      35.890 -17.412 -24.012  0.00  0.00    -0.080 HD
BRANCH   3  11
ATOM      9 CL   UNL     1      32.494 -20.398 -20.478  0.00  0.00    -0.080 Cl
ATOM     10 CL   UNL     1      32.998 -22.614 -18.211  0.00  0.00    -0.081 Cl
ATOM     11  C   UNL     1      35.190 -20.195 -20.617  0.00  0.00    +0.059 C 
ATOM     12  C   UNL     1      34.101 -20.838 -19.990  0.00  0.00    +0.081 C 
ATOM     13  C   UNL     1      36.491 -20.562 -20.214  0.00  0.00    +0.015 C 
ATOM     14  C   UNL     1      34.305 -21.803 -19.003  0.00  0.00    +0.069 C 
ATOM     15  C   UNL     1      36.695 -21.528 -19.228  0.00  0.00    +0.002 C 
ATOM     16  C   UNL     1      35.602 -22.148 -18.623  0.00  0.00    +0.012 C 
ENDBRANCH   3  11
ENDBRANCH   1   2
BRANCH   1  17
ATOM     17  C   UNL     1      34.479 -14.848 -23.801  0.00  0.00    -0.019 C 
BRANCH  17  18
ATOM     18  C   UNL     1      33.125 -14.151 -23.669  0.00  0.00    +0.045 C 
BRANCH  18  19
ATOM     19  C   UNL     1      32.901 -13.618 -22.260  0.00  0.00    +0.205 C 
BRANCH  19  20
ATOM     20  O   UNL     1      31.710 -12.835 -22.222  0.00  0.00    -0.475 OA
BRANCH  20  26
ATOM     21  O   UNL     1      33.390  -5.970 -22.931  0.00  0.00    -0.275 OA
ATOM     22  N   UNL     1      32.892  -8.197 -22.672  0.00  0.00    -0.284 N 
ATOM     23  C   UNL     1      31.996  -9.028 -20.569  0.00  0.00    -0.008 C 
ATOM     24  C   UNL     1      32.208  -7.671 -19.963  0.00  0.00    +0.037 C 
ATOM     25  C   UNL     1      32.384  -9.255 -21.897  0.00  0.00    +0.049 C 
ATOM     26  C   UNL     1      31.805 -11.588 -21.683  0.00  0.00    +0.140 C 
ATOM     27  C   UNL     1      32.080  -6.580 -21.016  0.00  0.00    +0.090 C 
ATOM     28  C   UNL     1      32.299 -10.535 -22.451  0.00  0.00    +0.051 C 
ATOM     29  C   UNL     1      31.515 -10.095 -19.804  0.00  0.00    +0.000 C 
ATOM     30  C   UNL     1      31.411 -11.370 -20.364  0.00  0.00    +0.037 C 
ATOM     31  C   UNL     1      32.877  -6.875 -22.273  0.00  0.00    +0.226 C 
ATOM     32  H   UNL     1      33.280  -8.412 -23.552  0.00  0.00    +0.155 HD
ENDBRANCH  20  26
ENDBRANCH  19  20
ENDBRANCH  18  19
ENDBRANCH  17  18
ENDBRANCH   1  17
TORSDOF 7
ENDMDL
MODEL 3
REMARK VINA RESULT:     -11.7      3.236      6.093
REMARK  Name = 60795
REMARK  7 active torsions:
REMARK  status: ('A' for Active; 'I' for Inactive)
REMARK    1  A    between atoms: C_1  and  N_2
REMARK    2  A    between atoms: C_1  and  C_17
REMARK    3  A    between atoms: N_3  and  C_11
REMARK    4  A    between atoms: C_17  and  C_18
REMARK    5  A    between atoms: C_18  and  C_19
REMARK    6  A    between atoms: C_19  and  O_20
REMARK    7  A    between atoms: O_20  and  C_26
REMARK                            x       y       z     vdW  Elec       q    Type
REMARK                         _______ _______ _______ _____ _____    ______ ____
ROOT
ATOM      1  C   UNL     1      35.764 -21.881 -18.701  0.00  0.00    -0.077 C 
ENDROOT
BRANCH   1   2
ATOM      2  N   UNL     1      35.694 -21.087 -19.927  0.00  0.00    +0.389 N 
ATOM      3  N   UNL     1      35.193 -18.755 -21.499  0.00  0.00    -0.311 N 
ATOM      4  C   UNL     1      34.318 -20.638 -20.172  0.00  0.00    -0.055 C 
ATOM      5  C   UNL     1      36.590 -19.928 -19.842  0.00  0.00    -0.055 C 
ATOM      6  C   UNL     1      34.220 -19.855 -21.483  0.00  0.00    +0.068 C 
ATOM      7  C   UNL     1      36.568 -19.118 -21.142  0.00  0.00    +0.068 C 
ATOM      8  H   UNL     1      35.992 -21.676 -20.704  0.00  0.00    -0.080 HD
BRANCH   3  11
ATOM      9 CL   UNL     1      34.871 -16.051 -20.215  0.00  0.00    -0.080 Cl
ATOM     10 CL   UNL     1      34.344 -13.679 -22.313  0.00  0.00    -0.081 Cl
ATOM     11  C   UNL     1      34.963 -17.686 -22.372  0.00  0.00    +0.059 C 
ATOM     12  C   UNL     1      34.790 -16.359 -21.922  0.00  0.00    +0.081 C 
ATOM     13  C   UNL     1      34.896 -17.924 -23.760  0.00  0.00    +0.015 C 
ATOM     14  C   UNL     1      34.560 -15.317 -22.823  0.00  0.00    +0.069 C 
ATOM     15  C   UNL     1      34.668 -16.883 -24.660  0.00  0.00    +0.002 C 
ATOM     16  C   UNL     1      34.500 -15.580 -24.191  0.00  0.00    +0.012 C 
ENDBRANCH   3  11
ENDBRANCH   1   2
BRANCH   1  17
ATOM     17  C   UNL     1      36.918 -21.401 -17.823  0.00  0.00    -0.019 C 
BRANCH  17  18
ATOM     18  C   UNL     1      37.219 -22.402 -16.709  0.00  0.00    +0.045 C 
BRANCH  18  19
ATOM     19  C   UNL     1      36.044 -22.551 -15.752  0.00  0.00    +0.205 C 
BRANCH  19  20
ATOM     20  O   UNL     1      35.370 -23.782 -16.002  0.00  0.00    -0.475 OA
BRANCH  20  26
ATOM     21  O   UNL     1      28.403 -22.693 -16.859  0.00  0.00    -0.275 OA
ATOM     22  N   UNL     1      30.657 -23.005 -16.546  0.00  0.00    -0.284 N 
ATOM     23  C   UNL     1      31.483 -24.142 -14.561  0.00  0.00    -0.008 C 
ATOM     24  C   UNL     1      30.085 -24.165 -14.014  0.00  0.00    +0.037 C 
ATOM     25  C   UNL     1      31.727 -23.525 -15.795  0.00  0.00    +0.049 C 
ATOM     26  C   UNL     1      34.097 -23.899 -15.532  0.00  0.00    +0.140 C 
ATOM     27  C   UNL     1      29.064 -24.228 -15.139  0.00  0.00    +0.090 C 
ATOM     28  C   UNL     1      33.032 -23.393 -16.277  0.00  0.00    +0.051 C 
ATOM     29  C   UNL     1      32.560 -24.633 -13.816  0.00  0.00    +0.000 C 
ATOM     30  C   UNL     1      33.863 -24.520 -14.306  0.00  0.00    +0.037 C 
ATOM     31  C   UNL     1      29.328 -23.214 -16.235  0.00  0.00    +0.226 C 
ATOM     32  H   UNL     1      30.869 -22.461 -17.339  0.00  0.00    +0.155 HD
ENDBRANCH  20  26
ENDBRANCH  19  20
ENDBRANCH  18  19
ENDBRANCH  17  18
ENDBRANCH   1  17
TORSDOF 7
ENDMDL
MODEL 4
REMARK VINA RESULT:     -11.6      2.813      3.594
REMARK  Name = 60795
REMARK  7 active torsions:
REMARK  status: ('A' for Active; 'I' for Inactive)
REMARK    1  A    between atoms: C_1  and  N_2
REMARK    2  A    between atoms: C_1  and  C_17
REMARK    3  A    between atoms: N_3  and  C_11
REMARK    4  A    between atoms: C_17  and  C_18
REMARK    5  A    between atoms: C_18  and  C_19
REMARK    6  A    between atoms: C_19  and  O_20
REMARK    7  A    between atoms: O_20  and  C_26
REMARK                            x       y       z     vdW  Elec       q    Type
REMARK                         _______ _______ _______ _____ _____    ______ ____
ROOT
ATOM      1  C   UNL     1      35.736 -19.062 -21.929  0.00  0.00    -0.077 C 
ENDROOT
BRANCH   1   2
ATOM      2  N   UNL     1      35.603 -17.614 -22.085  0.00  0.00    +0.389 N 
ATOM      3  N   UNL     1      34.206 -15.131 -22.295  0.00  0.00    -0.311 N 
ATOM      4  C   UNL     1      34.834 -17.294 -23.294  0.00  0.00    -0.055 C 
ATOM      5  C   UNL     1      34.951 -17.027 -20.908  0.00  0.00    -0.055 C 
ATOM      6  C   UNL     1      34.737 -15.782 -23.499  0.00  0.00    +0.068 C 
ATOM      7  C   UNL     1      34.856 -15.504 -21.034  0.00  0.00    +0.068 C 
ATOM      8  H   UNL     1      36.538 -17.217 -22.175  0.00  0.00    -0.080 HD
BRANCH   3  11
ATOM      9 CL   UNL     1      32.171 -14.375 -20.209  0.00  0.00    -0.080 Cl
ATOM     10 CL   UNL     1      30.922 -11.447 -20.625  0.00  0.00    -0.081 Cl
ATOM     11  C   UNL     1      33.633 -13.862 -22.430  0.00  0.00    +0.059 C 
ATOM     12  C   UNL     1      32.662 -13.364 -21.533  0.00  0.00    +0.081 C 
ATOM     13  C   UNL     1      34.026 -13.032 -23.500  0.00  0.00    +0.015 C 
ATOM     14  C   UNL     1      32.111 -12.093 -21.701  0.00  0.00    +0.069 C 
ATOM     15  C   UNL     1      33.475 -11.762 -23.667  0.00  0.00    +0.002 C 
ATOM     16  C   UNL     1      32.518 -11.292 -22.768  0.00  0.00    +0.012 C 
ENDBRANCH   3  11
ENDBRANCH   1   2
BRANCH   1  17
ATOM     17  C   UNL     1      34.788 -19.568 -20.844  0.00  0.00    -0.019 C 
BRANCH  17  18
ATOM     18  C   UNL     1      35.331 -20.834 -20.182  0.00  0.00    +0.045 C 
BRANCH  18  19
ATOM     19  C   UNL     1      34.229 -21.620 -19.483  0.00  0.00    +0.205 C 
BRANCH  19  20
ATOM     20  O   UNL     1      34.804 -22.540 -18.557  0.00  0.00    -0.475 OA
BRANCH  20  26
ATOM     21  O   UNL     1      28.443 -23.361 -15.505  0.00  0.00    -0.275 OA
ATOM     22  N   UNL     1      30.506 -23.049 -16.463  0.00  0.00    -0.284 N 
ATOM     23  C   UNL     1      32.536 -23.538 -15.215  0.00  0.00    -0.008 C 
ATOM     24  C   UNL     1      31.702 -23.791 -13.992  0.00  0.00    +0.037 C 
ATOM     25  C   UNL     1      31.909 -23.136 -16.402  0.00  0.00    +0.049 C 
ATOM     26  C   UNL     1      34.060 -22.866 -17.465  0.00  0.00    +0.140 C 
ATOM     27  C   UNL     1      30.328 -24.320 -14.373  0.00  0.00    +0.090 C 
ATOM     28  C   UNL     1      32.668 -22.790 -17.523  0.00  0.00    +0.051 C 
ATOM     29  C   UNL     1      33.932 -23.597 -15.164  0.00  0.00    +0.000 C 
ATOM     30  C   UNL     1      34.691 -23.271 -16.289  0.00  0.00    +0.037 C 
ATOM     31  C   UNL     1      29.664 -23.508 -15.470  0.00  0.00    +0.226 C 
ATOM     32  H   UNL     1      30.102 -22.637 -17.261  0.00  0.00    +0.155 HD
ENDBRANCH  20  26
ENDBRANCH  19  20
ENDBRANCH  18  19
ENDBRANCH  17  18
ENDBRANCH   1  17
TORSDOF 7
ENDMDL
MODEL 5
REMARK VINA RESULT:     -11.4      1.813      2.196
REMARK  Name = 60795
REMARK  7 active torsions:
REMARK  status: ('A' for Active; 'I' for Inactive)
REMARK    1  A    between atoms: C_1  and  N_2
REMARK    2  A    between atoms: C_1  and  C_17
REMARK    3  A    between atoms: N_3  and  C_11
REMARK    4  A    between atoms: C_17  and  C_18
REMARK    5  A    between atoms: C_18  and  C_19
REMARK    6  A    between atoms: C_19  and  O_20
REMARK    7  A    between atoms: O_20  and  C_26
REMARK                            x       y       z     vdW  Elec       q    Type
REMARK                         _______ _______ _______ _____ _____    ______ ____
ROOT
ATOM      1  C   UNL     1      34.437 -16.704 -24.499  0.00  0.00    -0.077 C 
ENDROOT
BRANCH   1   2
ATOM      2  N   UNL     1      34.350 -15.290 -24.138  0.00  0.00    +0.389 N 
ATOM      3  N   UNL     1      33.177 -12.967 -22.958  0.00  0.00    -0.311 N 
ATOM      4  C   UNL     1      33.153 -14.680 -24.730  0.00  0.00    -0.055 C 
ATOM      5  C   UNL     1      34.321 -15.131 -22.679  0.00  0.00    -0.055 C 
ATOM      6  C   UNL     1      33.079 -13.187 -24.407  0.00  0.00    +0.068 C 
ATOM      7  C   UNL     1      34.286 -13.651 -22.286  0.00  0.00    +0.068 C 
ATOM      8  H   UNL     1      35.175 -14.816 -24.504  0.00  0.00    -0.080 HD
BRANCH   3  11
ATOM      9 CL   UNL     1      32.062 -13.085 -20.165  0.00  0.00    -0.080 Cl
ATOM     10 CL   UNL     1      30.974 -10.264 -19.087  0.00  0.00    -0.081 Cl
ATOM     11  C   UNL     1      32.691 -11.761 -22.441  0.00  0.00    +0.059 C 
ATOM     12  C   UNL     1      32.136 -11.655 -21.147  0.00  0.00    +0.081 C 
ATOM     13  C   UNL     1      32.748 -10.593 -23.229  0.00  0.00    +0.015 C 
ATOM     14  C   UNL     1      31.659 -10.435 -20.665  0.00  0.00    +0.069 C 
ATOM     15  C   UNL     1      32.273  -9.374 -22.747  0.00  0.00    +0.002 C 
ATOM     16  C   UNL     1      31.729  -9.295 -21.465  0.00  0.00    +0.012 C 
ENDBRANCH   3  11
ENDBRANCH   1   2
BRANCH   1  17
ATOM     17  C   UNL     1      35.108 -17.497 -23.379  0.00  0.00    -0.019 C 
BRANCH  17  18
ATOM     18  C   UNL     1      34.704 -18.970 -23.425  0.00  0.00    +0.045 C 
BRANCH  18  19
ATOM     19  C   UNL     1      35.117 -19.707 -22.158  0.00  0.00    +0.205 C 
BRANCH  19  20
ATOM     20  O   UNL     1      33.957 -20.159 -21.463  0.00  0.00    -0.475 OA
BRANCH  20  26
ATOM     21  O   UNL     1      31.302 -23.735 -15.929  0.00  0.00    -0.275 OA
ATOM     22  N   UNL     1      32.173 -22.538 -17.685  0.00  0.00    -0.284 N 
ATOM     23  C   UNL     1      34.580 -22.367 -17.991  0.00  0.00    -0.008 C 
ATOM     24  C   UNL     1      34.779 -23.074 -16.682  0.00  0.00    +0.037 C 
ATOM     25  C   UNL     1      33.278 -22.088 -18.429  0.00  0.00    +0.049 C 
ATOM     26  C   UNL     1      34.159 -20.882 -20.326  0.00  0.00    +0.140 C 
ATOM     27  C   UNL     1      33.634 -24.036 -16.405  0.00  0.00    +0.090 C 
ATOM     28  C   UNL     1      33.066 -21.338 -19.589  0.00  0.00    +0.051 C 
ATOM     29  C   UNL     1      35.668 -21.893 -18.731  0.00  0.00    +0.000 C 
ATOM     30  C   UNL     1      35.457 -21.161 -19.900  0.00  0.00    +0.037 C 
ATOM     31  C   UNL     1      32.269 -23.407 -16.616  0.00  0.00    +0.226 C 
ATOM     32  H   UNL     1      31.279 -22.214 -17.941  0.00  0.00    +0.155 HD
ENDBRANCH  20  26
ENDBRANCH  19  20
ENDBRANCH  18  19
ENDBRANCH  17  18
ENDBRANCH   1  17
TORSDOF 7
ENDMDL
MODEL 6
REMARK VINA RESULT:     -11.4      4.439     11.768
REMARK  Name = 60795
REMARK  7 active torsions:
REMARK  status: ('A' for Active; 'I' for Inactive)
REMARK    1  A    between atoms: C_1  and  N_2
REMARK    2  A    between atoms: C_1  and  C_17
REMARK    3  A    between atoms: N_3  and  C_11
REMARK    4  A    between atoms: C_17  and  C_18
REMARK    5  A    between atoms: C_18  and  C_19
REMARK    6  A    between atoms: C_19  and  O_20
REMARK    7  A    between atoms: O_20  and  C_26
REMARK                            x       y       z     vdW  Elec       q    Type
REMARK                         _______ _______ _______ _____ _____    ______ ____
ROOT
ATOM      1  C   UNL     1      34.530 -16.036 -24.361  0.00  0.00    -0.077 C 
ENDROOT
BRANCH   1   2
ATOM      2  N   UNL     1      35.079 -17.131 -23.562  0.00  0.00    +0.389 N 
ATOM      3  N   UNL     1      35.049 -19.167 -21.558  0.00  0.00    -0.311 N 
ATOM      4  C   UNL     1      35.095 -16.772 -22.138  0.00  0.00    -0.055 C 
ATOM      5  C   UNL     1      34.296 -18.356 -23.760  0.00  0.00    -0.055 C 
ATOM      6  C   UNL     1      35.720 -17.887 -21.297  0.00  0.00    +0.068 C 
ATOM      7  C   UNL     1      34.894 -19.525 -22.971  0.00  0.00    +0.068 C 
ATOM      8  H   UNL     1      36.037 -17.300 -23.869  0.00  0.00    -0.080 HD
BRANCH   3  11
ATOM      9 CL   UNL     1      32.456 -20.250 -20.480  0.00  0.00    -0.080 Cl
ATOM     10 CL   UNL     1      32.833 -22.554 -18.277  0.00  0.00    -0.081 Cl
ATOM     11  C   UNL     1      35.159 -20.176 -20.595  0.00  0.00    +0.059 C 
ATOM     12  C   UNL     1      34.035 -20.783 -19.994  0.00  0.00    +0.081 C 
ATOM     13  C   UNL     1      36.437 -20.618 -20.194  0.00  0.00    +0.015 C 
ATOM     14  C   UNL     1      34.184 -21.786 -19.035  0.00  0.00    +0.069 C 
ATOM     15  C   UNL     1      36.586 -21.621 -19.237  0.00  0.00    +0.002 C 
ATOM     16  C   UNL     1      35.459 -22.205 -18.657  0.00  0.00    +0.012 C 
ENDBRANCH   3  11
ENDBRANCH   1   2
BRANCH   1  17
ATOM     17  C   UNL     1      34.306 -14.803 -23.488  0.00  0.00    -0.019 C 
BRANCH  17  18
ATOM     18  C   UNL     1      33.012 -14.084 -23.869  0.00  0.00    +0.045 C 
BRANCH  18  19
ATOM     19  C   UNL     1      32.924 -12.706 -23.227  0.00  0.00    +0.205 C 
BRANCH  19  20
ATOM     20  O   UNL     1      34.110 -11.965 -23.508  0.00  0.00    -0.475 OA
BRANCH  20  26
ATOM     21  O   UNL     1      30.403  -6.154 -21.791  0.00  0.00    -0.275 OA
ATOM     22  N   UNL     1      31.593  -8.022 -22.399  0.00  0.00    -0.284 N 
ATOM     23  C   UNL     1      33.869  -7.820 -23.231  0.00  0.00    -0.008 C 
ATOM     24  C   UNL     1      33.721  -6.326 -23.223  0.00  0.00    +0.037 C 
ATOM     25  C   UNL     1      32.781  -8.619 -22.855  0.00  0.00    +0.049 C 
ATOM     26  C   UNL     1      34.029 -10.609 -23.417  0.00  0.00    +0.140 C 
ATOM     27  C   UNL     1      32.762  -5.883 -22.129  0.00  0.00    +0.090 C 
ATOM     28  C   UNL     1      32.856 -10.011 -22.957  0.00  0.00    +0.051 C 
ATOM     29  C   UNL     1      35.036  -8.430 -23.704  0.00  0.00    +0.000 C 
ATOM     30  C   UNL     1      35.118  -9.821 -23.788  0.00  0.00    +0.037 C 
ATOM     31  C   UNL     1      31.468  -6.675 -22.120  0.00  0.00    +0.226 C 
ATOM     32  H   UNL     1      30.804  -8.598 -22.271  0.00  0.00    +0.155 HD
ENDBRANCH  20  26
ENDBRANCH  19  20
ENDBRANCH  18  19
ENDBRANCH  17  18
ENDBRANCH   1  17
TORSDOF 7
ENDMDL
MODEL 7
REMARK VINA RESULT:     -11.3      2.786      4.535
REMARK  Name = 60795
REMARK  7 active torsions:
REMARK  status: ('A' for Active; 'I' for Inactive)
REMARK    1  A    between atoms: C_1  and  N_2
REMARK    2  A    between atoms: C_1  and  C_17
REMARK    3  A    between atoms: N_3  and  C_11
REMARK    4  A    between atoms: C_17  and  C_18
REMARK    5  A    between atoms: C_18  and  C_19
REMARK    6  A    between atoms: C_19  and  O_20
REMARK    7  A    between atoms: O_20  and  C_26
REMARK                            x       y       z     vdW  Elec       q    Type
REMARK                         _______ _______ _______ _____ _____    ______ ____
ROOT
ATOM      1  C   UNL     1      32.785 -14.084 -21.138  0.00  0.00    -0.077 C 
ENDROOT
BRANCH   1   2
ATOM      2  N   UNL     1      32.258 -12.888 -21.793  0.00  0.00    +0.389 N 
ATOM      3  N   UNL     1      32.139 -10.108 -22.441  0.00  0.00    -0.311 N 
ATOM      4  C   UNL     1      31.806 -11.911 -20.794  0.00  0.00    -0.055 C 
ATOM      5  C   UNL     1      33.278 -12.283 -22.658  0.00  0.00    -0.055 C 
ATOM      6  C   UNL     1      31.200 -10.678 -21.467  0.00  0.00    +0.068 C 
ATOM      7  C   UNL     1      32.721 -11.060 -23.393  0.00  0.00    +0.068 C 
ATOM      8  H   UNL     1      31.462 -13.164 -22.367  0.00  0.00    -0.080 HD
BRANCH   3  11
ATOM      9 CL   UNL     1      32.731  -8.060 -20.315  0.00  0.00    -0.080 Cl
ATOM     10 CL   UNL     1      32.303  -5.030 -21.284  0.00  0.00    -0.081 Cl
ATOM     11  C   UNL     1      31.970  -8.771 -22.814  0.00  0.00    +0.059 C 
ATOM     12  C   UNL     1      32.206  -7.696 -21.930  0.00  0.00    +0.081 C 
ATOM     13  C   UNL     1      31.546  -8.463 -24.124  0.00  0.00    +0.015 C 
ATOM     14  C   UNL     1      32.024  -6.374 -22.337  0.00  0.00    +0.069 C 
ATOM     15  C   UNL     1      31.365  -7.141 -24.532  0.00  0.00    +0.002 C 
ATOM     16  C   UNL     1      31.605  -6.097 -23.638  0.00  0.00    +0.012 C 
ENDBRANCH   3  11
ENDBRANCH   1   2
BRANCH   1  17
ATOM     17  C   UNL     1      34.247 -14.299 -21.522  0.00  0.00    -0.019 C 
BRANCH  17  18
ATOM     18  C   UNL     1      34.605 -15.785 -21.529  0.00  0.00    +0.045 C 
BRANCH  18  19
ATOM     19  C   UNL     1      35.298 -16.191 -22.823  0.00  0.00    +0.205 C 
BRANCH  19  20
ATOM     20  O   UNL     1      34.996 -17.552 -23.126  0.00  0.00    -0.475 OA
BRANCH  20  26
ATOM     21  O   UNL     1      32.737 -22.579 -18.646  0.00  0.00    -0.275 OA
ATOM     22  N   UNL     1      33.474 -20.920 -20.052  0.00  0.00    -0.284 N 
ATOM     23  C   UNL     1      35.840 -20.376 -20.189  0.00  0.00    -0.008 C 
ATOM     24  C   UNL     1      36.106 -21.323 -19.056  0.00  0.00    +0.037 C 
ATOM     25  C   UNL     1      34.522 -20.177 -20.623  0.00  0.00    +0.049 C 
ATOM     26  C   UNL     1      35.270 -18.476 -22.165  0.00  0.00    +0.140 C 
ATOM     27  C   UNL     1      35.098 -22.463 -19.054  0.00  0.00    +0.090 C 
ATOM     28  C   UNL     1      34.235 -19.222 -21.602  0.00  0.00    +0.051 C 
ATOM     29  C   UNL     1      36.869 -19.613 -20.751  0.00  0.00    +0.000 C 
ATOM     30  C   UNL     1      36.585 -18.672 -21.743  0.00  0.00    +0.037 C 
ATOM     31  C   UNL     1      33.665 -21.985 -19.194  0.00  0.00    +0.226 C 
ATOM     32  H   UNL     1      32.549 -20.666 -20.278  0.00  0.00    +0.155 HD
ENDBRANCH  20  26
ENDBRANCH  19  20
ENDBRANCH  18  19
ENDBRANCH  17  18
ENDBRANCH   1  17
TORSDOF 7
ENDMDL
MODEL 8
REMARK VINA RESULT:     -11.2      3.145      5.492
REMARK  Name = 60795
REMARK  7 active torsions:
REMARK  status: ('A' for Active; 'I' for Inactive)
REMARK    1  A    between atoms: C_1  and  N_2
REMARK    2  A    between atoms: C_1  and  C_17
REMARK    3  A    between atoms: N_3  and  C_11
REMARK    4  A    between atoms: C_17  and  C_18
REMARK    5  A    between atoms: C_18  and  C_19
REMARK    6  A    between atoms: C_19  and  O_20
REMARK    7  A    between atoms: O_20  and  C_26
REMARK                            x       y       z     vdW  Elec       q    Type
REMARK                         _______ _______ _______ _____ _____    ______ ____
ROOT
ATOM      1  C   UNL     1      35.726 -21.815 -19.000  0.00  0.00    -0.077 C 
ENDROOT
BRANCH   1   2
ATOM      2  N   UNL     1      35.665 -20.972 -20.193  0.00  0.00    +0.389 N 
ATOM      3  N   UNL     1      35.160 -18.582 -21.675  0.00  0.00    -0.311 N 
ATOM      4  C   UNL     1      34.288 -20.528 -20.441  0.00  0.00    -0.055 C 
ATOM      5  C   UNL     1      36.546 -19.808 -20.047  0.00  0.00    -0.055 C 
ATOM      6  C   UNL     1      34.201 -19.693 -21.719  0.00  0.00    +0.068 C 
ATOM      7  C   UNL     1      36.534 -18.945 -21.312  0.00  0.00    +0.068 C 
ATOM      8  H   UNL     1      35.981 -21.525 -20.990  0.00  0.00    -0.080 HD
BRANCH   3  11
ATOM      9 CL   UNL     1      34.795 -15.937 -20.285  0.00  0.00    -0.080 Cl
ATOM     10 CL   UNL     1      34.272 -13.485 -22.290  0.00  0.00    -0.081 Cl
ATOM     11  C   UNL     1      34.931 -17.480 -22.506  0.00  0.00    +0.059 C 
ATOM     12  C   UNL     1      34.739 -16.174 -22.005  0.00  0.00    +0.081 C 
ATOM     13  C   UNL     1      34.886 -17.661 -23.904  0.00  0.00    +0.015 C 
ATOM     14  C   UNL     1      34.511 -15.099 -22.865  0.00  0.00    +0.069 C 
ATOM     15  C   UNL     1      34.659 -16.586 -24.763  0.00  0.00    +0.002 C 
ATOM     16  C   UNL     1      34.471 -15.305 -24.243  0.00  0.00    +0.012 C 
ENDBRANCH   3  11
ENDBRANCH   1   2
BRANCH   1  17
ATOM     17  C   UNL     1      34.600 -22.847 -19.021  0.00  0.00    -0.019 C 
BRANCH  17  18
ATOM     18  C   UNL     1      33.414 -22.390 -18.173  0.00  0.00    +0.045 C 
BRANCH  18  19
ATOM     19  C   UNL     1      33.143 -23.348 -17.021  0.00  0.00    +0.205 C 
BRANCH  19  20
ATOM     20  O   UNL     1      34.277 -24.188 -16.814  0.00  0.00    -0.475 OA
BRANCH  20  26
ATOM     21  O   UNL     1      35.270 -25.508  -9.906  0.00  0.00    -0.275 OA
ATOM     22  N   UNL     1      34.930 -25.032 -12.127  0.00  0.00    -0.284 N 
ATOM     23  C   UNL     1      36.471 -23.585 -13.331  0.00  0.00    -0.008 C 
ATOM     24  C   UNL     1      37.183 -23.299 -12.041  0.00  0.00    +0.037 C 
ATOM     25  C   UNL     1      35.341 -24.414 -13.322  0.00  0.00    +0.049 C 
ATOM     26  C   UNL     1      34.993 -23.992 -15.673  0.00  0.00    +0.140 C 
ATOM     27  C   UNL     1      37.087 -24.485 -11.093  0.00  0.00    +0.090 C 
ATOM     28  C   UNL     1      34.596 -24.610 -14.488  0.00  0.00    +0.051 C 
ATOM     29  C   UNL     1      36.852 -22.960 -14.522  0.00  0.00    +0.000 C 
ATOM     30  C   UNL     1      36.120 -23.171 -15.692  0.00  0.00    +0.037 C 
ATOM     31  C   UNL     1      35.675 -25.025 -10.963  0.00  0.00    +0.226 C 
ATOM     32  H   UNL     1      34.062 -25.496 -12.120  0.00  0.00    +0.155 HD
ENDBRANCH  20  26
ENDBRANCH  19  20
ENDBRANCH  18  19
ENDBRANCH  17  18
ENDBRANCH   1  17
TORSDOF 7
ENDMDL
MODEL 9
REMARK VINA RESULT:     -11.0      3.190      5.590
REMARK  Name = 60795
REMARK  7 active torsions:
REMARK  status: ('A' for Active; 'I' for Inactive)
REMARK    1  A    between atoms: C_1  and  N_2
REMARK    2  A    between atoms: C_1  and  C_17
REMARK    3  A    between atoms: N_3  and  C_11
REMARK    4  A    between atoms: C_17  and  C_18
REMARK    5  A    between atoms: C_18  and  C_19
REMARK    6  A    between atoms: C_19  and  O_20
REMARK    7  A    between atoms: O_20  and  C_26
REMARK                            x       y       z     vdW  Elec       q    Type
REMARK                         _______ _______ _______ _____ _____    ______ ____
ROOT
ATOM      1  C   UNL     1      35.621 -21.873 -18.840  0.00  0.00    -0.077 C 
ENDROOT
BRANCH   1   2
ATOM      2  N   UNL     1      35.582 -21.054 -20.051  0.00  0.00    +0.389 N 
ATOM      3  N   UNL     1      35.136 -18.684 -21.583  0.00  0.00    -0.311 N 
ATOM      4  C   UNL     1      34.216 -20.582 -20.309  0.00  0.00    -0.055 C 
ATOM      5  C   UNL     1      36.491 -19.909 -19.928  0.00  0.00    -0.055 C 
ATOM      6  C   UNL     1      34.150 -19.772 -21.604  0.00  0.00    +0.068 C 
ATOM      7  C   UNL     1      36.501 -19.073 -21.211  0.00  0.00    +0.068 C 
ATOM      8  H   UNL     1      35.884 -21.631 -20.835  0.00  0.00    -0.080 HD
BRANCH   3  11
ATOM      9 CL   UNL     1      34.828 -16.003 -20.249  0.00  0.00    -0.080 Cl
ATOM     10 CL   UNL     1      34.366 -13.582 -22.306  0.00  0.00    -0.081 Cl
ATOM     11  C   UNL     1      34.935 -17.595 -22.437  0.00  0.00    +0.059 C 
ATOM     12  C   UNL     1      34.771 -16.275 -21.963  0.00  0.00    +0.081 C 
ATOM     13  C   UNL     1      34.889 -17.803 -23.831  0.00  0.00    +0.015 C 
ATOM     14  C   UNL     1      34.570 -15.212 -22.846  0.00  0.00    +0.069 C 
ATOM     15  C   UNL     1      34.689 -16.742 -24.713  0.00  0.00    +0.002 C 
ATOM     16  C   UNL     1      34.529 -15.446 -24.220  0.00  0.00    +0.012 C 
ENDBRANCH   3  11
ENDBRANCH   1   2
BRANCH   1  17
ATOM     17  C   UNL     1      34.524 -22.935 -18.881  0.00  0.00    -0.019 C 
BRANCH  17  18
ATOM     18  C   UNL     1      33.458 -22.671 -17.819  0.00  0.00    +0.045 C 
BRANCH  18  19
ATOM     19  C   UNL     1      33.490 -23.721 -16.716  0.00  0.00    +0.205 C 
BRANCH  19  20
ATOM     20  O   UNL     1      33.917 -23.125 -15.493  0.00  0.00    -0.475 OA
BRANCH  20  26
ATOM     21  O   UNL     1      40.316 -26.146 -14.871  0.00  0.00    -0.275 OA
ATOM     22  N   UNL     1      38.225 -25.219 -15.077  0.00  0.00    -0.284 N 
ATOM     23  C   UNL     1      36.669 -25.249 -13.207  0.00  0.00    -0.008 C 
ATOM     24  C   UNL     1      37.636 -26.105 -12.440  0.00  0.00    +0.037 C 
ATOM     25  C   UNL     1      36.983 -24.867 -14.519  0.00  0.00    +0.049 C 
ATOM     26  C   UNL     1      34.820 -23.820 -14.747  0.00  0.00    +0.140 C 
ATOM     27  C   UNL     1      39.069 -25.805 -12.850  0.00  0.00    +0.090 C 
ATOM     28  C   UNL     1      36.056 -24.163 -15.292  0.00  0.00    +0.051 C 
ATOM     29  C   UNL     1      35.421 -24.912 -12.675  0.00  0.00    +0.000 C 
ATOM     30  C   UNL     1      34.503 -24.190 -13.441  0.00  0.00    +0.037 C 
ATOM     31  C   UNL     1      39.261 -25.778 -14.355  0.00  0.00    +0.226 C 
ATOM     32  H   UNL     1      38.363 -25.056 -16.038  0.00  0.00    +0.155 HD
ENDBRANCH  20  26
ENDBRANCH  19  20
ENDBRANCH  18  19
ENDBRANCH  17  18
ENDBRANCH   1  17
TORSDOF 7
ENDMDL
