MODEL 1
REMARK VINA RESULT:     -11.7      0.000      0.000
REMARK  Name = 11998575
REMARK  7 active torsions:
REMARK  status: ('A' for Active; 'I' for Inactive)
REMARK    1  A    between atoms: C_6  and  C_18
REMARK    2  A    between atoms: C_14  and  O_22
REMARK    3  A    between atoms: C_15  and  O_16
REMARK    4  A    between atoms: C_18  and  O_20
REMARK    5  A    between atoms: O_22  and  C_23
REMARK    6  A    between atoms: C_23  and  C_24
REMARK    7  A    between atoms: C_29  and  O_30
REMARK                            x       y       z     vdW  Elec       q    Type
REMARK                         _______ _______ _______ _____ _____    ______ ____
ROOT
ATOM      1  O   UNL     1      32.764 -22.486 -18.420  0.00  0.00    -0.421 OA
ATOM      2  O   UNL     1      32.277 -21.340 -20.330  0.00  0.00    -0.244 OA
ATOM      3  C   UNL     1      35.448 -21.609 -18.576  0.00  0.00    +0.009 A 
ATOM      4  C   UNL     1      35.016 -22.477 -17.473  0.00  0.00    +0.038 A 
ATOM      5  C   UNL     1      34.516 -21.219 -19.553  0.00  0.00    +0.076 A 
ATOM      6  C   UNL     1      36.200 -19.937 -20.734  0.00  0.00    +0.004 C 
ATOM      7  C   UNL     1      33.683 -22.891 -17.428  0.00  0.00    +0.152 A 
ATOM      8  C   UNL     1      34.890 -20.389 -20.623  0.00  0.00    +0.004 C 
ATOM      9  C   UNL     1      36.768 -21.135 -18.715  0.00  0.00    +0.000 C 
ATOM     10  C   UNL     1      35.850 -22.933 -16.440  0.00  0.00    +0.043 C 
ATOM     11  C   UNL     1      37.139 -20.310 -19.781  0.00  0.00    -0.002 C 
ATOM     12  C   UNL     1      33.105 -21.669 -19.490  0.00  0.00    +0.346 A 
ATOM     13  C   UNL     1      33.176 -23.717 -16.421  0.00  0.00    +0.078 C 
ATOM     14  C   UNL     1      34.026 -24.153 -15.413  0.00  0.00    +0.176 C 
ATOM     15  C   UNL     1      35.362 -23.763 -15.422  0.00  0.00    +0.173 C 
ENDROOT
BRANCH  15  16
ATOM     16  O   UNL     1      36.209 -24.183 -14.440  0.00  0.00    -0.468 OA
ATOM     17  C   UNL     1      36.961 -25.366 -14.697  0.00  0.00    +0.253 C 
ENDBRANCH  15  16
BRANCH   6  18
ATOM     18  C   UNL     1      36.596 -19.058 -21.871  0.00  0.00    +0.133 C 
ATOM     19  C   UNL     1      35.744 -17.788 -21.964  0.00  0.00    +0.037 C 
BRANCH  18  20
ATOM     20  O   UNL     1      37.970 -18.674 -21.739  0.00  0.00    -0.380 OA
ATOM     21  H   UNL     1      38.536 -19.358 -22.131  0.00  0.00    +0.211 HD
ENDBRANCH  18  20
ENDBRANCH   6  18
BRANCH  14  22
ATOM     22  O   UNL     1      33.544 -24.960 -14.428  0.00  0.00    -0.467 OA
BRANCH  22  23
ATOM     23  C   UNL     1      32.689 -24.357 -13.456  0.00  0.00    +0.232 C 
BRANCH  23  24
ATOM     24  C   UNL     1      31.313 -24.212 -14.038  0.00  0.00    +0.021 C 
ATOM     25  C   UNL     1      30.551 -25.345 -14.295  0.00  0.00    +0.002 C 
ATOM     26  C   UNL     1      30.815 -22.943 -14.317  0.00  0.00    +0.002 C 
ATOM     27  C   UNL     1      29.272 -25.209 -14.836  0.00  0.00    +0.037 C 
ATOM     28  C   UNL     1      29.536 -22.807 -14.858  0.00  0.00    +0.037 C 
ATOM     29  C   UNL     1      28.766 -23.941 -15.118  0.00  0.00    +0.139 C 
BRANCH  29  30
ATOM     30  O   UNL     1      27.518 -23.808 -15.645  0.00  0.00    -0.471 OA
ATOM     31  C   UNL     1      27.307 -22.727 -16.552  0.00  0.00    +0.252 C 
ENDBRANCH  29  30
ENDBRANCH  23  24
ENDBRANCH  22  23
ENDBRANCH  14  22
TORSDOF 7
ENDMDL
MODEL 2
REMARK VINA RESULT:     -11.6      2.864      8.924
REMARK  Name = 11998575
REMARK  7 active torsions:
REMARK  status: ('A' for Active; 'I' for Inactive)
REMARK    1  A    between atoms: C_6  and  C_18
REMARK    2  A    between atoms: C_14  and  O_22
REMARK    3  A    between atoms: C_15  and  O_16
REMARK    4  A    between atoms: C_18  and  O_20
REMARK    5  A    between atoms: O_22  and  C_23
REMARK    6  A    between atoms: C_23  and  C_24
REMARK    7  A    between atoms: C_29  and  O_30
REMARK                            x       y       z     vdW  Elec       q    Type
REMARK                         _______ _______ _______ _____ _____    ______ ____
ROOT
ATOM      1  O   UNL     1      37.315 -22.254 -17.192  0.00  0.00    -0.421 OA
ATOM      2  O   UNL     1      38.504 -22.977 -15.386  0.00  0.00    -0.244 OA
ATOM      3  C   UNL     1      34.930 -23.205 -16.006  0.00  0.00    +0.009 A 
ATOM      4  C   UNL     1      34.894 -22.554 -17.322  0.00  0.00    +0.038 A 
ATOM      5  C   UNL     1      36.160 -23.351 -15.342  0.00  0.00    +0.076 A 
ATOM      6  C   UNL     1      35.087 -24.448 -13.467  0.00  0.00    +0.004 C 
ATOM      7  C   UNL     1      36.091 -22.097 -17.877  0.00  0.00    +0.152 A 
ATOM      8  C   UNL     1      36.237 -23.967 -14.082  0.00  0.00    +0.004 C 
ATOM      9  C   UNL     1      33.782 -23.701 -15.358  0.00  0.00    +0.000 C 
ATOM     10  C   UNL     1      33.731 -22.351 -18.082  0.00  0.00    +0.043 C 
ATOM     11  C   UNL     1      33.860 -24.315 -14.104  0.00  0.00    -0.002 C 
ATOM     12  C   UNL     1      37.421 -22.860 -15.948  0.00  0.00    +0.346 A 
ATOM     13  C   UNL     1      36.160 -21.466 -19.123  0.00  0.00    +0.078 C 
ATOM     14  C   UNL     1      34.992 -21.280 -19.852  0.00  0.00    +0.176 C 
ATOM     15  C   UNL     1      33.779 -21.721 -19.333  0.00  0.00    +0.173 C 
ENDROOT
BRANCH  15  16
ATOM     16  O   UNL     1      32.624 -21.546 -20.036  0.00  0.00    -0.468 OA
ATOM     17  C   UNL     1      32.209 -20.203 -20.274  0.00  0.00    +0.253 C 
ENDBRANCH  15  16
BRANCH   6  18
ATOM     18  C   UNL     1      35.169 -25.103 -12.130  0.00  0.00    +0.133 C 
ATOM     19  C   UNL     1      36.539 -25.735 -11.864  0.00  0.00    +0.037 C 
BRANCH  18  20
ATOM     20  O   UNL     1      34.901 -24.147 -11.098  0.00  0.00    -0.380 OA
ATOM     21  H   UNL     1      33.995 -24.268 -10.774  0.00  0.00    +0.211 HD
ENDBRANCH  18  20
ENDBRANCH   6  18
BRANCH  14  22
ATOM     22  O   UNL     1      35.048 -20.668 -21.067  0.00  0.00    -0.467 OA
BRANCH  22  23
ATOM     23  C   UNL     1      35.748 -19.426 -21.137  0.00  0.00    +0.232 C 
BRANCH  23  24
ATOM     24  C   UNL     1      35.207 -18.624 -22.285  0.00  0.00    +0.021 C 
ATOM     25  C   UNL     1      34.551 -19.268 -23.326  0.00  0.00    +0.002 C 
ATOM     26  C   UNL     1      35.370 -17.242 -22.295  0.00  0.00    +0.002 C 
ATOM     27  C   UNL     1      34.049 -18.522 -24.393  0.00  0.00    +0.037 C 
ATOM     28  C   UNL     1      34.868 -16.496 -23.361  0.00  0.00    +0.037 C 
ATOM     29  C   UNL     1      34.208 -17.136 -24.410  0.00  0.00    +0.139 C 
BRANCH  29  30
ATOM     30  O   UNL     1      33.717 -16.408 -25.451  0.00  0.00    -0.471 OA
ATOM     31  C   UNL     1      33.478 -15.021 -25.218  0.00  0.00    +0.252 C 
ENDBRANCH  29  30
ENDBRANCH  23  24
ENDBRANCH  22  23
ENDBRANCH  14  22
TORSDOF 7
ENDMDL
MODEL 3
REMARK VINA RESULT:     -11.4      0.946      1.309
REMARK  Name = 11998575
REMARK  7 active torsions:
REMARK  status: ('A' for Active; 'I' for Inactive)
REMARK    1  A    between atoms: C_6  and  C_18
REMARK    2  A    between atoms: C_14  and  O_22
REMARK    3  A    between atoms: C_15  and  O_16
REMARK    4  A    between atoms: C_18  and  O_20
REMARK    5  A    between atoms: O_22  and  C_23
REMARK    6  A    between atoms: C_23  and  C_24
REMARK    7  A    between atoms: C_29  and  O_30
REMARK                            x       y       z     vdW  Elec       q    Type
REMARK                         _______ _______ _______ _____ _____    ______ ____
ROOT
ATOM      1  O   UNL     1      32.726 -22.170 -18.680  0.00  0.00    -0.421 OA
ATOM      2  O   UNL     1      31.975 -20.963 -20.463  0.00  0.00    -0.244 OA
ATOM      3  C   UNL     1      35.356 -21.248 -19.163  0.00  0.00    +0.009 A 
ATOM      4  C   UNL     1      35.085 -22.161 -18.045  0.00  0.00    +0.038 A 
ATOM      5  C   UNL     1      34.297 -20.837 -19.991  0.00  0.00    +0.076 A 
ATOM      6  C   UNL     1      35.794 -19.490 -21.339  0.00  0.00    +0.004 C 
ATOM      7  C   UNL     1      33.774 -22.596 -17.837  0.00  0.00    +0.152 A 
ATOM      8  C   UNL     1      34.515 -19.965 -21.069  0.00  0.00    +0.004 C 
ATOM      9  C   UNL     1      36.640 -20.751 -19.461  0.00  0.00    +0.000 C 
ATOM     10  C   UNL     1      36.056 -22.643 -17.152  0.00  0.00    +0.043 C 
ATOM     11  C   UNL     1      36.856 -19.883 -20.536  0.00  0.00    -0.002 C 
ATOM     12  C   UNL     1      32.912 -21.309 -19.755  0.00  0.00    +0.346 A 
ATOM     13  C   UNL     1      33.416 -23.465 -16.802  0.00  0.00    +0.078 C 
ATOM     14  C   UNL     1      34.399 -23.925 -15.935  0.00  0.00    +0.176 C 
ATOM     15  C   UNL     1      35.717 -23.515 -16.109  0.00  0.00    +0.173 C 
ENDROOT
BRANCH  15  16
ATOM     16  O   UNL     1      36.693 -23.957 -15.266  0.00  0.00    -0.468 OA
ATOM     17  C   UNL     1      37.000 -23.135 -14.143  0.00  0.00    +0.253 C 
ENDBRANCH  15  16
BRANCH   6  18
ATOM     18  C   UNL     1      36.024 -18.565 -22.485  0.00  0.00    +0.133 C 
ATOM     19  C   UNL     1      34.953 -18.691 -23.573  0.00  0.00    +0.037 C 
BRANCH  18  20
ATOM     20  O   UNL     1      36.046 -17.208 -22.024  0.00  0.00    -0.380 OA
ATOM     21  H   UNL     1      35.660 -16.632 -22.701  0.00  0.00    +0.211 HD
ENDBRANCH  18  20
ENDBRANCH   6  18
BRANCH  14  22
ATOM     22  O   UNL     1      34.062 -24.773 -14.924  0.00  0.00    -0.467 OA
BRANCH  22  23
ATOM     23  C   UNL     1      33.317 -24.224 -13.837  0.00  0.00    +0.232 C 
BRANCH  23  24
ATOM     24  C   UNL     1      31.866 -24.169 -14.216  0.00  0.00    +0.021 C 
ATOM     25  C   UNL     1      31.234 -22.939 -14.347  0.00  0.00    +0.002 C 
ATOM     26  C   UNL     1      31.166 -25.352 -14.432  0.00  0.00    +0.002 C 
ATOM     27  C   UNL     1      29.885 -22.888 -14.699  0.00  0.00    +0.037 C 
ATOM     28  C   UNL     1      29.817 -25.302 -14.783  0.00  0.00    +0.037 C 
ATOM     29  C   UNL     1      29.177 -24.070 -14.917  0.00  0.00    +0.139 C 
BRANCH  29  30
ATOM     30  O   UNL     1      27.861 -24.021 -15.260  0.00  0.00    -0.471 OA
ATOM     31  C   UNL     1      27.323 -22.742 -15.592  0.00  0.00    +0.252 C 
ENDBRANCH  29  30
ENDBRANCH  23  24
ENDBRANCH  22  23
ENDBRANCH  14  22
TORSDOF 7
ENDMDL
MODEL 4
REMARK VINA RESULT:     -10.9      1.917      8.909
REMARK  Name = 11998575
REMARK  7 active torsions:
REMARK  status: ('A' for Active; 'I' for Inactive)
REMARK    1  A    between atoms: C_6  and  C_18
REMARK    2  A    between atoms: C_14  and  O_22
REMARK    3  A    between atoms: C_15  and  O_16
REMARK    4  A    between atoms: C_18  and  O_20
REMARK    5  A    between atoms: O_22  and  C_23
REMARK    6  A    between atoms: C_23  and  C_24
REMARK    7  A    between atoms: C_29  and  O_30
REMARK                            x       y       z     vdW  Elec       q    Type
REMARK                         _______ _______ _______ _____ _____    ______ ____
ROOT
ATOM      1  O   UNL     1      36.032 -22.983 -16.516  0.00  0.00    -0.421 OA
ATOM      2  O   UNL     1      36.023 -24.078 -14.516  0.00  0.00    -0.244 OA
ATOM      3  C   UNL     1      33.206 -23.069 -16.578  0.00  0.00    +0.009 A 
ATOM      4  C   UNL     1      33.952 -22.438 -17.675  0.00  0.00    +0.038 A 
ATOM      5  C   UNL     1      33.910 -23.630 -15.499  0.00  0.00    +0.076 A 
ATOM      6  C   UNL     1      31.844 -24.305 -14.425  0.00  0.00    +0.004 C 
ATOM      7  C   UNL     1      35.347 -22.414 -17.610  0.00  0.00    +0.152 A 
ATOM      8  C   UNL     1      33.233 -24.242 -14.430  0.00  0.00    +0.004 C 
ATOM      9  C   UNL     1      31.800 -23.148 -16.545  0.00  0.00    +0.000 C 
ATOM     10  C   UNL     1      33.365 -21.846 -18.805  0.00  0.00    +0.043 C 
ATOM     11  C   UNL     1      31.128 -23.758 -15.481  0.00  0.00    -0.002 C 
ATOM     12  C   UNL     1      35.391 -23.596 -15.447  0.00  0.00    +0.346 A 
ATOM     13  C   UNL     1      36.144 -21.838 -18.603  0.00  0.00    +0.078 C 
ATOM     14  C   UNL     1      35.535 -21.261 -19.710  0.00  0.00    +0.176 C 
ATOM     15  C   UNL     1      34.147 -21.264 -19.812  0.00  0.00    +0.173 C 
ENDROOT
BRANCH  15  16
ATOM     16  O   UNL     1      33.534 -20.702 -20.891  0.00  0.00    -0.468 OA
ATOM     17  C   UNL     1      32.221 -20.183 -20.692  0.00  0.00    +0.253 C 
ENDBRANCH  15  16
BRANCH   6  18
ATOM     18  C   UNL     1      31.127 -24.956 -13.292  0.00  0.00    +0.133 C 
ATOM     19  C   UNL     1      29.888 -25.734 -13.744  0.00  0.00    +0.037 C 
BRANCH  18  20
ATOM     20  O   UNL     1      32.006 -25.858 -12.608  0.00  0.00    -0.380 OA
ATOM     21  H   UNL     1      32.921 -25.552 -12.706  0.00  0.00    +0.211 HD
ENDBRANCH  18  20
ENDBRANCH   6  18
BRANCH  14  22
ATOM     22  O   UNL     1      36.303 -20.698 -20.684  0.00  0.00    -0.467 OA
BRANCH  22  23
ATOM     23  C   UNL     1      36.507 -19.288 -20.616  0.00  0.00    +0.232 C 
BRANCH  23  24
ATOM     24  C   UNL     1      35.819 -18.637 -21.780  0.00  0.00    +0.021 C 
ATOM     25  C   UNL     1      35.623 -17.261 -21.783  0.00  0.00    +0.002 C 
ATOM     26  C   UNL     1      35.381 -19.418 -22.845  0.00  0.00    +0.002 C 
ATOM     27  C   UNL     1      34.983 -16.656 -22.865  0.00  0.00    +0.037 C 
ATOM     28  C   UNL     1      34.740 -18.814 -23.927  0.00  0.00    +0.037 C 
ATOM     29  C   UNL     1      34.541 -17.433 -23.937  0.00  0.00    +0.139 C 
BRANCH  29  30
ATOM     30  O   UNL     1      33.917 -16.843 -24.992  0.00  0.00    -0.471 OA
ATOM     31  C   UNL     1      33.587 -15.461 -24.863  0.00  0.00    +0.252 C 
ENDBRANCH  29  30
ENDBRANCH  23  24
ENDBRANCH  22  23
ENDBRANCH  14  22
TORSDOF 7
ENDMDL
MODEL 5
REMARK VINA RESULT:     -10.8      2.401      6.030
REMARK  Name = 11998575
REMARK  7 active torsions:
REMARK  status: ('A' for Active; 'I' for Inactive)
REMARK    1  A    between atoms: C_6  and  C_18
REMARK    2  A    between atoms: C_14  and  O_22
REMARK    3  A    between atoms: C_15  and  O_16
REMARK    4  A    between atoms: C_18  and  O_20
REMARK    5  A    between atoms: O_22  and  C_23
REMARK    6  A    between atoms: C_23  and  C_24
REMARK    7  A    between atoms: C_29  and  O_30
REMARK                            x       y       z     vdW  Elec       q    Type
REMARK                         _______ _______ _______ _____ _____    ______ ____
ROOT
ATOM      1  O   UNL     1      37.003 -20.475 -19.406  0.00  0.00    -0.421 OA
ATOM      2  O   UNL     1      38.176 -18.990 -20.678  0.00  0.00    -0.244 OA
ATOM      3  C   UNL     1      34.707 -20.025 -20.995  0.00  0.00    +0.009 A 
ATOM      4  C   UNL     1      34.656 -20.968 -19.871  0.00  0.00    +0.038 A 
ATOM      5  C   UNL     1      35.906 -19.348 -21.274  0.00  0.00    +0.076 A 
ATOM      6  C   UNL     1      34.889 -18.190 -23.144  0.00  0.00    +0.004 C 
ATOM      7  C   UNL     1      35.809 -21.165 -19.108  0.00  0.00    +0.152 A 
ATOM      8  C   UNL     1      35.996 -18.438 -22.340  0.00  0.00    +0.004 C 
ATOM      9  C   UNL     1      33.603 -19.753 -21.826  0.00  0.00    +0.000 C 
ATOM     10  C   UNL     1      33.520 -21.702 -19.493  0.00  0.00    +0.043 C 
ATOM     11  C   UNL     1      33.693 -18.847 -22.888  0.00  0.00    -0.002 C 
ATOM     12  C   UNL     1      37.121 -19.569 -20.452  0.00  0.00    +0.346 A 
ATOM     13  C   UNL     1      35.860 -22.040 -18.019  0.00  0.00    +0.078 C 
ATOM     14  C   UNL     1      34.720 -22.752 -17.668  0.00  0.00    +0.176 C 
ATOM     15  C   UNL     1      33.550 -22.584 -18.404  0.00  0.00    +0.173 C 
ENDROOT
BRANCH  15  16
ATOM     16  O   UNL     1      32.423 -23.274 -18.073  0.00  0.00    -0.468 OA
ATOM     17  C   UNL     1      31.812 -22.956 -16.825  0.00  0.00    +0.253 C 
ENDBRANCH  15  16
BRANCH   6  18
ATOM     18  C   UNL     1      34.985 -17.224 -24.275  0.00  0.00    +0.133 C 
ATOM     19  C   UNL     1      33.616 -16.851 -24.853  0.00  0.00    +0.037 C 
BRANCH  18  20
ATOM     20  O   UNL     1      35.636 -16.024 -23.841  0.00  0.00    -0.380 OA
ATOM     21  H   UNL     1      36.598 -16.140 -23.897  0.00  0.00    +0.211 HD
ENDBRANCH  18  20
ENDBRANCH   6  18
BRANCH  14  22
ATOM     22  O   UNL     1      34.758 -23.605 -16.608  0.00  0.00    -0.467 OA
BRANCH  22  23
ATOM     23  C   UNL     1      35.431 -23.152 -15.434  0.00  0.00    +0.232 C 
BRANCH  23  24
ATOM     24  C   UNL     1      36.471 -24.163 -15.046  0.00  0.00    +0.021 C 
ATOM     25  C   UNL     1      37.812 -23.800 -15.031  0.00  0.00    +0.002 C 
ATOM     26  C   UNL     1      36.082 -25.455 -14.706  0.00  0.00    +0.002 C 
ATOM     27  C   UNL     1      38.779 -24.740 -14.670  0.00  0.00    +0.037 C 
ATOM     28  C   UNL     1      37.048 -26.394 -14.346  0.00  0.00    +0.037 C 
ATOM     29  C   UNL     1      38.396 -26.036 -14.328  0.00  0.00    +0.139 C 
BRANCH  29  30
ATOM     30  O   UNL     1      39.338 -26.953 -13.976  0.00  0.00    -0.471 OA
ATOM     31  C   UNL     1      40.704 -26.562 -14.104  0.00  0.00    +0.252 C 
ENDBRANCH  29  30
ENDBRANCH  23  24
ENDBRANCH  22  23
ENDBRANCH  14  22
TORSDOF 7
ENDMDL
MODEL 6
REMARK VINA RESULT:     -10.7      2.024      5.484
REMARK  Name = 11998575
REMARK  7 active torsions:
REMARK  status: ('A' for Active; 'I' for Inactive)
REMARK    1  A    between atoms: C_6  and  C_18
REMARK    2  A    between atoms: C_14  and  O_22
REMARK    3  A    between atoms: C_15  and  O_16
REMARK    4  A    between atoms: C_18  and  O_20
REMARK    5  A    between atoms: O_22  and  C_23
REMARK    6  A    between atoms: C_23  and  C_24
REMARK    7  A    between atoms: C_29  and  O_30
REMARK                            x       y       z     vdW  Elec       q    Type
REMARK                         _______ _______ _______ _____ _____    ______ ____
ROOT
ATOM      1  O   UNL     1      36.074 -22.509 -17.691  0.00  0.00    -0.421 OA
ATOM      2  O   UNL     1      37.409 -21.463 -19.215  0.00  0.00    -0.244 OA
ATOM      3  C   UNL     1      33.780 -21.592 -19.068  0.00  0.00    +0.009 A 
ATOM      4  C   UNL     1      33.639 -22.414 -17.859  0.00  0.00    +0.038 A 
ATOM      5  C   UNL     1      35.065 -21.266 -19.534  0.00  0.00    +0.076 A 
ATOM      6  C   UNL     1      34.140 -20.013 -21.391  0.00  0.00    +0.004 C 
ATOM      7  C   UNL     1      34.793 -22.849 -17.205  0.00  0.00    +0.152 A 
ATOM      8  C   UNL     1      35.243 -20.483 -20.687  0.00  0.00    +0.004 C 
ATOM      9  C   UNL     1      32.682 -21.102 -19.803  0.00  0.00    +0.000 C 
ATOM     10  C   UNL     1      32.413 -22.804 -17.297  0.00  0.00    +0.043 C 
ATOM     11  C   UNL     1      32.861 -20.322 -20.950  0.00  0.00    -0.002 C 
ATOM     12  C   UNL     1      36.280 -21.736 -18.826  0.00  0.00    +0.346 A 
ATOM     13  C   UNL     1      34.762 -23.633 -16.048  0.00  0.00    +0.078 C 
ATOM     14  C   UNL     1      33.535 -24.003 -15.514  0.00  0.00    +0.176 C 
ATOM     15  C   UNL     1      32.361 -23.590 -16.137  0.00  0.00    +0.173 C 
ENDROOT
BRANCH  15  16
ATOM     16  O   UNL     1      31.148 -23.944 -15.626  0.00  0.00    -0.468 OA
ATOM     17  C   UNL     1      30.024 -23.165 -16.028  0.00  0.00    +0.253 C 
ENDBRANCH  15  16
BRANCH   6  18
ATOM     18  C   UNL     1      34.330 -19.181 -22.613  0.00  0.00    +0.133 C 
ATOM     19  C   UNL     1      35.319 -18.030 -22.399  0.00  0.00    +0.037 C 
BRANCH  18  20
ATOM     20  O   UNL     1      34.806 -19.995 -23.692  0.00  0.00    -0.380 OA
ATOM     21  H   UNL     1      35.102 -20.850 -23.344  0.00  0.00    +0.211 HD
ENDBRANCH  18  20
ENDBRANCH   6  18
BRANCH  14  22
ATOM     22  O   UNL     1      33.493 -24.765 -14.387  0.00  0.00    -0.467 OA
BRANCH  22  23
ATOM     23  C   UNL     1      34.396 -24.421 -13.337  0.00  0.00    +0.232 C 
BRANCH  23  24
ATOM     24  C   UNL     1      35.709 -25.108 -13.576  0.00  0.00    +0.021 C 
ATOM     25  C   UNL     1      35.750 -26.270 -14.337  0.00  0.00    +0.002 C 
ATOM     26  C   UNL     1      36.873 -24.575 -13.031  0.00  0.00    +0.002 C 
ATOM     27  C   UNL     1      36.970 -26.909 -14.558  0.00  0.00    +0.037 C 
ATOM     28  C   UNL     1      38.093 -25.214 -13.252  0.00  0.00    +0.037 C 
ATOM     29  C   UNL     1      38.142 -26.380 -14.016  0.00  0.00    +0.139 C 
BRANCH  29  30
ATOM     30  O   UNL     1      39.332 -27.003 -14.232  0.00  0.00    -0.471 OA
ATOM     31  C   UNL     1      40.508 -26.197 -14.174  0.00  0.00    +0.252 C 
ENDBRANCH  29  30
ENDBRANCH  23  24
ENDBRANCH  22  23
ENDBRANCH  14  22
TORSDOF 7
ENDMDL
MODEL 7
REMARK VINA RESULT:     -10.6      5.926      9.983
REMARK  Name = 11998575
REMARK  7 active torsions:
REMARK  status: ('A' for Active; 'I' for Inactive)
REMARK    1  A    between atoms: C_6  and  C_18
REMARK    2  A    between atoms: C_14  and  O_22
REMARK    3  A    between atoms: C_15  and  O_16
REMARK    4  A    between atoms: C_18  and  O_20
REMARK    5  A    between atoms: O_22  and  C_23
REMARK    6  A    between atoms: C_23  and  C_24
REMARK    7  A    between atoms: C_29  and  O_30
REMARK                            x       y       z     vdW  Elec       q    Type
REMARK                         _______ _______ _______ _____ _____    ______ ____
ROOT
ATOM      1  O   UNL     1      32.866 -13.476 -19.637  0.00  0.00    -0.421 OA
ATOM      2  O   UNL     1      31.718 -11.629 -18.949  0.00  0.00    -0.244 OA
ATOM      3  C   UNL     1      33.004 -12.416 -22.255  0.00  0.00    +0.009 A 
ATOM      4  C   UNL     1      33.605 -13.721 -21.952  0.00  0.00    +0.038 A 
ATOM      5  C   UNL     1      32.359 -11.699 -21.233  0.00  0.00    +0.076 A 
ATOM      6  C   UNL     1      31.819  -9.894 -22.756  0.00  0.00    +0.004 C 
ATOM      7  C   UNL     1      33.518 -14.213 -20.648  0.00  0.00    +0.152 A 
ATOM      8  C   UNL     1      31.772 -10.448 -21.482  0.00  0.00    +0.004 C 
ATOM      9  C   UNL     1      33.035 -11.829 -23.536  0.00  0.00    +0.000 C 
ATOM     10  C   UNL     1      34.274 -14.529 -22.885  0.00  0.00    +0.043 C 
ATOM     11  C   UNL     1      32.450 -10.583 -23.783  0.00  0.00    -0.002 C 
ATOM     12  C   UNL     1      32.275 -12.238 -19.854  0.00  0.00    +0.346 A 
ATOM     13  C   UNL     1      34.057 -15.443 -20.262  0.00  0.00    +0.078 C 
ATOM     14  C   UNL     1      34.712 -16.222 -21.207  0.00  0.00    +0.176 C 
ATOM     15  C   UNL     1      34.821 -15.766 -22.518  0.00  0.00    +0.173 C 
ENDROOT
BRANCH  15  16
ATOM     16  O   UNL     1      35.460 -16.518 -23.458  0.00  0.00    -0.468 OA
ATOM     17  C   UNL     1      34.795 -16.696 -24.706  0.00  0.00    +0.253 C 
ENDBRANCH  15  16
BRANCH   6  18
ATOM     18  C   UNL     1      31.194  -8.566 -23.020  0.00  0.00    +0.133 C 
ATOM     19  C   UNL     1      31.455  -7.555 -21.899  0.00  0.00    +0.037 C 
BRANCH  18  20
ATOM     20  O   UNL     1      31.695  -8.023 -24.248  0.00  0.00    -0.380 OA
ATOM     21  H   UNL     1      31.870  -7.076 -24.134  0.00  0.00    +0.211 HD
ENDBRANCH  18  20
ENDBRANCH   6  18
BRANCH  14  22
ATOM     22  O   UNL     1      35.240 -17.422 -20.842  0.00  0.00    -0.467 OA
BRANCH  22  23
ATOM     23  C   UNL     1      34.888 -18.555 -21.636  0.00  0.00    +0.232 C 
BRANCH  23  24
ATOM     24  C   UNL     1      34.790 -19.762 -20.749  0.00  0.00    +0.021 C 
ATOM     25  C   UNL     1      35.949 -20.355 -20.264  0.00  0.00    +0.002 C 
ATOM     26  C   UNL     1      33.539 -20.278 -20.424  0.00  0.00    +0.002 C 
ATOM     27  C   UNL     1      35.858 -21.478 -19.440  0.00  0.00    +0.037 C 
ATOM     28  C   UNL     1      33.448 -21.400 -19.601  0.00  0.00    +0.037 C 
ATOM     29  C   UNL     1      34.607 -22.000 -19.109  0.00  0.00    +0.139 C 
BRANCH  29  30
ATOM     30  O   UNL     1      34.519 -23.095 -18.306  0.00  0.00    -0.471 OA
ATOM     31  C   UNL     1      33.350 -23.214 -17.497  0.00  0.00    +0.252 C 
ENDBRANCH  29  30
ENDBRANCH  23  24
ENDBRANCH  22  23
ENDBRANCH  14  22
TORSDOF 7
ENDMDL
MODEL 8
REMARK VINA RESULT:     -10.6     10.341     14.951
REMARK  Name = 11998575
REMARK  7 active torsions:
REMARK  status: ('A' for Active; 'I' for Inactive)
REMARK    1  A    between atoms: C_6  and  C_18
REMARK    2  A    between atoms: C_14  and  O_22
REMARK    3  A    between atoms: C_15  and  O_16
REMARK    4  A    between atoms: C_18  and  O_20
REMARK    5  A    between atoms: O_22  and  C_23
REMARK    6  A    between atoms: C_23  and  C_24
REMARK    7  A    between atoms: C_29  and  O_30
REMARK                            x       y       z     vdW  Elec       q    Type
REMARK                         _______ _______ _______ _____ _____    ______ ____
ROOT
ATOM      1  O   UNL     1      33.040  -8.308 -24.471  0.00  0.00    -0.421 OA
ATOM      2  O   UNL     1      33.387  -6.430 -25.716  0.00  0.00    -0.244 OA
ATOM      3  C   UNL     1      31.935  -6.733 -22.398  0.00  0.00    +0.009 A 
ATOM      4  C   UNL     1      32.032  -8.190 -22.249  0.00  0.00    +0.038 A 
ATOM      5  C   UNL     1      32.396  -6.128 -23.580  0.00  0.00    +0.076 A 
ATOM      6  C   UNL     1      31.784  -3.929 -22.766  0.00  0.00    +0.004 C 
ATOM      7  C   UNL     1      32.583  -8.937 -23.293  0.00  0.00    +0.152 A 
ATOM      8  C   UNL     1      32.321  -4.737 -23.762  0.00  0.00    +0.004 C 
ATOM      9  C   UNL     1      31.396  -5.888 -21.408  0.00  0.00    +0.000 C 
ATOM     10  C   UNL     1      31.607  -8.909 -21.119  0.00  0.00    +0.043 C 
ATOM     11  C   UNL     1      31.322  -4.504 -21.589  0.00  0.00    -0.002 C 
ATOM     12  C   UNL     1      32.979  -6.936 -24.678  0.00  0.00    +0.346 A 
ATOM     13  C   UNL     1      32.719 -10.327 -23.245  0.00  0.00    +0.078 C 
ATOM     14  C   UNL     1      32.291 -11.010 -22.114  0.00  0.00    +0.176 C 
ATOM     15  C   UNL     1      31.735 -10.303 -21.052  0.00  0.00    +0.173 C 
ENDROOT
BRANCH  15  16
ATOM     16  O   UNL     1      31.310 -10.958 -19.935  0.00  0.00    -0.468 OA
ATOM     17  C   UNL     1      31.264 -10.208 -18.723  0.00  0.00    +0.253 C 
ENDBRANCH  15  16
BRANCH   6  18
ATOM     18  C   UNL     1      31.706  -2.453 -22.959  0.00  0.00    +0.133 C 
ATOM     19  C   UNL     1      30.707  -2.050 -24.049  0.00  0.00    +0.037 C 
BRANCH  18  20
ATOM     20  O   UNL     1      31.321  -1.818 -21.734  0.00  0.00    -0.380 OA
ATOM     21  H   UNL     1      31.597  -0.888 -21.752  0.00  0.00    +0.211 HD
ENDBRANCH  18  20
ENDBRANCH   6  18
BRANCH  14  22
ATOM     22  O   UNL     1      32.420 -12.364 -22.056  0.00  0.00    -0.467 OA
BRANCH  22  23
ATOM     23  C   UNL     1      33.326 -12.969 -22.977  0.00  0.00    +0.232 C 
BRANCH  23  24
ATOM     24  C   UNL     1      33.910 -14.202 -22.351  0.00  0.00    +0.021 C 
ATOM     25  C   UNL     1      33.920 -14.332 -20.967  0.00  0.00    +0.002 C 
ATOM     26  C   UNL     1      34.437 -15.203 -23.161  0.00  0.00    +0.002 C 
ATOM     27  C   UNL     1      34.464 -15.478 -20.385  0.00  0.00    +0.037 C 
ATOM     28  C   UNL     1      34.980 -16.348 -22.579  0.00  0.00    +0.037 C 
ATOM     29  C   UNL     1      34.993 -16.485 -21.191  0.00  0.00    +0.139 C 
BRANCH  29  30
ATOM     30  O   UNL     1      35.523 -17.603 -20.623  0.00  0.00    -0.471 OA
ATOM     31  C   UNL     1      35.389 -18.825 -21.347  0.00  0.00    +0.252 C 
ENDBRANCH  29  30
ENDBRANCH  23  24
ENDBRANCH  22  23
ENDBRANCH  14  22
TORSDOF 7
ENDMDL
MODEL 9
REMARK VINA RESULT:     -10.5      8.561     13.689
REMARK  Name = 11998575
REMARK  7 active torsions:
REMARK  status: ('A' for Active; 'I' for Inactive)
REMARK    1  A    between atoms: C_6  and  C_18
REMARK    2  A    between atoms: C_14  and  O_22
REMARK    3  A    between atoms: C_15  and  O_16
REMARK    4  A    between atoms: C_18  and  O_20
REMARK    5  A    between atoms: O_22  and  C_23
REMARK    6  A    between atoms: C_23  and  C_24
REMARK    7  A    between atoms: C_29  and  O_30
REMARK                            x       y       z     vdW  Elec       q    Type
REMARK                         _______ _______ _______ _____ _____    ______ ____
ROOT
ATOM      1  O   UNL     1      33.188 -13.470 -24.168  0.00  0.00    -0.421 OA
ATOM      2  O   UNL     1      34.167 -15.089 -25.442  0.00  0.00    -0.244 OA
ATOM      3  C   UNL     1      33.914 -14.874 -21.823  0.00  0.00    +0.009 A 
ATOM      4  C   UNL     1      33.179 -13.607 -21.730  0.00  0.00    +0.038 A 
ATOM      5  C   UNL     1      34.253 -15.383 -23.088  0.00  0.00    +0.076 A 
ATOM      6  C   UNL     1      35.330 -17.311 -22.091  0.00  0.00    +0.004 C 
ATOM      7  C   UNL     1      32.837 -12.941 -22.908  0.00  0.00    +0.152 A 
ATOM      8  C   UNL     1      34.956 -16.592 -23.221  0.00  0.00    +0.004 C 
ATOM      9  C   UNL     1      34.306 -15.625 -20.698  0.00  0.00    +0.000 C 
ATOM     10  C   UNL     1      32.784 -12.998 -20.527  0.00  0.00    +0.043 C 
ATOM     11  C   UNL     1      35.006 -16.829 -20.830  0.00  0.00    -0.002 C 
ATOM     12  C   UNL     1      33.881 -14.663 -24.330  0.00  0.00    +0.346 A 
ATOM     13  C   UNL     1      32.138 -11.731 -22.924  0.00  0.00    +0.078 C 
ATOM     14  C   UNL     1      31.759 -11.153 -21.718  0.00  0.00    +0.176 C 
ATOM     15  C   UNL     1      32.081 -11.785 -20.521  0.00  0.00    +0.173 C 
ENDROOT
BRANCH  15  16
ATOM     16  O   UNL     1      31.717 -11.231 -19.330  0.00  0.00    -0.468 OA
ATOM     17  C   UNL     1      32.483 -10.119 -18.872  0.00  0.00    +0.253 C 
ENDBRANCH  15  16
BRANCH   6  18
ATOM     18  C   UNL     1      36.075 -18.595 -22.232  0.00  0.00    +0.133 C 
ATOM     19  C   UNL     1      36.854 -18.970 -20.967  0.00  0.00    +0.037 C 
BRANCH  18  20
ATOM     20  O   UNL     1      35.165 -19.659 -22.537  0.00  0.00    -0.380 OA
ATOM     21  H   UNL     1      34.273 -19.297 -22.651  0.00  0.00    +0.211 HD
ENDBRANCH  18  20
ENDBRANCH   6  18
BRANCH  14  22
ATOM     22  O   UNL     1      31.077  -9.975 -21.721  0.00  0.00    -0.467 OA
BRANCH  22  23
ATOM     23  C   UNL     1      31.191  -9.161 -22.888  0.00  0.00    +0.232 C 
BRANCH  23  24
ATOM     24  C   UNL     1      31.444  -7.742 -22.472  0.00  0.00    +0.021 C 
ATOM     25  C   UNL     1      31.919  -7.473 -21.195  0.00  0.00    +0.002 C 
ATOM     26  C   UNL     1      31.198  -6.707 -23.370  0.00  0.00    +0.002 C 
ATOM     27  C   UNL     1      32.154  -6.153 -20.808  0.00  0.00    +0.037 C 
ATOM     28  C   UNL     1      31.432  -5.388 -22.983  0.00  0.00    +0.037 C 
ATOM     29  C   UNL     1      31.910  -5.111 -21.702  0.00  0.00    +0.139 C 
BRANCH  29  30
ATOM     30  O   UNL     1      32.139  -3.823 -21.325  0.00  0.00    -0.471 OA
ATOM     31  C   UNL     1      31.162  -2.853 -21.699  0.00  0.00    +0.252 C 
ENDBRANCH  29  30
ENDBRANCH  23  24
ENDBRANCH  22  23
ENDBRANCH  14  22
TORSDOF 7
ENDMDL
