MODEL 1
REMARK VINA RESULT:     -13.2      0.000      0.000
REMARK  Name = 66599893
REMARK  9 active torsions:
REMARK  status: ('A' for Active; 'I' for Inactive)
REMARK    1  A    between atoms: C_1  and  C_2
REMARK    2  A    between atoms: C_1  and  C_22
REMARK    3  A    between atoms: C_1  and  C_34
REMARK    4  A    between atoms: C_5  and  C_8
REMARK    5  A    between atoms: C_8  and  O_9
REMARK    6  A    between atoms: O_9  and  C_11
REMARK    7  A    between atoms: C_11  and  C_12
REMARK    8  A    between atoms: N_21  and  C_25
REMARK    9  A    between atoms: C_34  and  N_35
REMARK                            x       y       z     vdW  Elec       q    Type
REMARK                         _______ _______ _______ _____ _____    ______ ____
ROOT
ATOM      1  C   UNL     1      35.440 -17.301 -22.302  0.00  0.00    +0.077 C 
ENDROOT
BRANCH   1   2
ATOM      2  C   UNL     1      35.523 -18.558 -21.451  0.00  0.00    -0.016 C 
ATOM      3  C   UNL     1      34.381 -19.328 -21.230  0.00  0.00    -0.004 C 
ATOM      4  C   UNL     1      36.742 -18.942 -20.890  0.00  0.00    -0.004 C 
ATOM      5  C   UNL     1      35.675 -20.864 -19.888  0.00  0.00    +0.021 C 
ATOM      6  C   UNL     1      34.457 -20.481 -20.448  0.00  0.00    -0.001 C 
ATOM      7  C   UNL     1      36.817 -20.095 -20.108  0.00  0.00    -0.001 C 
BRANCH   5   8
ATOM      8  C   UNL     1      35.757 -22.098 -19.053  0.00  0.00    +0.235 C 
BRANCH   8   9
ATOM      9  O   UNL     1      34.698 -22.098 -18.104  0.00  0.00    -0.440 OA
BRANCH   9  11
ATOM     10  O   UNL     1      33.808 -24.031 -18.981  0.00  0.00    -0.245 OA
ATOM     11  C   UNL     1      33.918 -23.213 -18.081  0.00  0.00    +0.341 C 
BRANCH  11  12
ATOM     12  C   UNL     1      33.192 -23.319 -16.789  0.00  0.00    +0.072 C 
ATOM     13  C   UNL     1      33.873 -23.570 -15.599  0.00  0.00    -0.016 C 
ATOM     14  C   UNL     1      31.782 -23.511 -14.390  0.00  0.00    -0.022 C 
ATOM     15  C   UNL     1      33.168 -23.666 -14.399  0.00  0.00    -0.008 C 
ATOM     16  C   UNL     1      31.806 -23.164 -16.781  0.00  0.00    +0.006 C 
ATOM     17  C   UNL     1      31.101 -23.260 -15.581  0.00  0.00    -0.004 C 
ATOM     18  C   UNL     1      35.357 -23.740 -15.579  0.00  0.00    +0.031 C 
ATOM     19  C   UNL     1      31.027 -23.614 -13.109  0.00  0.00    +0.031 C 
ENDBRANCH  11  12
ENDBRANCH   9  11
ENDBRANCH   8   9
ENDBRANCH   5   8
ENDBRANCH   1   2
BRANCH   1  22
ATOM     20  O   UNL     1      34.904 -16.093 -20.278  0.00  0.00    -0.275 OA
ATOM     21  N   UNL     1      34.104 -15.260 -22.327  0.00  0.00    -0.284 N 
ATOM     22  C   UNL     1      34.800 -16.158 -21.500  0.00  0.00    +0.228 C 
ATOM     23  H   UNL     1      34.112 -15.467 -23.289  0.00  0.00    +0.155 HD
BRANCH  21  25
ATOM     24  N   UNL     1      31.271  -9.530 -21.677  0.00  0.00    -0.242 NA
ATOM     25  C   UNL     1      33.403 -14.111 -21.956  0.00  0.00    +0.050 C 
ATOM     26  C   UNL     1      33.388 -13.002 -22.804  0.00  0.00    +0.015 C 
ATOM     27  C   UNL     1      32.689 -11.838 -22.445  0.00  0.00    +0.004 C 
ATOM     28  C   UNL     1      32.722 -14.073 -20.743  0.00  0.00    +0.015 C 
ATOM     29  C   UNL     1      32.000 -11.803 -21.215  0.00  0.00    +0.019 C 
ATOM     30  C   UNL     1      32.022 -12.926 -20.370  0.00  0.00    +0.003 C 
ATOM     31  C   UNL     1      32.654 -10.709 -23.273  0.00  0.00    +0.021 C 
ATOM     32  C   UNL     1      31.316 -10.630 -20.892  0.00  0.00    +0.099 C 
ATOM     33  C   UNL     1      31.941  -9.599 -22.847  0.00  0.00    +0.099 C 
ENDBRANCH  21  25
ENDBRANCH   1  22
BRANCH   1  34
ATOM     34  C   UNL     1      34.677 -17.521 -23.624  0.00  0.00    -0.072 C 
BRANCH  34  35
ATOM     35  N   UNL     1      35.153 -16.634 -24.682  0.00  0.00    +0.381 N 
ATOM     36  H   UNL     1      34.390 -16.030 -24.988  0.00  0.00    -0.089 HD
ATOM     37  H   UNL     1      35.483 -17.191 -25.469  0.00  0.00    -0.089 HD
ATOM     38  H   UNL     1      35.919 -16.062 -24.326  0.00  0.00    -0.089 HD
ENDBRANCH  34  35
ENDBRANCH   1  34
TORSDOF 9
ENDMDL
MODEL 2
REMARK VINA RESULT:     -12.8      0.812      1.673
REMARK  Name = 66599893
REMARK  9 active torsions:
REMARK  status: ('A' for Active; 'I' for Inactive)
REMARK    1  A    between atoms: C_1  and  C_2
REMARK    2  A    between atoms: C_1  and  C_22
REMARK    3  A    between atoms: C_1  and  C_34
REMARK    4  A    between atoms: C_5  and  C_8
REMARK    5  A    between atoms: C_8  and  O_9
REMARK    6  A    between atoms: O_9  and  C_11
REMARK    7  A    between atoms: C_11  and  C_12
REMARK    8  A    between atoms: N_21  and  C_25
REMARK    9  A    between atoms: C_34  and  N_35
REMARK                            x       y       z     vdW  Elec       q    Type
REMARK                         _______ _______ _______ _____ _____    ______ ____
ROOT
ATOM      1  C   UNL     1      35.339 -17.821 -22.783  0.00  0.00    +0.077 C 
ENDROOT
BRANCH   1   2
ATOM      2  C   UNL     1      35.416 -18.916 -21.731  0.00  0.00    -0.016 C 
ATOM      3  C   UNL     1      36.640 -19.234 -21.142  0.00  0.00    -0.004 C 
ATOM      4  C   UNL     1      34.262 -19.604 -21.354  0.00  0.00    -0.004 C 
ATOM      5  C   UNL     1      35.557 -20.926 -19.802  0.00  0.00    +0.021 C 
ATOM      6  C   UNL     1      36.711 -20.239 -20.178  0.00  0.00    -0.001 C 
ATOM      7  C   UNL     1      34.333 -20.610 -20.390  0.00  0.00    -0.001 C 
BRANCH   5   8
ATOM      8  C   UNL     1      35.632 -22.001 -18.769  0.00  0.00    +0.235 C 
BRANCH   8   9
ATOM      9  O   UNL     1      34.419 -22.030 -18.028  0.00  0.00    -0.440 OA
BRANCH   9  11
ATOM     10  O   UNL     1      33.811 -24.111 -18.801  0.00  0.00    -0.245 OA
ATOM     11  C   UNL     1      33.798 -23.238 -17.946  0.00  0.00    +0.341 C 
BRANCH  11  12
ATOM     12  C   UNL     1      33.078 -23.372 -16.654  0.00  0.00    +0.072 C 
ATOM     13  C   UNL     1      33.762 -23.669 -15.476  0.00  0.00    -0.016 C 
ATOM     14  C   UNL     1      31.679 -23.617 -14.253  0.00  0.00    -0.022 C 
ATOM     15  C   UNL     1      33.063 -23.791 -14.275  0.00  0.00    -0.008 C 
ATOM     16  C   UNL     1      31.694 -23.198 -16.633  0.00  0.00    +0.006 C 
ATOM     17  C   UNL     1      30.994 -23.321 -15.432  0.00  0.00    -0.004 C 
ATOM     18  C   UNL     1      35.244 -23.860 -15.470  0.00  0.00    +0.031 C 
ATOM     19  C   UNL     1      30.930 -23.748 -12.971  0.00  0.00    +0.031 C 
ENDBRANCH  11  12
ENDBRANCH   9  11
ENDBRANCH   8   9
ENDBRANCH   5   8
ENDBRANCH   1   2
BRANCH   1  22
ATOM     20  O   UNL     1      35.030 -16.282 -20.944  0.00  0.00    -0.275 OA
ATOM     21  N   UNL     1      34.282 -15.643 -23.080  0.00  0.00    -0.284 N 
ATOM     22  C   UNL     1      34.880 -16.502 -22.143  0.00  0.00    +0.228 C 
ATOM     23  H   UNL     1      34.232 -15.981 -24.003  0.00  0.00    +0.155 HD
BRANCH  21  25
ATOM     24  N   UNL     1      31.502 -10.226 -21.027  0.00  0.00    -0.242 NA
ATOM     25  C   UNL     1      33.750 -14.369 -22.868  0.00  0.00    +0.050 C 
ATOM     26  C   UNL     1      33.111 -14.074 -21.662  0.00  0.00    +0.015 C 
ATOM     27  C   UNL     1      32.569 -12.799 -21.434  0.00  0.00    +0.004 C 
ATOM     28  C   UNL     1      33.858 -13.397 -23.858  0.00  0.00    +0.015 C 
ATOM     29  C   UNL     1      32.680 -11.816 -22.440  0.00  0.00    +0.019 C 
ATOM     30  C   UNL     1      33.326 -12.125 -23.649  0.00  0.00    +0.003 C 
ATOM     31  C   UNL     1      31.922 -12.472 -20.236  0.00  0.00    +0.021 C 
ATOM     32  C   UNL     1      32.131 -10.560 -22.177  0.00  0.00    +0.099 C 
ATOM     33  C   UNL     1      31.414 -11.191 -20.087  0.00  0.00    +0.099 C 
ENDBRANCH  21  25
ENDBRANCH   1  22
BRANCH   1  34
ATOM     34  C   UNL     1      34.422 -18.190 -23.966  0.00  0.00    -0.072 C 
BRANCH  34  35
ATOM     35  N   UNL     1      34.564 -19.592 -24.349  0.00  0.00    +0.381 N 
ATOM     36  H   UNL     1      34.347 -19.697 -25.340  0.00  0.00    -0.089 HD
ATOM     37  H   UNL     1      33.923 -20.161 -23.798  0.00  0.00    -0.089 HD
ATOM     38  H   UNL     1      35.522 -19.896 -24.176  0.00  0.00    -0.089 HD
ENDBRANCH  34  35
ENDBRANCH   1  34
TORSDOF 9
ENDMDL
MODEL 3
REMARK VINA RESULT:     -12.6      4.604      8.546
REMARK  Name = 66599893
REMARK  9 active torsions:
REMARK  status: ('A' for Active; 'I' for Inactive)
REMARK    1  A    between atoms: C_1  and  C_2
REMARK    2  A    between atoms: C_1  and  C_22
REMARK    3  A    between atoms: C_1  and  C_34
REMARK    4  A    between atoms: C_5  and  C_8
REMARK    5  A    between atoms: C_8  and  O_9
REMARK    6  A    between atoms: O_9  and  C_11
REMARK    7  A    between atoms: C_11  and  C_12
REMARK    8  A    between atoms: N_21  and  C_25
REMARK    9  A    between atoms: C_34  and  N_35
REMARK                            x       y       z     vdW  Elec       q    Type
REMARK                         _______ _______ _______ _____ _____    ______ ____
ROOT
ATOM      1  C   UNL     1      31.419 -10.135 -20.678  0.00  0.00    +0.077 C 
ENDROOT
BRANCH   1   2
ATOM      2  C   UNL     1      31.980 -11.235 -21.565  0.00  0.00    -0.016 C 
ATOM      3  C   UNL     1      32.543 -10.917 -22.801  0.00  0.00    -0.004 C 
ATOM      4  C   UNL     1      31.932 -12.565 -21.142  0.00  0.00    -0.004 C 
ATOM      5  C   UNL     1      33.008 -13.254 -23.192  0.00  0.00    +0.021 C 
ATOM      6  C   UNL     1      33.056 -11.926 -23.615  0.00  0.00    -0.001 C 
ATOM      7  C   UNL     1      32.445 -13.574 -21.957  0.00  0.00    -0.001 C 
BRANCH   5   8
ATOM      8  C   UNL     1      33.559 -14.334 -24.062  0.00  0.00    +0.235 C 
BRANCH   8   9
ATOM      9  O   UNL     1      34.166 -15.332 -23.250  0.00  0.00    -0.440 OA
BRANCH   9  11
ATOM     10  O   UNL     1      34.954 -16.449 -25.102  0.00  0.00    -0.245 OA
ATOM     11  C   UNL     1      34.692 -16.399 -23.910  0.00  0.00    +0.341 C 
BRANCH  11  12
ATOM     12  C   UNL     1      34.915 -17.534 -22.979  0.00  0.00    +0.072 C 
ATOM     13  C   UNL     1      34.445 -18.813 -23.275  0.00  0.00    -0.016 C 
ATOM     14  C   UNL     1      35.360 -19.633 -21.194  0.00  0.00    -0.022 C 
ATOM     15  C   UNL     1      34.667 -19.862 -22.383  0.00  0.00    -0.008 C 
ATOM     16  C   UNL     1      35.608 -17.304 -21.790  0.00  0.00    +0.006 C 
ATOM     17  C   UNL     1      35.830 -18.353 -20.898  0.00  0.00    -0.004 C 
ATOM     18  C   UNL     1      33.700 -19.088 -24.541  0.00  0.00    +0.031 C 
ATOM     19  C   UNL     1      35.597 -20.753 -20.239  0.00  0.00    +0.031 C 
ENDBRANCH  11  12
ENDBRANCH   9  11
ENDBRANCH   8   9
ENDBRANCH   5   8
ENDBRANCH   1   2
BRANCH   1  22
ATOM     20  O   UNL     1      33.105  -8.404 -20.604  0.00  0.00    -0.275 OA
ATOM     21  N   UNL     1      31.208  -8.067 -21.954  0.00  0.00    -0.284 N 
ATOM     22  C   UNL     1      32.029  -8.779 -21.063  0.00  0.00    +0.228 C 
ATOM     23  H   UNL     1      30.369  -8.511 -22.214  0.00  0.00    +0.155 HD
BRANCH  21  25
ATOM     24  N   UNL     1      32.105  -1.875 -23.416  0.00  0.00    -0.242 NA
ATOM     25  C   UNL     1      31.433  -6.809 -22.517  0.00  0.00    +0.050 C 
ATOM     26  C   UNL     1      31.429  -5.673 -21.707  0.00  0.00    +0.015 C 
ATOM     27  C   UNL     1      31.651  -4.401 -22.259  0.00  0.00    +0.004 C 
ATOM     28  C   UNL     1      31.662  -6.692 -23.885  0.00  0.00    +0.015 C 
ATOM     29  C   UNL     1      31.882  -4.286 -23.645  0.00  0.00    +0.019 C 
ATOM     30  C   UNL     1      31.886  -5.437 -24.451  0.00  0.00    +0.003 C 
ATOM     31  C   UNL     1      31.653  -3.242 -21.473  0.00  0.00    +0.021 C 
ATOM     32  C   UNL     1      32.101  -3.005 -24.158  0.00  0.00    +0.099 C 
ATOM     33  C   UNL     1      31.882  -2.023 -22.093  0.00  0.00    +0.099 C 
ENDBRANCH  21  25
ENDBRANCH   1  22
BRANCH   1  34
ATOM     34  C   UNL     1      31.631 -10.410 -19.175  0.00  0.00    -0.072 C 
BRANCH  34  35
ATOM     35  N   UNL     1      31.568  -9.185 -18.383  0.00  0.00    +0.381 N 
ATOM     36  H   UNL     1      32.462  -9.036 -17.916  0.00  0.00    -0.089 HD
ATOM     37  H   UNL     1      30.830  -9.269 -17.685  0.00  0.00    -0.089 HD
ATOM     38  H   UNL     1      31.368  -8.394 -18.995  0.00  0.00    -0.089 HD
ENDBRANCH  34  35
ENDBRANCH   1  34
TORSDOF 9
ENDMDL
MODEL 4
REMARK VINA RESULT:     -12.5      1.743      3.197
REMARK  Name = 66599893
REMARK  9 active torsions:
REMARK  status: ('A' for Active; 'I' for Inactive)
REMARK    1  A    between atoms: C_1  and  C_2
REMARK    2  A    between atoms: C_1  and  C_22
REMARK    3  A    between atoms: C_1  and  C_34
REMARK    4  A    between atoms: C_5  and  C_8
REMARK    5  A    between atoms: C_8  and  O_9
REMARK    6  A    between atoms: O_9  and  C_11
REMARK    7  A    between atoms: C_11  and  C_12
REMARK    8  A    between atoms: N_21  and  C_25
REMARK    9  A    between atoms: C_34  and  N_35
REMARK                            x       y       z     vdW  Elec       q    Type
REMARK                         _______ _______ _______ _____ _____    ______ ____
ROOT
ATOM      1  C   UNL     1      35.714 -18.530 -21.910  0.00  0.00    +0.077 C 
ENDROOT
BRANCH   1   2
ATOM      2  C   UNL     1      35.189 -19.623 -20.992  0.00  0.00    -0.016 C 
ATOM      3  C   UNL     1      36.081 -20.431 -20.286  0.00  0.00    -0.004 C 
ATOM      4  C   UNL     1      33.814 -19.817 -20.854  0.00  0.00    -0.004 C 
ATOM      5  C   UNL     1      34.225 -21.627 -19.307  0.00  0.00    +0.021 C 
ATOM      6  C   UNL     1      35.599 -21.433 -19.445  0.00  0.00    -0.001 C 
ATOM      7  C   UNL     1      33.332 -20.820 -20.012  0.00  0.00    -0.001 C 
BRANCH   5   8
ATOM      8  C   UNL     1      33.709 -22.698 -18.406  0.00  0.00    +0.235 C 
BRANCH   8   9
ATOM      9  O   UNL     1      34.752 -23.133 -17.543  0.00  0.00    -0.440 OA
BRANCH   9  11
ATOM     10  O   UNL     1      33.319 -23.095 -15.743  0.00  0.00    -0.245 OA
ATOM     11  C   UNL     1      34.402 -23.350 -16.246  0.00  0.00    +0.341 C 
BRANCH  11  12
ATOM     12  C   UNL     1      35.530 -23.952 -15.491  0.00  0.00    +0.072 C 
ATOM     13  C   UNL     1      36.769 -23.317 -15.417  0.00  0.00    -0.016 C 
ATOM     14  C   UNL     1      37.618 -25.127 -14.061  0.00  0.00    -0.022 C 
ATOM     15  C   UNL     1      37.813 -23.903 -14.703  0.00  0.00    -0.008 C 
ATOM     16  C   UNL     1      35.335 -25.176 -14.851  0.00  0.00    +0.006 C 
ATOM     17  C   UNL     1      36.378 -25.764 -14.136  0.00  0.00    -0.004 C 
ATOM     18  C   UNL     1      37.005 -22.006 -16.093  0.00  0.00    +0.031 C 
ATOM     19  C   UNL     1      38.733 -25.757 -13.298  0.00  0.00    +0.031 C 
ENDBRANCH  11  12
ENDBRANCH   9  11
ENDBRANCH   8   9
ENDBRANCH   5   8
ENDBRANCH   1   2
BRANCH   1  22
ATOM     20  O   UNL     1      35.112 -16.828 -20.302  0.00  0.00    -0.275 OA
ATOM     21  N   UNL     1      34.717 -16.408 -22.582  0.00  0.00    -0.284 N 
ATOM     22  C   UNL     1      35.157 -17.164 -21.483  0.00  0.00    +0.228 C 
ATOM     23  H   UNL     1      34.816 -16.834 -23.464  0.00  0.00    +0.155 HD
BRANCH  21  25
ATOM     24  N   UNL     1      31.786 -10.802 -21.457  0.00  0.00    -0.242 NA
ATOM     25  C   UNL     1      34.156 -15.129 -22.581  0.00  0.00    +0.050 C 
ATOM     26  C   UNL     1      33.480 -14.666 -21.452  0.00  0.00    +0.015 C 
ATOM     27  C   UNL     1      32.909 -13.383 -21.436  0.00  0.00    +0.004 C 
ATOM     28  C   UNL     1      34.273 -14.319 -23.707  0.00  0.00    +0.015 C 
ATOM     29  C   UNL     1      33.030 -12.565 -22.578  0.00  0.00    +0.019 C 
ATOM     30  C   UNL     1      33.714 -13.042 -23.710  0.00  0.00    +0.003 C 
ATOM     31  C   UNL     1      32.225 -12.890 -20.319  0.00  0.00    +0.021 C 
ATOM     32  C   UNL     1      32.451 -11.296 -22.526  0.00  0.00    +0.099 C 
ATOM     33  C   UNL     1      31.690 -11.612 -20.382  0.00  0.00    +0.099 C 
ENDBRANCH  21  25
ENDBRANCH   1  22
BRANCH   1  34
ATOM     34  C   UNL     1      35.401 -18.795 -23.396  0.00  0.00    -0.072 C 
BRANCH  34  35
ATOM     35  N   UNL     1      34.986 -20.176 -23.628  0.00  0.00    +0.381 N 
ATOM     36  H   UNL     1      33.969 -20.239 -23.575  0.00  0.00    -0.089 HD
ATOM     37  H   UNL     1      35.400 -20.779 -22.917  0.00  0.00    -0.089 HD
ATOM     38  H   UNL     1      35.299 -20.475 -24.551  0.00  0.00    -0.089 HD
ENDBRANCH  34  35
ENDBRANCH   1  34
TORSDOF 9
ENDMDL
MODEL 5
REMARK VINA RESULT:     -12.4      2.978     10.701
REMARK  Name = 66599893
REMARK  9 active torsions:
REMARK  status: ('A' for Active; 'I' for Inactive)
REMARK    1  A    between atoms: C_1  and  C_2
REMARK    2  A    between atoms: C_1  and  C_22
REMARK    3  A    between atoms: C_1  and  C_34
REMARK    4  A    between atoms: C_5  and  C_8
REMARK    5  A    between atoms: C_8  and  O_9
REMARK    6  A    between atoms: O_9  and  C_11
REMARK    7  A    between atoms: C_11  and  C_12
REMARK    8  A    between atoms: N_21  and  C_25
REMARK    9  A    between atoms: C_34  and  N_35
REMARK                            x       y       z     vdW  Elec       q    Type
REMARK                         _______ _______ _______ _____ _____    ______ ____
ROOT
ATOM      1  C   UNL     1      35.999 -19.472 -21.690  0.00  0.00    +0.077 C 
ENDROOT
BRANCH   1   2
ATOM      2  C   UNL     1      35.354 -18.307 -22.425  0.00  0.00    -0.016 C 
ATOM      3  C   UNL     1      35.329 -17.040 -21.841  0.00  0.00    -0.004 C 
ATOM      4  C   UNL     1      34.786 -18.505 -23.684  0.00  0.00    -0.004 C 
ATOM      5  C   UNL     1      34.169 -16.171 -23.773  0.00  0.00    +0.021 C 
ATOM      6  C   UNL     1      34.736 -15.973 -22.515  0.00  0.00    -0.001 C 
ATOM      7  C   UNL     1      34.193 -17.438 -24.357  0.00  0.00    -0.001 C 
BRANCH   5   8
ATOM      8  C   UNL     1      33.536 -15.029 -24.495  0.00  0.00    +0.235 C 
BRANCH   8   9
ATOM      9  O   UNL     1      32.866 -14.192 -23.560  0.00  0.00    -0.440 OA
BRANCH   9  11
ATOM     10  O   UNL     1      34.232 -12.423 -24.109  0.00  0.00    -0.245 OA
ATOM     11  C   UNL     1      33.376 -12.940 -23.408  0.00  0.00    +0.341 C 
BRANCH  11  12
ATOM     12  C   UNL     1      32.748 -12.255 -22.249  0.00  0.00    +0.072 C 
ATOM     13  C   UNL     1      32.320 -10.931 -22.341  0.00  0.00    -0.016 C 
ATOM     14  C   UNL     1      31.576 -11.012 -20.043  0.00  0.00    -0.022 C 
ATOM     15  C   UNL     1      31.734 -10.309 -21.238  0.00  0.00    -0.008 C 
ATOM     16  C   UNL     1      32.591 -12.958 -21.055  0.00  0.00    +0.006 C 
ATOM     17  C   UNL     1      32.005 -12.337 -19.952  0.00  0.00    -0.004 C 
ATOM     18  C   UNL     1      32.475 -10.155 -23.608  0.00  0.00    +0.031 C 
ATOM     19  C   UNL     1      30.951 -10.349 -18.863  0.00  0.00    +0.031 C 
ENDBRANCH  11  12
ENDBRANCH   9  11
ENDBRANCH   8   9
ENDBRANCH   5   8
ENDBRANCH   1   2
BRANCH   1  22
ATOM     20  O   UNL     1      33.776 -19.924 -20.856  0.00  0.00    -0.275 OA
ATOM     21  N   UNL     1      35.603 -20.966 -19.803  0.00  0.00    -0.284 N 
ATOM     22  C   UNL     1      34.981 -20.138 -20.752  0.00  0.00    +0.228 C 
ATOM     23  H   UNL     1      36.584 -21.017 -19.854  0.00  0.00    +0.155 HD
BRANCH  21  25
ATOM     24  N   UNL     1      33.933 -24.414 -14.645  0.00  0.00    -0.242 NA
ATOM     25  C   UNL     1      35.004 -21.728 -18.798  0.00  0.00    +0.050 C 
ATOM     26  C   UNL     1      35.746 -22.110 -17.679  0.00  0.00    +0.015 C 
ATOM     27  C   UNL     1      35.159 -22.877 -16.660  0.00  0.00    +0.004 C 
ATOM     28  C   UNL     1      33.669 -22.104 -18.912  0.00  0.00    +0.015 C 
ATOM     29  C   UNL     1      33.806 -23.257 -16.780  0.00  0.00    +0.019 C 
ATOM     30  C   UNL     1      33.068 -22.866 -17.910  0.00  0.00    +0.003 C 
ATOM     31  C   UNL     1      35.877 -23.276 -15.526  0.00  0.00    +0.021 C 
ATOM     32  C   UNL     1      33.256 -24.018 -15.747  0.00  0.00    +0.099 C 
ATOM     33  C   UNL     1      35.225 -24.032 -14.563  0.00  0.00    +0.099 C 
ENDBRANCH  21  25
ENDBRANCH   1  22
BRANCH   1  34
ATOM     34  C   UNL     1      37.260 -19.060 -20.904  0.00  0.00    -0.072 C 
BRANCH  34  35
ATOM     35  N   UNL     1      38.370 -18.725 -21.793  0.00  0.00    +0.381 N 
ATOM     36  H   UNL     1      38.003 -18.363 -22.673  0.00  0.00    -0.089 HD
ATOM     37  H   UNL     1      38.925 -19.561 -21.974  0.00  0.00    -0.089 HD
ATOM     38  H   UNL     1      38.957 -18.017 -21.352  0.00  0.00    -0.089 HD
ENDBRANCH  34  35
ENDBRANCH   1  34
TORSDOF 9
ENDMDL
MODEL 6
REMARK VINA RESULT:     -12.2      3.650     10.678
REMARK  Name = 66599893
REMARK  9 active torsions:
REMARK  status: ('A' for Active; 'I' for Inactive)
REMARK    1  A    between atoms: C_1  and  C_2
REMARK    2  A    between atoms: C_1  and  C_22
REMARK    3  A    between atoms: C_1  and  C_34
REMARK    4  A    between atoms: C_5  and  C_8
REMARK    5  A    between atoms: C_8  and  O_9
REMARK    6  A    between atoms: O_9  and  C_11
REMARK    7  A    between atoms: C_11  and  C_12
REMARK    8  A    between atoms: N_21  and  C_25
REMARK    9  A    between atoms: C_34  and  N_35
REMARK                            x       y       z     vdW  Elec       q    Type
REMARK                         _______ _______ _______ _____ _____    ______ ____
ROOT
ATOM      1  C   UNL     1      36.058 -22.217 -18.381  0.00  0.00    +0.077 C 
ENDROOT
BRANCH   1   2
ATOM      2  C   UNL     1      35.769 -21.155 -19.430  0.00  0.00    -0.016 C 
ATOM      3  C   UNL     1      34.467 -20.970 -19.897  0.00  0.00    -0.004 C 
ATOM      4  C   UNL     1      36.806 -20.363 -19.924  0.00  0.00    -0.004 C 
ATOM      5  C   UNL     1      35.240 -19.206 -21.354  0.00  0.00    +0.021 C 
ATOM      6  C   UNL     1      34.203 -19.997 -20.860  0.00  0.00    -0.001 C 
ATOM      7  C   UNL     1      36.541 -19.389 -20.887  0.00  0.00    -0.001 C 
BRANCH   5   8
ATOM      8  C   UNL     1      34.957 -18.162 -22.383  0.00  0.00    +0.235 C 
BRANCH   8   9
ATOM      9  O   UNL     1      34.947 -16.881 -21.766  0.00  0.00    -0.440 OA
BRANCH   9  11
ATOM     10  O   UNL     1      35.603 -15.694 -23.626  0.00  0.00    -0.245 OA
ATOM     11  C   UNL     1      34.936 -15.813 -22.609  0.00  0.00    +0.341 C 
BRANCH  11  12
ATOM     12  C   UNL     1      33.987 -14.775 -22.131  0.00  0.00    +0.072 C 
ATOM     13  C   UNL     1      33.230 -14.024 -23.028  0.00  0.00    -0.016 C 
ATOM     14  C   UNL     1      32.220 -12.836 -21.182  0.00  0.00    -0.022 C 
ATOM     15  C   UNL     1      32.346 -13.054 -22.554  0.00  0.00    -0.008 C 
ATOM     16  C   UNL     1      33.862 -14.558 -20.759  0.00  0.00    +0.006 C 
ATOM     17  C   UNL     1      32.979 -13.588 -20.284  0.00  0.00    -0.004 C 
ATOM     18  C   UNL     1      33.343 -14.236 -24.503  0.00  0.00    +0.031 C 
ATOM     19  C   UNL     1      31.277 -11.800 -20.673  0.00  0.00    +0.031 C 
ENDBRANCH  11  12
ENDBRANCH   9  11
ENDBRANCH   8   9
ENDBRANCH   5   8
ENDBRANCH   1   2
BRANCH   1  22
ATOM     20  O   UNL     1      34.154 -23.620 -18.884  0.00  0.00    -0.275 OA
ATOM     21  N   UNL     1      34.425 -22.843 -16.681  0.00  0.00    -0.284 N 
ATOM     22  C   UNL     1      34.773 -22.984 -18.034  0.00  0.00    +0.228 C 
ATOM     23  H   UNL     1      35.028 -22.287 -16.137  0.00  0.00    +0.155 HD
BRANCH  21  25
ATOM     24  N   UNL     1      28.737 -24.841 -14.457  0.00  0.00    -0.242 NA
ATOM     25  C   UNL     1      33.331 -23.393 -16.009  0.00  0.00    +0.050 C 
ATOM     26  C   UNL     1      32.039 -23.182 -16.493  0.00  0.00    +0.015 C 
ATOM     27  C   UNL     1      30.928 -23.726 -15.828  0.00  0.00    +0.004 C 
ATOM     28  C   UNL     1      33.531 -24.150 -14.858  0.00  0.00    +0.015 C 
ATOM     29  C   UNL     1      31.135 -24.493 -14.662  0.00  0.00    +0.019 C 
ATOM     30  C   UNL     1      32.440 -24.699 -14.184  0.00  0.00    +0.003 C 
ATOM     31  C   UNL     1      29.620 -23.532 -16.288  0.00  0.00    +0.021 C 
ATOM     32  C   UNL     1      30.008 -25.018 -14.028  0.00  0.00    +0.099 C 
ATOM     33  C   UNL     1      28.577 -24.103 -15.576  0.00  0.00    +0.099 C 
ENDBRANCH  21  25
ENDBRANCH   1  22
BRANCH   1  34
ATOM     34  C   UNL     1      36.698 -21.639 -17.102  0.00  0.00    -0.072 C 
BRANCH  34  35
ATOM     35  N   UNL     1      37.547 -22.618 -16.428  0.00  0.00    +0.381 N 
ATOM     36  H   UNL     1      37.609 -23.463 -16.996  0.00  0.00    -0.089 HD
ATOM     37  H   UNL     1      37.145 -22.848 -15.520  0.00  0.00    -0.089 HD
ATOM     38  H   UNL     1      38.479 -22.226 -16.297  0.00  0.00    -0.089 HD
ENDBRANCH  34  35
ENDBRANCH   1  34
TORSDOF 9
ENDMDL
MODEL 7
REMARK VINA RESULT:     -12.1      1.809      2.843
REMARK  Name = 66599893
REMARK  9 active torsions:
REMARK  status: ('A' for Active; 'I' for Inactive)
REMARK    1  A    between atoms: C_1  and  C_2
REMARK    2  A    between atoms: C_1  and  C_22
REMARK    3  A    between atoms: C_1  and  C_34
REMARK    4  A    between atoms: C_5  and  C_8
REMARK    5  A    between atoms: C_8  and  O_9
REMARK    6  A    between atoms: O_9  and  C_11
REMARK    7  A    between atoms: C_11  and  C_12
REMARK    8  A    between atoms: N_21  and  C_25
REMARK    9  A    between atoms: C_34  and  N_35
REMARK                            x       y       z     vdW  Elec       q    Type
REMARK                         _______ _______ _______ _____ _____    ______ ____
ROOT
ATOM      1  C   UNL     1      36.200 -18.678 -20.999  0.00  0.00    +0.077 C 
ENDROOT
BRANCH   1   2
ATOM      2  C   UNL     1      35.474 -19.869 -20.392  0.00  0.00    -0.016 C 
ATOM      3  C   UNL     1      34.087 -19.970 -20.499  0.00  0.00    -0.004 C 
ATOM      4  C   UNL     1      36.196 -20.861 -19.727  0.00  0.00    -0.004 C 
ATOM      5  C   UNL     1      34.143 -22.053 -19.278  0.00  0.00    +0.021 C 
ATOM      6  C   UNL     1      33.422 -21.061 -19.941  0.00  0.00    -0.001 C 
ATOM      7  C   UNL     1      35.530 -21.952 -19.169  0.00  0.00    -0.001 C 
BRANCH   5   8
ATOM      8  C   UNL     1      33.432 -23.221 -18.682  0.00  0.00    +0.235 C 
BRANCH   8   9
ATOM      9  O   UNL     1      34.146 -23.678 -17.540  0.00  0.00    -0.440 OA
BRANCH   9  11
ATOM     10  O   UNL     1      32.355 -23.252 -16.160  0.00  0.00    -0.245 OA
ATOM     11  C   UNL     1      33.543 -23.474 -16.338  0.00  0.00    +0.341 C 
BRANCH  11  12
ATOM     12  C   UNL     1      34.531 -23.555 -15.233  0.00  0.00    +0.072 C 
ATOM     13  C   UNL     1      34.205 -24.153 -14.016  0.00  0.00    -0.016 C 
ATOM     14  C   UNL     1      36.425 -23.679 -13.187  0.00  0.00    -0.022 C 
ATOM     15  C   UNL     1      35.152 -24.216 -12.994  0.00  0.00    -0.008 C 
ATOM     16  C   UNL     1      35.804 -23.018 -15.427  0.00  0.00    +0.006 C 
ATOM     17  C   UNL     1      36.751 -23.080 -14.405  0.00  0.00    -0.004 C 
ATOM     18  C   UNL     1      32.850 -24.736 -13.782  0.00  0.00    +0.031 C 
ATOM     19  C   UNL     1      37.437 -23.744 -12.095  0.00  0.00    +0.031 C 
ENDBRANCH  11  12
ENDBRANCH   9  11
ENDBRANCH   8   9
ENDBRANCH   5   8
ENDBRANCH   1   2
BRANCH   1  22
ATOM     20  O   UNL     1      34.602 -17.862 -22.619  0.00  0.00    -0.275 OA
ATOM     21  N   UNL     1      35.053 -16.543 -20.725  0.00  0.00    -0.284 N 
ATOM     22  C   UNL     1      35.187 -17.667 -21.557  0.00  0.00    +0.228 C 
ATOM     23  H   UNL     1      35.607 -16.541 -19.912  0.00  0.00    +0.155 HD
BRANCH  21  25
ATOM     24  N   UNL     1      31.961 -11.209 -22.536  0.00  0.00    -0.242 NA
ATOM     25  C   UNL     1      34.232 -15.427 -20.907  0.00  0.00    +0.050 C 
ATOM     26  C   UNL     1      34.441 -14.579 -21.996  0.00  0.00    +0.015 C 
ATOM     27  C   UNL     1      33.626 -13.453 -22.191  0.00  0.00    +0.004 C 
ATOM     28  C   UNL     1      33.208 -15.164 -20.002  0.00  0.00    +0.015 C 
ATOM     29  C   UNL     1      32.589 -13.189 -21.272  0.00  0.00    +0.019 C 
ATOM     30  C   UNL     1      32.388 -14.050 -20.180  0.00  0.00    +0.003 C 
ATOM     31  C   UNL     1      33.810 -12.583 -23.273  0.00  0.00    +0.021 C 
ATOM     32  C   UNL     1      31.798 -12.061 -21.499  0.00  0.00    +0.099 C 
ATOM     33  C   UNL     1      32.962 -11.493 -23.396  0.00  0.00    +0.099 C 
ENDBRANCH  21  25
ENDBRANCH   1  22
BRANCH   1  34
ATOM     34  C   UNL     1      37.209 -19.085 -22.092  0.00  0.00    -0.072 C 
BRANCH  34  35
ATOM     35  N   UNL     1      38.575 -18.707 -21.740  0.00  0.00    +0.381 N 
ATOM     36  H   UNL     1      39.195 -19.504 -21.883  0.00  0.00    -0.089 HD
ATOM     37  H   UNL     1      38.607 -18.424 -20.760  0.00  0.00    -0.089 HD
ATOM     38  H   UNL     1      38.875 -17.931 -22.328  0.00  0.00    -0.089 HD
ENDBRANCH  34  35
ENDBRANCH   1  34
TORSDOF 9
ENDMDL
MODEL 8
REMARK VINA RESULT:     -11.8      1.648      2.696
REMARK  Name = 66599893
REMARK  9 active torsions:
REMARK  status: ('A' for Active; 'I' for Inactive)
REMARK    1  A    between atoms: C_1  and  C_2
REMARK    2  A    between atoms: C_1  and  C_22
REMARK    3  A    between atoms: C_1  and  C_34
REMARK    4  A    between atoms: C_5  and  C_8
REMARK    5  A    between atoms: C_8  and  O_9
REMARK    6  A    between atoms: O_9  and  C_11
REMARK    7  A    between atoms: C_11  and  C_12
REMARK    8  A    between atoms: N_21  and  C_25
REMARK    9  A    between atoms: C_34  and  N_35
REMARK                            x       y       z     vdW  Elec       q    Type
REMARK                         _______ _______ _______ _____ _____    ______ ____
ROOT
ATOM      1  C   UNL     1      35.546 -17.893 -21.878  0.00  0.00    +0.077 C 
ENDROOT
BRANCH   1   2
ATOM      2  C   UNL     1      35.236 -19.143 -21.068  0.00  0.00    -0.016 C 
ATOM      3  C   UNL     1      36.276 -19.926 -20.568  0.00  0.00    -0.004 C 
ATOM      4  C   UNL     1      33.911 -19.505 -20.824  0.00  0.00    -0.004 C 
ATOM      5  C   UNL     1      34.667 -21.435 -19.583  0.00  0.00    +0.021 C 
ATOM      6  C   UNL     1      35.991 -21.073 -19.826  0.00  0.00    -0.001 C 
ATOM      7  C   UNL     1      33.627 -20.652 -20.083  0.00  0.00    -0.001 C 
BRANCH   5   8
ATOM      8  C   UNL     1      34.362 -22.660 -18.788  0.00  0.00    +0.235 C 
BRANCH   8   9
ATOM      9  O   UNL     1      35.164 -22.673 -17.613  0.00  0.00    -0.440 OA
BRANCH   9  11
ATOM     10  O   UNL     1      33.382 -23.120 -16.226  0.00  0.00    -0.245 OA
ATOM     11  C   UNL     1      34.573 -23.172 -16.494  0.00  0.00    +0.341 C 
BRANCH  11  12
ATOM     12  C   UNL     1      35.580 -23.807 -15.606  0.00  0.00    +0.072 C 
ATOM     13  C   UNL     1      36.844 -23.244 -15.432  0.00  0.00    -0.016 C 
ATOM     14  C   UNL     1      37.438 -25.040 -13.930  0.00  0.00    -0.022 C 
ATOM     15  C   UNL     1      37.773 -23.860 -14.594  0.00  0.00    -0.008 C 
ATOM     16  C   UNL     1      35.245 -24.987 -14.943  0.00  0.00    +0.006 C 
ATOM     17  C   UNL     1      36.173 -25.604 -14.104  0.00  0.00    -0.004 C 
ATOM     18  C   UNL     1      37.229 -21.980 -16.130  0.00  0.00    +0.031 C 
ATOM     19  C   UNL     1      38.430 -25.701 -13.034  0.00  0.00    +0.031 C 
ENDBRANCH  11  12
ENDBRANCH   9  11
ENDBRANCH   8   9
ENDBRANCH   5   8
ENDBRANCH   1   2
BRANCH   1  22
ATOM     20  O   UNL     1      35.098 -16.469 -19.977  0.00  0.00    -0.275 OA
ATOM     21  N   UNL     1      34.280 -15.818 -22.084  0.00  0.00    -0.284 N 
ATOM     22  C   UNL     1      34.964 -16.653 -21.184  0.00  0.00    +0.228 C 
ATOM     23  H   UNL     1      34.259 -16.122 -23.020  0.00  0.00    +0.155 HD
BRANCH  21  25
ATOM     24  N   UNL     1      31.673  -9.947 -21.958  0.00  0.00    -0.242 NA
ATOM     25  C   UNL     1      33.628 -14.613 -21.818  0.00  0.00    +0.050 C 
ATOM     26  C   UNL     1      33.642 -13.590 -22.768  0.00  0.00    +0.015 C 
ATOM     27  C   UNL     1      32.993 -12.371 -22.515  0.00  0.00    +0.004 C 
ATOM     28  C   UNL     1      32.965 -14.433 -20.607  0.00  0.00    +0.015 C 
ATOM     29  C   UNL     1      32.322 -12.193 -21.287  0.00  0.00    +0.019 C 
ATOM     30  C   UNL     1      32.314 -13.230 -20.339  0.00  0.00    +0.003 C 
ATOM     31  C   UNL     1      32.989 -11.326 -23.447  0.00  0.00    +0.021 C 
ATOM     32  C   UNL     1      31.687 -10.968 -21.071  0.00  0.00    +0.099 C 
ATOM     33  C   UNL     1      32.323 -10.153 -23.123  0.00  0.00    +0.099 C 
ENDBRANCH  21  25
ENDBRANCH   1  22
BRANCH   1  34
ATOM     34  C   UNL     1      35.039 -17.981 -23.332  0.00  0.00    -0.072 C 
BRANCH  34  35
ATOM     35  N   UNL     1      34.690 -19.348 -23.706  0.00  0.00    +0.381 N 
ATOM     36  H   UNL     1      34.843 -19.968 -22.910  0.00  0.00    -0.089 HD
ATOM     37  H   UNL     1      35.276 -19.647 -24.485  0.00  0.00    -0.089 HD
ATOM     38  H   UNL     1      33.710 -19.385 -23.984  0.00  0.00    -0.089 HD
ENDBRANCH  34  35
ENDBRANCH   1  34
TORSDOF 9
ENDMDL
MODEL 9
REMARK VINA RESULT:     -11.7      3.438     10.811
REMARK  Name = 66599893
REMARK  9 active torsions:
REMARK  status: ('A' for Active; 'I' for Inactive)
REMARK    1  A    between atoms: C_1  and  C_2
REMARK    2  A    between atoms: C_1  and  C_22
REMARK    3  A    between atoms: C_1  and  C_34
REMARK    4  A    between atoms: C_5  and  C_8
REMARK    5  A    between atoms: C_8  and  O_9
REMARK    6  A    between atoms: O_9  and  C_11
REMARK    7  A    between atoms: C_11  and  C_12
REMARK    8  A    between atoms: N_21  and  C_25
REMARK    9  A    between atoms: C_34  and  N_35
REMARK                            x       y       z     vdW  Elec       q    Type
REMARK                         _______ _______ _______ _____ _____    ______ ____
ROOT
ATOM      1  C   UNL     1      36.158 -21.964 -18.867  0.00  0.00    +0.077 C 
ENDROOT
BRANCH   1   2
ATOM      2  C   UNL     1      35.825 -20.844 -19.840  0.00  0.00    -0.016 C 
ATOM      3  C   UNL     1      34.513 -20.668 -20.280  0.00  0.00    -0.004 C 
ATOM      4  C   UNL     1      36.833 -19.992 -20.294  0.00  0.00    -0.004 C 
ATOM      5  C   UNL     1      35.215 -18.791 -21.627  0.00  0.00    +0.021 C 
ATOM      6  C   UNL     1      34.208 -19.642 -21.174  0.00  0.00    -0.001 C 
ATOM      7  C   UNL     1      36.527 -18.966 -21.188  0.00  0.00    -0.001 C 
BRANCH   5   8
ATOM      8  C   UNL     1      34.889 -17.692 -22.582  0.00  0.00    +0.235 C 
BRANCH   8   9
ATOM      9  O   UNL     1      35.429 -16.468 -22.097  0.00  0.00    -0.440 OA
BRANCH   9  11
ATOM     10  O   UNL     1      34.584 -16.218 -19.971  0.00  0.00    -0.245 OA
ATOM     11  C   UNL     1      34.710 -15.842 -21.127  0.00  0.00    +0.341 C 
BRANCH  11  12
ATOM     12  C   UNL     1      34.075 -14.608 -21.656  0.00  0.00    +0.072 C 
ATOM     13  C   UNL     1      32.988 -14.022 -21.009  0.00  0.00    -0.016 C 
ATOM     14  C   UNL     1      32.918 -12.292 -22.694  0.00  0.00    -0.022 C 
ATOM     15  C   UNL     1      32.409 -12.864 -21.527  0.00  0.00    -0.008 C 
ATOM     16  C   UNL     1      34.584 -14.037 -22.823  0.00  0.00    +0.006 C 
ATOM     17  C   UNL     1      34.005 -12.878 -23.342  0.00  0.00    -0.004 C 
ATOM     18  C   UNL     1      32.424 -14.613 -19.759  0.00  0.00    +0.031 C 
ATOM     19  C   UNL     1      32.300 -11.054 -23.250  0.00  0.00    +0.031 C 
ENDBRANCH  11  12
ENDBRANCH   9  11
ENDBRANCH   8   9
ENDBRANCH   5   8
ENDBRANCH   1   2
BRANCH   1  22
ATOM     20  O   UNL     1      34.374 -23.531 -19.320  0.00  0.00    -0.275 OA
ATOM     21  N   UNL     1      34.430 -22.470 -17.222  0.00  0.00    -0.284 N 
ATOM     22  C   UNL     1      34.891 -22.758 -18.517  0.00  0.00    +0.228 C 
ATOM     23  H   UNL     1      34.959 -21.815 -16.713  0.00  0.00    +0.155 HD
BRANCH  21  25
ATOM     24  N   UNL     1      30.114 -25.330 -13.417  0.00  0.00    -0.242 NA
ATOM     25  C   UNL     1      33.315 -22.996 -16.565  0.00  0.00    +0.050 C 
ATOM     26  C   UNL     1      33.484 -23.739 -15.395  0.00  0.00    +0.015 C 
ATOM     27  C   UNL     1      32.374 -24.277 -14.724  0.00  0.00    +0.004 C 
ATOM     28  C   UNL     1      32.040 -22.780 -17.078  0.00  0.00    +0.015 C 
ATOM     29  C   UNL     1      31.083 -24.055 -15.247  0.00  0.00    +0.019 C 
ATOM     30  C   UNL     1      30.925 -23.305 -16.425  0.00  0.00    +0.003 C 
ATOM     31  C   UNL     1      32.509 -25.026 -13.549  0.00  0.00    +0.021 C 
ATOM     32  C   UNL     1      30.003 -24.603 -14.552  0.00  0.00    +0.099 C 
ATOM     33  C   UNL     1      31.364 -25.522 -12.945  0.00  0.00    +0.099 C 
ENDBRANCH  21  25
ENDBRANCH   1  22
BRANCH   1  34
ATOM     34  C   UNL     1      36.844 -21.457 -17.582  0.00  0.00    -0.072 C 
BRANCH  34  35
ATOM     35  N   UNL     1      37.450 -22.547 -16.822  0.00  0.00    +0.381 N 
ATOM     36  H   UNL     1      37.775 -23.269 -17.464  0.00  0.00    -0.089 HD
ATOM     37  H   UNL     1      36.759 -22.943 -16.186  0.00  0.00    -0.089 HD
ATOM     38  H   UNL     1      38.239 -22.188 -16.284  0.00  0.00    -0.089 HD
ENDBRANCH  34  35
ENDBRANCH   1  34
TORSDOF 9
ENDMDL
