MODEL 1
REMARK VINA RESULT:     -11.5      0.000      0.000
REMARK  Name = 11609586
REMARK  6 active torsions:
REMARK  status: ('A' for Active; 'I' for Inactive)
REMARK    1  A    between atoms: N_1  and  C_3
REMARK    2  A    between atoms: N_1  and  C_17
REMARK    3  A    between atoms: C_6  and  N_9
REMARK    4  A    between atoms: N_9  and  C_12
REMARK    5  A    between atoms: C_17  and  C_18
REMARK    6  A    between atoms: C_18  and  C_20
REMARK                            x       y       z     vdW  Elec       q    Type
REMARK                         _______ _______ _______ _____ _____    ______ ____
ROOT
ATOM      1  N   UNL     1      33.534 -23.227 -17.774  0.00  0.00    -0.332 N 
ATOM      2  H   UNL     1      32.638 -23.589 -17.964  0.00  0.00    +0.147 HD
ENDROOT
BRANCH   1   3
ATOM      3  C   UNL     1      34.055 -22.283 -18.649  0.00  0.00    +0.045 C 
ATOM      4  C   UNL     1      33.205 -21.434 -19.380  0.00  0.00    +0.016 C 
ATOM      5  C   UNL     1      35.444 -22.154 -18.825  0.00  0.00    +0.016 C 
ATOM      6  C   UNL     1      35.110 -20.371 -20.421  0.00  0.00    +0.048 C 
ATOM      7  C   UNL     1      33.730 -20.486 -20.260  0.00  0.00    +0.016 C 
ATOM      8  C   UNL     1      35.968 -21.206 -19.703  0.00  0.00    +0.016 C 
BRANCH   6   9
ATOM      9  N   UNL     1      35.639 -19.411 -21.308  0.00  0.00    -0.312 N 
ATOM     10  H   UNL     1      36.555 -19.128 -21.086  0.00  0.00    +0.152 HD
BRANCH   9  12
ATOM     11  N   UNL     1      34.068 -17.519 -24.719  0.00  0.00    -0.242 NA
ATOM     12  C   UNL     1      35.113 -18.777 -22.451  0.00  0.00    +0.051 C 
ATOM     13  C   UNL     1      34.440 -19.520 -23.415  0.00  0.00    +0.035 C 
ATOM     14  C   UNL     1      35.263 -17.405 -22.621  0.00  0.00    +0.035 C 
ATOM     15  C   UNL     1      33.940 -18.850 -24.520  0.00  0.00    +0.100 C 
ATOM     16  C   UNL     1      34.727 -16.829 -23.761  0.00  0.00    +0.100 C 
ENDBRANCH   9  12
ENDBRANCH   6   9
ENDBRANCH   1   3
BRANCH   1  17
ATOM     17  C   UNL     1      34.224 -23.706 -16.608  0.00  0.00    +0.092 C 
BRANCH  17  18
ATOM     18  C   UNL     1      33.616 -23.155 -15.306  0.00  0.00    +0.049 C 
BRANCH  18  20
ATOM     19  N   UNL     1      31.442 -25.490 -13.529  0.00  0.00    -0.312 N 
ATOM     20  C   UNL     1      32.532 -23.989 -14.748  0.00  0.00    -0.005 C 
ATOM     21  C   UNL     1      31.160 -23.956 -15.124  0.00  0.00    +0.011 C 
ATOM     22  C   UNL     1      30.498 -24.908 -14.344  0.00  0.00    +0.048 C 
ATOM     23  C   UNL     1      32.673 -24.942 -13.766  0.00  0.00    +0.058 C 
ATOM     24  C   UNL     1      30.414 -23.207 -16.055  0.00  0.00    +0.001 C 
ATOM     25  C   UNL     1      29.123 -25.147 -14.450  0.00  0.00    +0.015 C 
ATOM     26  C   UNL     1      29.038 -23.436 -16.172  0.00  0.00    +0.000 C 
ATOM     27  C   UNL     1      28.405 -24.392 -15.380  0.00  0.00    +0.001 C 
ATOM     28  H   UNL     1      31.259 -26.199 -12.871  0.00  0.00    +0.152 HD
ENDBRANCH  18  20
ENDBRANCH  17  18
ENDBRANCH   1  17
TORSDOF 6
ENDMDL
MODEL 2
REMARK VINA RESULT:     -11.3      2.498      9.717
REMARK  Name = 11609586
REMARK  6 active torsions:
REMARK  status: ('A' for Active; 'I' for Inactive)
REMARK    1  A    between atoms: N_1  and  C_3
REMARK    2  A    between atoms: N_1  and  C_17
REMARK    3  A    between atoms: C_6  and  N_9
REMARK    4  A    between atoms: N_9  and  C_12
REMARK    5  A    between atoms: C_17  and  C_18
REMARK    6  A    between atoms: C_18  and  C_20
REMARK                            x       y       z     vdW  Elec       q    Type
REMARK                         _______ _______ _______ _____ _____    ______ ____
ROOT
ATOM      1  N   UNL     1      35.932 -19.200 -21.298  0.00  0.00    -0.332 N 
ATOM      2  H   UNL     1      36.915 -19.245 -21.273  0.00  0.00    +0.147 HD
ENDROOT
BRANCH   1   3
ATOM      3  C   UNL     1      35.216 -20.144 -20.573  0.00  0.00    +0.045 C 
ATOM      4  C   UNL     1      33.810 -20.140 -20.579  0.00  0.00    +0.016 C 
ATOM      5  C   UNL     1      35.880 -21.125 -19.816  0.00  0.00    +0.016 C 
ATOM      6  C   UNL     1      33.767 -22.055 -19.106  0.00  0.00    +0.048 C 
ATOM      7  C   UNL     1      33.092 -21.089 -19.851  0.00  0.00    +0.016 C 
ATOM      8  C   UNL     1      35.162 -22.073 -19.088  0.00  0.00    +0.016 C 
BRANCH   6   9
ATOM      9  N   UNL     1      33.040 -23.015 -18.372  0.00  0.00    -0.312 N 
ATOM     10  H   UNL     1      32.587 -23.684 -18.933  0.00  0.00    +0.152 HD
BRANCH   9  12
ATOM     11  N   UNL     1      32.428 -23.578 -14.250  0.00  0.00    -0.242 NA
ATOM     12  C   UNL     1      32.835 -23.203 -16.991  0.00  0.00    +0.051 C 
ATOM     13  C   UNL     1      33.907 -23.511 -16.161  0.00  0.00    +0.035 C 
ATOM     14  C   UNL     1      31.558 -23.082 -16.450  0.00  0.00    +0.035 C 
ATOM     15  C   UNL     1      33.654 -23.687 -14.810  0.00  0.00    +0.100 C 
ATOM     16  C   UNL     1      31.410 -23.277 -15.087  0.00  0.00    +0.100 C 
ENDBRANCH   9  12
ENDBRANCH   6   9
ENDBRANCH   1   3
BRANCH   1  17
ATOM     17  C   UNL     1      35.322 -18.161 -22.083  0.00  0.00    +0.092 C 
BRANCH  17  18
ATOM     18  C   UNL     1      35.222 -16.833 -21.310  0.00  0.00    +0.049 C 
BRANCH  18  20
ATOM     19  N   UNL     1      34.096 -14.376 -23.766  0.00  0.00    -0.312 N 
ATOM     20  C   UNL     1      34.621 -15.729 -22.086  0.00  0.00    -0.005 C 
ATOM     21  C   UNL     1      33.734 -14.732 -21.594  0.00  0.00    +0.011 C 
ATOM     22  C   UNL     1      33.420 -13.895 -22.667  0.00  0.00    +0.048 C 
ATOM     23  C   UNL     1      34.825 -15.483 -23.424  0.00  0.00    +0.058 C 
ATOM     24  C   UNL     1      33.166 -14.458 -20.334  0.00  0.00    +0.001 C 
ATOM     25  C   UNL     1      32.563 -12.796 -22.543  0.00  0.00    +0.015 C 
ATOM     26  C   UNL     1      32.307 -13.362 -20.195  0.00  0.00    +0.000 C 
ATOM     27  C   UNL     1      32.011 -12.545 -21.284  0.00  0.00    +0.001 C 
ATOM     28  H   UNL     1      34.062 -13.981 -24.667  0.00  0.00    +0.152 HD
ENDBRANCH  18  20
ENDBRANCH  17  18
ENDBRANCH   1  17
TORSDOF 6
ENDMDL
MODEL 3
REMARK VINA RESULT:     -11.2      1.794     10.125
REMARK  Name = 11609586
REMARK  6 active torsions:
REMARK  status: ('A' for Active; 'I' for Inactive)
REMARK    1  A    between atoms: N_1  and  C_3
REMARK    2  A    between atoms: N_1  and  C_17
REMARK    3  A    between atoms: C_6  and  N_9
REMARK    4  A    between atoms: N_9  and  C_12
REMARK    5  A    between atoms: C_17  and  C_18
REMARK    6  A    between atoms: C_18  and  C_20
REMARK                            x       y       z     vdW  Elec       q    Type
REMARK                         _______ _______ _______ _____ _____    ______ ____
ROOT
ATOM      1  N   UNL     1      35.865 -19.506 -21.003  0.00  0.00    -0.332 N 
ATOM      2  H   UNL     1      36.785 -19.267 -20.743  0.00  0.00    +0.147 HD
ENDROOT
BRANCH   1   3
ATOM      3  C   UNL     1      35.203 -20.465 -20.247  0.00  0.00    +0.045 C 
ATOM      4  C   UNL     1      33.799 -20.548 -20.261  0.00  0.00    +0.016 C 
ATOM      5  C   UNL     1      35.920 -21.375 -19.451  0.00  0.00    +0.016 C 
ATOM      6  C   UNL     1      33.861 -22.407 -18.719  0.00  0.00    +0.048 C 
ATOM      7  C   UNL     1      33.134 -21.511 -19.502  0.00  0.00    +0.016 C 
ATOM      8  C   UNL     1      35.255 -22.339 -18.693  0.00  0.00    +0.016 C 
BRANCH   6   9
ATOM      9  N   UNL     1      33.188 -23.381 -17.953  0.00  0.00    -0.312 N 
ATOM     10  H   UNL     1      32.956 -24.192 -18.460  0.00  0.00    +0.152 HD
BRANCH   9  12
ATOM     11  N   UNL     1      31.976 -23.502 -13.928  0.00  0.00    -0.242 NA
ATOM     12  C   UNL     1      32.783 -23.422 -16.605  0.00  0.00    +0.051 C 
ATOM     13  C   UNL     1      31.457 -23.175 -16.266  0.00  0.00    +0.035 C 
ATOM     14  C   UNL     1      33.706 -23.709 -15.604  0.00  0.00    +0.035 C 
ATOM     15  C   UNL     1      31.107 -23.226 -14.926  0.00  0.00    +0.100 C 
ATOM     16  C   UNL     1      33.256 -23.737 -14.295  0.00  0.00    +0.100 C 
ENDBRANCH   9  12
ENDBRANCH   6   9
ENDBRANCH   1   3
BRANCH   1  17
ATOM     17  C   UNL     1      35.289 -18.843 -22.140  0.00  0.00    +0.092 C 
BRANCH  17  18
ATOM     18  C   UNL     1      35.391 -17.311 -22.032  0.00  0.00    +0.049 C 
BRANCH  18  20
ATOM     19  N   UNL     1      33.869 -16.128 -25.133  0.00  0.00    -0.312 N 
ATOM     20  C   UNL     1      34.756 -16.584 -23.150  0.00  0.00    -0.005 C 
ATOM     21  C   UNL     1      34.360 -15.217 -23.157  0.00  0.00    +0.011 C 
ATOM     22  C   UNL     1      33.807 -14.956 -24.413  0.00  0.00    +0.048 C 
ATOM     23  C   UNL     1      34.441 -17.117 -24.379  0.00  0.00    +0.058 C 
ATOM     24  C   UNL     1      34.420 -14.173 -22.213  0.00  0.00    +0.001 C 
ATOM     25  C   UNL     1      33.309 -13.700 -24.772  0.00  0.00    +0.015 C 
ATOM     26  C   UNL     1      33.925 -12.910 -22.559  0.00  0.00    +0.000 C 
ATOM     27  C   UNL     1      33.378 -12.680 -23.820  0.00  0.00    +0.001 C 
ATOM     28  H   UNL     1      33.550 -16.239 -26.058  0.00  0.00    +0.152 HD
ENDBRANCH  18  20
ENDBRANCH  17  18
ENDBRANCH   1  17
TORSDOF 6
ENDMDL
MODEL 4
REMARK VINA RESULT:     -11.2      2.253      4.050
REMARK  Name = 11609586
REMARK  6 active torsions:
REMARK  status: ('A' for Active; 'I' for Inactive)
REMARK    1  A    between atoms: N_1  and  C_3
REMARK    2  A    between atoms: N_1  and  C_17
REMARK    3  A    between atoms: C_6  and  N_9
REMARK    4  A    between atoms: N_9  and  C_12
REMARK    5  A    between atoms: C_17  and  C_18
REMARK    6  A    between atoms: C_18  and  C_20
REMARK                            x       y       z     vdW  Elec       q    Type
REMARK                         _______ _______ _______ _____ _____    ______ ____
ROOT
ATOM      1  N   UNL     1      33.444 -23.481 -18.148  0.00  0.00    -0.332 N 
ATOM      2  H   UNL     1      33.145 -24.290 -18.624  0.00  0.00    +0.147 HD
ENDROOT
BRANCH   1   3
ATOM      3  C   UNL     1      33.940 -22.426 -18.904  0.00  0.00    +0.045 C 
ATOM      4  C   UNL     1      33.071 -21.479 -19.474  0.00  0.00    +0.016 C 
ATOM      5  C   UNL     1      35.322 -22.281 -19.116  0.00  0.00    +0.016 C 
ATOM      6  C   UNL     1      34.945 -20.290 -20.432  0.00  0.00    +0.048 C 
ATOM      7  C   UNL     1      33.570 -20.420 -20.232  0.00  0.00    +0.016 C 
ATOM      8  C   UNL     1      35.821 -21.221 -19.873  0.00  0.00    +0.016 C 
BRANCH   6   9
ATOM      9  N   UNL     1      35.448 -19.218 -21.197  0.00  0.00    -0.312 N 
ATOM     10  H   UNL     1      36.264 -18.813 -20.823  0.00  0.00    +0.152 HD
BRANCH   9  12
ATOM     11  N   UNL     1      34.148 -17.409 -24.764  0.00  0.00    -0.242 NA
ATOM     12  C   UNL     1      35.012 -18.612 -22.392  0.00  0.00    +0.051 C 
ATOM     13  C   UNL     1      35.209 -17.251 -22.597  0.00  0.00    +0.035 C 
ATOM     14  C   UNL     1      34.383 -19.372 -23.373  0.00  0.00    +0.035 C 
ATOM     15  C   UNL     1      34.763 -16.702 -23.789  0.00  0.00    +0.100 C 
ATOM     16  C   UNL     1      33.975 -18.729 -24.530  0.00  0.00    +0.100 C 
ENDBRANCH   9  12
ENDBRANCH   6   9
ENDBRANCH   1   3
BRANCH   1  17
ATOM     17  C   UNL     1      33.341 -23.461 -16.715  0.00  0.00    +0.092 C 
BRANCH  17  18
ATOM     18  C   UNL     1      34.708 -23.261 -16.037  0.00  0.00    +0.049 C 
BRANCH  18  20
ATOM     19  N   UNL     1      34.387 -24.966 -12.824  0.00  0.00    -0.312 N 
ATOM     20  C   UNL     1      34.859 -23.986 -14.759  0.00  0.00    -0.005 C 
ATOM     21  C   UNL     1      36.070 -24.492 -14.209  0.00  0.00    +0.011 C 
ATOM     22  C   UNL     1      35.746 -25.102 -12.995  0.00  0.00    +0.048 C 
ATOM     23  C   UNL     1      33.842 -24.293 -13.884  0.00  0.00    +0.058 C 
ATOM     24  C   UNL     1      37.415 -24.490 -14.629  0.00  0.00    +0.001 C 
ATOM     25  C   UNL     1      36.704 -25.712 -12.177  0.00  0.00    +0.015 C 
ATOM     26  C   UNL     1      38.383 -25.096 -13.820  0.00  0.00    +0.000 C 
ATOM     27  C   UNL     1      38.031 -25.698 -12.613  0.00  0.00    +0.001 C 
ATOM     28  H   UNL     1      33.879 -25.303 -12.050  0.00  0.00    +0.152 HD
ENDBRANCH  18  20
ENDBRANCH  17  18
ENDBRANCH   1  17
TORSDOF 6
ENDMDL
MODEL 5
REMARK VINA RESULT:     -11.1      2.412      4.391
REMARK  Name = 11609586
REMARK  6 active torsions:
REMARK  status: ('A' for Active; 'I' for Inactive)
REMARK    1  A    between atoms: N_1  and  C_3
REMARK    2  A    between atoms: N_1  and  C_17
REMARK    3  A    between atoms: C_6  and  N_9
REMARK    4  A    between atoms: N_9  and  C_12
REMARK    5  A    between atoms: C_17  and  C_18
REMARK    6  A    between atoms: C_18  and  C_20
REMARK                            x       y       z     vdW  Elec       q    Type
REMARK                         _______ _______ _______ _____ _____    ______ ____
ROOT
ATOM      1  N   UNL     1      33.423 -23.399 -17.960  0.00  0.00    -0.332 N 
ATOM      2  H   UNL     1      33.278 -24.290 -18.355  0.00  0.00    +0.147 HD
ENDROOT
BRANCH   1   3
ATOM      3  C   UNL     1      33.956 -22.405 -18.769  0.00  0.00    +0.045 C 
ATOM      4  C   UNL     1      33.117 -21.512 -19.458  0.00  0.00    +0.016 C 
ATOM      5  C   UNL     1      35.348 -22.268 -18.919  0.00  0.00    +0.016 C 
ATOM      6  C   UNL     1      35.036 -20.391 -20.408  0.00  0.00    +0.048 C 
ATOM      7  C   UNL     1      33.654 -20.513 -20.272  0.00  0.00    +0.016 C 
ATOM      8  C   UNL     1      35.884 -21.269 -19.731  0.00  0.00    +0.016 C 
BRANCH   6   9
ATOM      9  N   UNL     1      35.577 -19.380 -21.228  0.00  0.00    -0.312 N 
ATOM     10  H   UNL     1      36.461 -19.061 -20.934  0.00  0.00    +0.152 HD
BRANCH   9  12
ATOM     11  N   UNL     1      34.156 -17.457 -24.688  0.00  0.00    -0.242 NA
ATOM     12  C   UNL     1      35.101 -18.736 -22.387  0.00  0.00    +0.051 C 
ATOM     13  C   UNL     1      35.255 -17.362 -22.536  0.00  0.00    +0.035 C 
ATOM     14  C   UNL     1      34.475 -19.471 -23.389  0.00  0.00    +0.035 C 
ATOM     15  C   UNL     1      34.770 -16.775 -23.694  0.00  0.00    +0.100 C 
ATOM     16  C   UNL     1      34.026 -18.790 -24.509  0.00  0.00    +0.100 C 
ENDBRANCH   9  12
ENDBRANCH   6   9
ENDBRANCH   1   3
BRANCH   1  17
ATOM     17  C   UNL     1      33.070 -23.206 -16.580  0.00  0.00    +0.092 C 
BRANCH  17  18
ATOM     18  C   UNL     1      33.710 -24.264 -15.663  0.00  0.00    +0.049 C 
BRANCH  18  20
ATOM     19  N   UNL     1      37.044 -22.939 -14.981  0.00  0.00    -0.312 N 
ATOM     20  C   UNL     1      35.125 -23.998 -15.335  0.00  0.00    -0.005 C 
ATOM     21  C   UNL     1      36.104 -24.962 -14.961  0.00  0.00    +0.011 C 
ATOM     22  C   UNL     1      37.298 -24.271 -14.745  0.00  0.00    +0.048 C 
ATOM     23  C   UNL     1      35.734 -22.764 -15.338  0.00  0.00    +0.058 C 
ATOM     24  C   UNL     1      36.088 -26.359 -14.786  0.00  0.00    +0.001 C 
ATOM     25  C   UNL     1      38.482 -24.911 -14.361  0.00  0.00    +0.015 C 
ATOM     26  C   UNL     1      37.265 -27.013 -14.401  0.00  0.00    +0.000 C 
ATOM     27  C   UNL     1      38.443 -26.297 -14.192  0.00  0.00    +0.001 C 
ATOM     28  H   UNL     1      37.708 -22.215 -14.905  0.00  0.00    +0.152 HD
ENDBRANCH  18  20
ENDBRANCH  17  18
ENDBRANCH   1  17
TORSDOF 6
ENDMDL
MODEL 6
REMARK VINA RESULT:     -11.1      1.626      2.691
REMARK  Name = 11609586
REMARK  6 active torsions:
REMARK  status: ('A' for Active; 'I' for Inactive)
REMARK    1  A    between atoms: N_1  and  C_3
REMARK    2  A    between atoms: N_1  and  C_17
REMARK    3  A    between atoms: C_6  and  N_9
REMARK    4  A    between atoms: N_9  and  C_12
REMARK    5  A    between atoms: C_17  and  C_18
REMARK    6  A    between atoms: C_18  and  C_20
REMARK                            x       y       z     vdW  Elec       q    Type
REMARK                         _______ _______ _______ _____ _____    ______ ____
ROOT
ATOM      1  N   UNL     1      35.436 -21.712 -18.969  0.00  0.00    -0.332 N 
ATOM      2  H   UNL     1      36.025 -21.637 -18.182  0.00  0.00    +0.147 HD
ENDROOT
BRANCH   1   3
ATOM      3  C   UNL     1      35.529 -20.732 -19.948  0.00  0.00    +0.045 C 
ATOM      4  C   UNL     1      34.438 -20.452 -20.790  0.00  0.00    +0.016 C 
ATOM      5  C   UNL     1      36.715 -19.997 -20.122  0.00  0.00    +0.016 C 
ATOM      6  C   UNL     1      35.715 -18.747 -21.931  0.00  0.00    +0.048 C 
ATOM      7  C   UNL     1      34.531 -19.468 -21.774  0.00  0.00    +0.016 C 
ATOM      8  C   UNL     1      36.808 -19.012 -21.105  0.00  0.00    +0.016 C 
BRANCH   6   9
ATOM      9  N   UNL     1      35.808 -17.751 -22.925  0.00  0.00    -0.312 N 
ATOM     10  H   UNL     1      36.603 -17.836 -23.498  0.00  0.00    +0.152 HD
BRANCH   9  12
ATOM     11  N   UNL     1      33.352 -14.486 -23.919  0.00  0.00    -0.242 NA
ATOM     12  C   UNL     1      34.985 -16.657 -23.258  0.00  0.00    +0.051 C 
ATOM     13  C   UNL     1      34.734 -15.661 -22.321  0.00  0.00    +0.035 C 
ATOM     14  C   UNL     1      34.419 -16.568 -24.526  0.00  0.00    +0.035 C 
ATOM     15  C   UNL     1      33.919 -14.605 -22.697  0.00  0.00    +0.100 C 
ATOM     16  C   UNL     1      33.618 -15.473 -24.804  0.00  0.00    +0.100 C 
ENDBRANCH   9  12
ENDBRANCH   6   9
ENDBRANCH   1   3
BRANCH   1  17
ATOM     17  C   UNL     1      34.534 -22.828 -19.034  0.00  0.00    +0.092 C 
BRANCH  17  18
ATOM     18  C   UNL     1      33.258 -22.593 -18.204  0.00  0.00    +0.049 C 
BRANCH  18  20
ATOM     19  N   UNL     1      34.092 -24.021 -14.948  0.00  0.00    -0.312 N 
ATOM     20  C   UNL     1      33.317 -23.154 -16.839  0.00  0.00    -0.005 C 
ATOM     21  C   UNL     1      32.216 -23.369 -15.963  0.00  0.00    +0.011 C 
ATOM     22  C   UNL     1      32.729 -23.914 -14.784  0.00  0.00    +0.048 C 
ATOM     23  C   UNL     1      34.456 -23.565 -16.186  0.00  0.00    +0.058 C 
ATOM     24  C   UNL     1      30.827 -23.153 -16.060  0.00  0.00    +0.001 C 
ATOM     25  C   UNL     1      31.921 -24.253 -13.694  0.00  0.00    +0.015 C 
ATOM     26  C   UNL     1      30.006 -23.488 -14.977  0.00  0.00    +0.000 C 
ATOM     27  C   UNL     1      30.547 -24.029 -13.813  0.00  0.00    +0.001 C 
ATOM     28  H   UNL     1      34.716 -24.375 -14.273  0.00  0.00    +0.152 HD
ENDBRANCH  18  20
ENDBRANCH  17  18
ENDBRANCH   1  17
TORSDOF 6
ENDMDL
MODEL 7
REMARK VINA RESULT:     -11.0      1.927      9.947
REMARK  Name = 11609586
REMARK  6 active torsions:
REMARK  status: ('A' for Active; 'I' for Inactive)
REMARK    1  A    between atoms: N_1  and  C_3
REMARK    2  A    between atoms: N_1  and  C_17
REMARK    3  A    between atoms: C_6  and  N_9
REMARK    4  A    between atoms: N_9  and  C_12
REMARK    5  A    between atoms: C_17  and  C_18
REMARK    6  A    between atoms: C_18  and  C_20
REMARK                            x       y       z     vdW  Elec       q    Type
REMARK                         _______ _______ _______ _____ _____    ______ ____
ROOT
ATOM      1  N   UNL     1      36.068 -19.708 -21.173  0.00  0.00    -0.332 N 
ATOM      2  H   UNL     1      36.757 -20.161 -21.712  0.00  0.00    +0.147 HD
ENDROOT
BRANCH   1   3
ATOM      3  C   UNL     1      35.211 -20.495 -20.414  0.00  0.00    +0.045 C 
ATOM      4  C   UNL     1      33.820 -20.299 -20.465  0.00  0.00    +0.016 C 
ATOM      5  C   UNL     1      35.715 -21.507 -19.577  0.00  0.00    +0.016 C 
ATOM      6  C   UNL     1      33.478 -22.090 -18.879  0.00  0.00    +0.048 C 
ATOM      7  C   UNL     1      32.960 -21.090 -19.702  0.00  0.00    +0.016 C 
ATOM      8  C   UNL     1      34.856 -22.298 -18.816  0.00  0.00    +0.016 C 
BRANCH   6   9
ATOM      9  N   UNL     1      32.608 -22.890 -18.110  0.00  0.00    -0.312 N 
ATOM     10  H   UNL     1      31.888 -23.310 -18.634  0.00  0.00    +0.152 HD
BRANCH   9  12
ATOM     11  N   UNL     1      32.484 -23.836 -14.014  0.00  0.00    -0.242 NA
ATOM     12  C   UNL     1      32.566 -23.207 -16.738  0.00  0.00    +0.051 C 
ATOM     13  C   UNL     1      31.352 -23.225 -16.061  0.00  0.00    +0.035 C 
ATOM     14  C   UNL     1      33.740 -23.504 -16.052  0.00  0.00    +0.035 C 
ATOM     15  C   UNL     1      31.363 -23.543 -14.713  0.00  0.00    +0.100 C 
ATOM     16  C   UNL     1      33.645 -23.810 -14.705  0.00  0.00    +0.100 C 
ENDBRANCH   9  12
ENDBRANCH   6   9
ENDBRANCH   1   3
BRANCH   1  17
ATOM     17  C   UNL     1      36.008 -18.273 -21.219  0.00  0.00    +0.092 C 
BRANCH  17  18
ATOM     18  C   UNL     1      35.257 -17.762 -22.462  0.00  0.00    +0.049 C 
BRANCH  18  20
ATOM     19  N   UNL     1      34.307 -14.362 -21.526  0.00  0.00    -0.312 N 
ATOM     20  C   UNL     1      34.802 -16.360 -22.356  0.00  0.00    -0.005 C 
ATOM     21  C   UNL     1      34.291 -15.554 -23.412  0.00  0.00    +0.011 C 
ATOM     22  C   UNL     1      33.988 -14.305 -22.864  0.00  0.00    +0.048 C 
ATOM     23  C   UNL     1      34.799 -15.600 -21.210  0.00  0.00    +0.058 C 
ATOM     24  C   UNL     1      34.057 -15.766 -24.785  0.00  0.00    +0.001 C 
ATOM     25  C   UNL     1      33.460 -13.256 -23.623  0.00  0.00    +0.015 C 
ATOM     26  C   UNL     1      33.528 -14.725 -25.557  0.00  0.00    +0.000 C 
ATOM     27  C   UNL     1      33.236 -13.489 -24.983  0.00  0.00    +0.001 C 
ATOM     28  H   UNL     1      34.196 -13.621 -20.888  0.00  0.00    +0.152 HD
ENDBRANCH  18  20
ENDBRANCH  17  18
ENDBRANCH   1  17
TORSDOF 6
ENDMDL
MODEL 8
REMARK VINA RESULT:     -10.9      4.148     10.670
REMARK  Name = 11609586
REMARK  6 active torsions:
REMARK  status: ('A' for Active; 'I' for Inactive)
REMARK    1  A    between atoms: N_1  and  C_3
REMARK    2  A    between atoms: N_1  and  C_17
REMARK    3  A    between atoms: C_6  and  N_9
REMARK    4  A    between atoms: N_9  and  C_12
REMARK    5  A    between atoms: C_17  and  C_18
REMARK    6  A    between atoms: C_18  and  C_20
REMARK                            x       y       z     vdW  Elec       q    Type
REMARK                         _______ _______ _______ _____ _____    ______ ____
ROOT
ATOM      1  N   UNL     1      34.228 -15.722 -24.795  0.00  0.00    -0.332 N 
ATOM      2  H   UNL     1      34.729 -15.716 -25.643  0.00  0.00    +0.147 HD
ENDROOT
BRANCH   1   3
ATOM      3  C   UNL     1      34.576 -16.667 -23.838  0.00  0.00    +0.045 C 
ATOM      4  C   UNL     1      34.481 -18.041 -24.118  0.00  0.00    +0.016 C 
ATOM      5  C   UNL     1      35.032 -16.271 -22.568  0.00  0.00    +0.016 C 
ATOM      6  C   UNL     1      35.282 -18.579 -21.902  0.00  0.00    +0.048 C 
ATOM      7  C   UNL     1      34.830 -18.990 -23.156  0.00  0.00    +0.016 C 
ATOM      8  C   UNL     1      35.382 -17.219 -21.608  0.00  0.00    +0.016 C 
BRANCH   6   9
ATOM      9  N   UNL     1      35.637 -19.539 -20.932  0.00  0.00    -0.312 N 
ATOM     10  H   UNL     1      36.585 -19.505 -20.669  0.00  0.00    +0.152 HD
BRANCH   9  12
ATOM     11  N   UNL     1      33.439 -22.519 -18.939  0.00  0.00    -0.242 NA
ATOM     12  C   UNL     1      34.901 -20.538 -20.264  0.00  0.00    +0.051 C 
ATOM     13  C   UNL     1      33.512 -20.475 -20.228  0.00  0.00    +0.035 C 
ATOM     14  C   UNL     1      35.559 -21.591 -19.638  0.00  0.00    +0.035 C 
ATOM     15  C   UNL     1      32.833 -21.481 -19.559  0.00  0.00    +0.100 C 
ATOM     16  C   UNL     1      34.789 -22.547 -18.996  0.00  0.00    +0.100 C 
ENDBRANCH   9  12
ENDBRANCH   6   9
ENDBRANCH   1   3
BRANCH   1  17
ATOM     17  C   UNL     1      33.181 -14.753 -24.621  0.00  0.00    +0.092 C 
BRANCH  17  18
ATOM     18  C   UNL     1      33.702 -13.438 -24.011  0.00  0.00    +0.049 C 
BRANCH  18  20
ATOM     19  N   UNL     1      31.714 -12.904 -20.995  0.00  0.00    -0.312 N 
ATOM     20  C   UNL     1      32.907 -12.949 -22.866  0.00  0.00    -0.005 C 
ATOM     21  C   UNL     1      32.547 -11.599 -22.600  0.00  0.00    +0.011 C 
ATOM     22  C   UNL     1      31.799 -11.598 -21.420  0.00  0.00    +0.048 C 
ATOM     23  C   UNL     1      32.380 -13.728 -21.862  0.00  0.00    +0.058 C 
ATOM     24  C   UNL     1      32.786 -10.372 -23.251  0.00  0.00    +0.001 C 
ATOM     25  C   UNL     1      31.276 -10.429 -20.858  0.00  0.00    +0.015 C 
ATOM     26  C   UNL     1      32.269  -9.194 -22.699  0.00  0.00    +0.000 C 
ATOM     27  C   UNL     1      31.526  -9.224 -21.520  0.00  0.00    +0.001 C 
ATOM     28  H   UNL     1      31.243 -13.204 -20.184  0.00  0.00    +0.152 HD
ENDBRANCH  18  20
ENDBRANCH  17  18
ENDBRANCH   1  17
TORSDOF 6
ENDMDL
MODEL 9
REMARK VINA RESULT:     -10.9      5.037     10.971
REMARK  Name = 11609586
REMARK  6 active torsions:
REMARK  status: ('A' for Active; 'I' for Inactive)
REMARK    1  A    between atoms: N_1  and  C_3
REMARK    2  A    between atoms: N_1  and  C_17
REMARK    3  A    between atoms: C_6  and  N_9
REMARK    4  A    between atoms: N_9  and  C_12
REMARK    5  A    between atoms: C_17  and  C_18
REMARK    6  A    between atoms: C_18  and  C_20
REMARK                            x       y       z     vdW  Elec       q    Type
REMARK                         _______ _______ _______ _____ _____    ______ ____
ROOT
ATOM      1  N   UNL     1      34.258 -14.280 -23.323  0.00  0.00    -0.332 N 
ATOM      2  H   UNL     1      34.987 -13.662 -23.565  0.00  0.00    +0.147 HD
ENDROOT
BRANCH   1   3
ATOM      3  C   UNL     1      34.600 -15.545 -22.864  0.00  0.00    +0.045 C 
ATOM      4  C   UNL     1      34.746 -16.619 -23.758  0.00  0.00    +0.016 C 
ATOM      5  C   UNL     1      34.809 -15.780 -21.493  0.00  0.00    +0.016 C 
ATOM      6  C   UNL     1      35.294 -18.105 -21.934  0.00  0.00    +0.048 C 
ATOM      7  C   UNL     1      35.089 -17.890 -23.296  0.00  0.00    +0.016 C 
ATOM      8  C   UNL     1      35.154 -17.050 -21.032  0.00  0.00    +0.016 C 
BRANCH   6   9
ATOM      9  N   UNL     1      35.644 -19.390 -21.468  0.00  0.00    -0.312 N 
ATOM     10  H   UNL     1      36.506 -19.716 -21.814  0.00  0.00    +0.152 HD
BRANCH   9  12
ATOM     11  N   UNL     1      33.724 -22.102 -18.890  0.00  0.00    -0.242 NA
ATOM     12  C   UNL     1      35.001 -20.298 -20.604  0.00  0.00    +0.051 C 
ATOM     13  C   UNL     1      33.614 -20.304 -20.503  0.00  0.00    +0.035 C 
ATOM     14  C   UNL     1      35.750 -21.195 -19.848  0.00  0.00    +0.035 C 
ATOM     15  C   UNL     1      33.029 -21.217 -19.640  0.00  0.00    +0.100 C 
ATOM     16  C   UNL     1      35.070 -22.067 -19.015  0.00  0.00    +0.100 C 
ENDBRANCH   9  12
ENDBRANCH   6   9
ENDBRANCH   1   3
BRANCH   1  17
ATOM     17  C   UNL     1      32.904 -13.817 -23.466  0.00  0.00    +0.092 C 
BRANCH  17  18
ATOM     18  C   UNL     1      32.337 -13.267 -22.145  0.00  0.00    +0.049 C 
BRANCH  18  20
ATOM     19  N   UNL     1      32.341  -9.654 -22.675  0.00  0.00    -0.312 N 
ATOM     20  C   UNL     1      32.282 -11.792 -22.082  0.00  0.00    -0.005 C 
ATOM     21  C   UNL     1      32.024 -11.002 -20.927  0.00  0.00    +0.011 C 
ATOM     22  C   UNL     1      32.067  -9.664 -21.326  0.00  0.00    +0.048 C 
ATOM     23  C   UNL     1      32.473 -10.934 -23.140  0.00  0.00    +0.058 C 
ATOM     24  C   UNL     1      31.757 -11.297 -19.575  0.00  0.00    +0.001 C 
ATOM     25  C   UNL     1      31.856  -8.604 -20.438  0.00  0.00    +0.015 C 
ATOM     26  C   UNL     1      31.544 -10.246 -18.675  0.00  0.00    +0.000 C 
ATOM     27  C   UNL     1      31.593  -8.921 -19.103  0.00  0.00    +0.001 C 
ATOM     28  H   UNL     1      32.431  -8.843 -23.226  0.00  0.00    +0.152 HD
ENDBRANCH  18  20
ENDBRANCH  17  18
ENDBRANCH   1  17
TORSDOF 6
ENDMDL
