MODEL 1
REMARK VINA RESULT:     -11.7      0.000      0.000
REMARK  Name = 16720766
REMARK  7 active torsions:
REMARK  status: ('A' for Active; 'I' for Inactive)
REMARK    1  A    between atoms: N_1  and  C_10
REMARK    2  A    between atoms: C_11  and  C_17
REMARK    3  A    between atoms: C_13  and  O_15
REMARK    4  A    between atoms: C_17  and  O_18
REMARK    5  A    between atoms: O_18  and  S_19
REMARK    6  A    between atoms: S_19  and  N_22
REMARK    7  A    between atoms: N_25  and  C_27
REMARK                            x       y       z     vdW  Elec       q    Type
REMARK                         _______ _______ _______ _____ _____    ______ ____
ROOT
ATOM      1  N   UNL     1      34.102 -21.805 -19.106  0.00  0.00    -0.276 N 
ATOM      2  N   UNL     1      36.335 -20.941 -19.388  0.00  0.00    -0.233 NA
ATOM      3  N   UNL     1      36.443 -19.084 -20.958  0.00  0.00    -0.233 NA
ATOM      4  C   UNL     1      35.016 -20.947 -19.654  0.00  0.00    +0.120 C 
ATOM      5  C   UNL     1      32.855 -21.524 -19.605  0.00  0.00    +0.062 C 
ATOM      6  C   UNL     1      34.341 -20.097 -20.522  0.00  0.00    +0.131 C 
ATOM      7  C   UNL     1      32.974 -20.469 -20.484  0.00  0.00    +0.004 C 
ATOM      8  C   UNL     1      35.102 -19.127 -21.197  0.00  0.00    +0.113 C 
ATOM      9  C   UNL     1      36.966 -19.976 -20.086  0.00  0.00    +0.252 C 
ATOM     10  N   UNL     1      34.514 -18.236 -22.081  0.00  0.00    -0.319 N 
ATOM     11  H   UNL     1      33.542 -18.298 -22.226  0.00  0.00    +0.148 HD
ENDROOT
BRANCH  10  12
ATOM     12  C   UNL     1      35.245 -17.221 -22.800  0.00  0.00    +0.093 C 
ATOM     13  C   UNL     1      35.028 -17.358 -24.319  0.00  0.00    +0.029 C 
ATOM     14  C   UNL     1      34.661 -15.865 -22.544  0.00  0.00    -0.008 C 
ATOM     15  C   UNL     1      33.794 -16.510 -24.673  0.00  0.00    +0.028 C 
ATOM     16  C   UNL     1      33.846 -15.460 -23.609  0.00  0.00    -0.025 C 
ATOM     17  C   UNL     1      34.826 -15.062 -21.427  0.00  0.00    -0.003 C 
ATOM     18  C   UNL     1      33.174 -14.250 -23.574  0.00  0.00    -0.005 C 
ATOM     19  C   UNL     1      34.162 -13.834 -21.389  0.00  0.00    -0.000 C 
ATOM     20  C   UNL     1      33.341 -13.431 -22.455  0.00  0.00    -0.000 C 
ENDBRANCH  10  12
BRANCH   1  21
ATOM     21  C   UNL     1      34.394 -22.862 -18.141  0.00  0.00    +0.081 C 
ATOM     22  C   UNL     1      33.376 -23.138 -15.935  0.00  0.00    +0.061 C 
ATOM     23  C   UNL     1      33.153 -23.435 -17.423  0.00  0.00    +0.025 C 
ATOM     24  C   UNL     1      34.898 -23.168 -15.788  0.00  0.00    +0.115 C 
ATOM     25  C   UNL     1      35.372 -22.423 -17.032  0.00  0.00    +0.049 C 
BRANCH  24  26
ATOM     26  O   UNL     1      35.385 -24.503 -15.810  0.00  0.00    -0.384 OA
ATOM     27  H   UNL     1      35.447 -24.840 -14.902  0.00  0.00    +0.210 HD
ENDBRANCH  24  26
BRANCH  22  28
ATOM     28  C   UNL     1      32.633 -24.107 -15.028  0.00  0.00    +0.176 C 
BRANCH  28  29
ATOM     29  O   UNL     1      31.413 -24.472 -15.652  0.00  0.00    -0.230 OA
BRANCH  29  30
ATOM     30  S   UNL     1      30.022 -23.725 -15.222  0.00  0.00    +0.045 S 
ATOM     31  O   UNL     1      29.001 -24.736 -15.014  0.00  0.00    -0.056 OA
ATOM     32  O   UNL     1      30.343 -22.789 -14.159  0.00  0.00    -0.056 OA
BRANCH  30  33
ATOM     33  N   UNL     1      29.593 -22.811 -16.608  0.00  0.00    -0.204 NA
ATOM     34  H   UNL     1      30.361 -22.830 -17.278  0.00  0.00    +0.144 HD
ATOM     35  H   UNL     1      29.405 -21.847 -16.334  0.00  0.00    +0.144 HD
ENDBRANCH  30  33
ENDBRANCH  29  30
ENDBRANCH  28  29
ENDBRANCH  22  28
ENDBRANCH   1  21
TORSDOF 7
ENDMDL
MODEL 2
REMARK VINA RESULT:     -11.5      2.070      2.489
REMARK  Name = 16720766
REMARK  7 active torsions:
REMARK  status: ('A' for Active; 'I' for Inactive)
REMARK    1  A    between atoms: N_1  and  C_10
REMARK    2  A    between atoms: C_11  and  C_17
REMARK    3  A    between atoms: C_13  and  O_15
REMARK    4  A    between atoms: C_17  and  O_18
REMARK    5  A    between atoms: O_18  and  S_19
REMARK    6  A    between atoms: S_19  and  N_22
REMARK    7  A    between atoms: N_25  and  C_27
REMARK                            x       y       z     vdW  Elec       q    Type
REMARK                         _______ _______ _______ _____ _____    ______ ____
ROOT
ATOM      1  N   UNL     1      34.773 -21.524 -19.268  0.00  0.00    -0.276 N 
ATOM      2  N   UNL     1      36.882 -20.440 -19.700  0.00  0.00    -0.233 NA
ATOM      3  N   UNL     1      36.703 -18.619 -21.305  0.00  0.00    -0.233 NA
ATOM      4  C   UNL     1      35.558 -20.589 -19.885  0.00  0.00    +0.120 C 
ATOM      5  C   UNL     1      33.476 -21.386 -19.695  0.00  0.00    +0.062 C 
ATOM      6  C   UNL     1      34.749 -19.834 -20.725  0.00  0.00    +0.131 C 
ATOM      7  C   UNL     1      33.432 -20.345 -20.598  0.00  0.00    +0.004 C 
ATOM      8  C   UNL     1      35.362 -18.807 -21.461  0.00  0.00    +0.113 C 
ATOM      9  C   UNL     1      37.367 -19.431 -20.451  0.00  0.00    +0.252 C 
ATOM     10  N   UNL     1      34.634 -18.001 -22.323  0.00  0.00    -0.319 N 
ATOM     11  H   UNL     1      33.667 -18.168 -22.408  0.00  0.00    +0.148 HD
ENDROOT
BRANCH  10  12
ATOM     12  C   UNL     1      35.211 -16.934 -23.102  0.00  0.00    +0.093 C 
ATOM     13  C   UNL     1      34.847 -17.079 -24.592  0.00  0.00    +0.029 C 
ATOM     14  C   UNL     1      34.561 -15.624 -22.771  0.00  0.00    -0.008 C 
ATOM     15  C   UNL     1      33.525 -16.321 -24.805  0.00  0.00    +0.028 C 
ATOM     16  C   UNL     1      33.612 -15.275 -23.740  0.00  0.00    -0.025 C 
ATOM     17  C   UNL     1      34.784 -14.816 -21.667  0.00  0.00    -0.003 C 
ATOM     18  C   UNL     1      32.863 -14.116 -23.621  0.00  0.00    -0.005 C 
ATOM     19  C   UNL     1      34.042 -13.640 -21.546  0.00  0.00    -0.000 C 
ATOM     20  C   UNL     1      33.087 -13.293 -22.516  0.00  0.00    -0.000 C 
ENDBRANCH  10  12
BRANCH   1  21
ATOM     21  C   UNL     1      35.230 -22.523 -18.305  0.00  0.00    +0.081 C 
ATOM     22  C   UNL     1      34.318 -22.911 -16.069  0.00  0.00    +0.061 C 
ATOM     23  C   UNL     1      34.098 -23.250 -17.549  0.00  0.00    +0.025 C 
ATOM     24  C   UNL     1      35.833 -22.734 -15.964  0.00  0.00    +0.115 C 
ATOM     25  C   UNL     1      36.170 -21.945 -17.227  0.00  0.00    +0.049 C 
BRANCH  24  26
ATOM     26  O   UNL     1      36.495 -23.992 -15.992  0.00  0.00    -0.384 OA
ATOM     27  H   UNL     1      36.212 -24.489 -16.776  0.00  0.00    +0.210 HD
ENDBRANCH  24  26
BRANCH  22  28
ATOM     28  C   UNL     1      33.736 -23.962 -15.136  0.00  0.00    +0.176 C 
BRANCH  28  29
ATOM     29  O   UNL     1      34.050 -23.608 -13.800  0.00  0.00    -0.230 OA
BRANCH  29  30
ATOM     30  S   UNL     1      35.092 -24.528 -12.935  0.00  0.00    +0.045 S 
ATOM     31  O   UNL     1      36.342 -23.803 -12.797  0.00  0.00    -0.056 OA
ATOM     32  O   UNL     1      34.385 -24.989 -11.754  0.00  0.00    -0.056 OA
BRANCH  30  33
ATOM     33  N   UNL     1      35.374 -25.890 -13.937  0.00  0.00    -0.204 NA
ATOM     34  H   UNL     1      34.485 -26.241 -14.293  0.00  0.00    +0.144 HD
ATOM     35  H   UNL     1      35.835 -26.621 -13.395  0.00  0.00    +0.144 HD
ENDBRANCH  30  33
ENDBRANCH  29  30
ENDBRANCH  28  29
ENDBRANCH  22  28
ENDBRANCH   1  21
TORSDOF 7
ENDMDL
MODEL 3
REMARK VINA RESULT:     -11.3      8.133     11.688
REMARK  Name = 16720766
REMARK  7 active torsions:
REMARK  status: ('A' for Active; 'I' for Inactive)
REMARK    1  A    between atoms: N_1  and  C_10
REMARK    2  A    between atoms: C_11  and  C_17
REMARK    3  A    between atoms: C_13  and  O_15
REMARK    4  A    between atoms: C_17  and  O_18
REMARK    5  A    between atoms: O_18  and  S_19
REMARK    6  A    between atoms: S_19  and  N_22
REMARK    7  A    between atoms: N_25  and  C_27
REMARK                            x       y       z     vdW  Elec       q    Type
REMARK                         _______ _______ _______ _____ _____    ______ ____
ROOT
ATOM      1  N   UNL     1      33.158 -13.149 -22.149  0.00  0.00    -0.276 N 
ATOM      2  N   UNL     1      33.296 -14.488 -24.150  0.00  0.00    -0.233 NA
ATOM      3  N   UNL     1      34.372 -16.640 -23.779  0.00  0.00    -0.233 NA
ATOM      4  C   UNL     1      33.511 -14.277 -22.839  0.00  0.00    +0.120 C 
ATOM      5  C   UNL     1      33.532 -13.280 -20.836  0.00  0.00    +0.062 C 
ATOM      6  C   UNL     1      34.125 -15.150 -21.948  0.00  0.00    +0.131 C 
ATOM      7  C   UNL     1      34.133 -14.511 -20.683  0.00  0.00    +0.004 C 
ATOM      8  C   UNL     1      34.570 -16.382 -22.455  0.00  0.00    +0.113 C 
ATOM      9  C   UNL     1      33.760 -15.696 -24.529  0.00  0.00    +0.252 C 
ATOM     10  N   UNL     1      35.192 -17.316 -21.641  0.00  0.00    -0.319 N 
ATOM     11  H   UNL     1      35.315 -17.094 -20.690  0.00  0.00    +0.148 HD
ENDROOT
BRANCH  10  12
ATOM     12  C   UNL     1      35.668 -18.596 -22.107  0.00  0.00    +0.093 C 
ATOM     13  C   UNL     1      37.204 -18.671 -22.036  0.00  0.00    +0.029 C 
ATOM     14  C   UNL     1      35.279 -19.685 -21.154  0.00  0.00    -0.008 C 
ATOM     15  C   UNL     1      37.562 -19.213 -20.641  0.00  0.00    +0.028 C 
ATOM     16  C   UNL     1      36.354 -20.040 -20.330  0.00  0.00    -0.025 C 
ATOM     17  C   UNL     1      34.043 -20.298 -21.017  0.00  0.00    -0.003 C 
ATOM     18  C   UNL     1      36.214 -21.006 -19.349  0.00  0.00    -0.005 C 
ATOM     19  C   UNL     1      33.897 -21.282 -20.038  0.00  0.00    -0.000 C 
ATOM     20  C   UNL     1      34.975 -21.633 -19.209  0.00  0.00    -0.000 C 
ENDBRANCH  10  12
BRANCH   1  21
ATOM     21  C   UNL     1      32.488 -11.980 -22.713  0.00  0.00    +0.081 C 
ATOM     22  C   UNL     1      33.215  -9.653 -22.515  0.00  0.00    +0.061 C 
ATOM     23  C   UNL     1      33.439 -10.932 -23.331  0.00  0.00    +0.025 C 
ATOM     24  C   UNL     1      31.751  -9.755 -22.084  0.00  0.00    +0.115 C 
ATOM     25  C   UNL     1      31.617 -11.223 -21.690  0.00  0.00    +0.049 C 
BRANCH  24  26
ATOM     26  O   UNL     1      30.880  -9.466 -23.171  0.00  0.00    -0.384 OA
ATOM     27  H   UNL     1      30.096 -10.037 -23.117  0.00  0.00    +0.210 HD
ENDBRANCH  24  26
BRANCH  22  28
ATOM     28  C   UNL     1      33.559  -8.393 -23.296  0.00  0.00    +0.176 C 
BRANCH  28  29
ATOM     29  O   UNL     1      32.996  -7.276 -22.630  0.00  0.00    -0.230 OA
BRANCH  29  30
ATOM     30  S   UNL     1      32.105  -6.190 -23.469  0.00  0.00    +0.045 S 
ATOM     31  O   UNL     1      32.939  -5.038 -23.764  0.00  0.00    -0.056 OA
ATOM     32  O   UNL     1      31.451  -6.907 -24.548  0.00  0.00    -0.056 OA
BRANCH  30  33
ATOM     33  N   UNL     1      30.892  -5.700 -22.361  0.00  0.00    -0.204 NA
ATOM     34  H   UNL     1      30.675  -4.714 -22.509  0.00  0.00    +0.144 HD
ATOM     35  H   UNL     1      31.229  -5.834 -21.408  0.00  0.00    +0.144 HD
ENDBRANCH  30  33
ENDBRANCH  29  30
ENDBRANCH  28  29
ENDBRANCH  22  28
ENDBRANCH   1  21
TORSDOF 7
ENDMDL
MODEL 4
REMARK VINA RESULT:     -10.5      2.874      3.835
REMARK  Name = 16720766
REMARK  7 active torsions:
REMARK  status: ('A' for Active; 'I' for Inactive)
REMARK    1  A    between atoms: N_1  and  C_10
REMARK    2  A    between atoms: C_11  and  C_17
REMARK    3  A    between atoms: C_13  and  O_15
REMARK    4  A    between atoms: C_17  and  O_18
REMARK    5  A    between atoms: O_18  and  S_19
REMARK    6  A    between atoms: S_19  and  N_22
REMARK    7  A    between atoms: N_25  and  C_27
REMARK                            x       y       z     vdW  Elec       q    Type
REMARK                         _______ _______ _______ _____ _____    ______ ____
ROOT
ATOM      1  N   UNL     1      33.658 -22.683 -17.421  0.00  0.00    -0.276 N 
ATOM      2  N   UNL     1      36.006 -22.346 -17.856  0.00  0.00    -0.233 NA
ATOM      3  N   UNL     1      36.421 -21.045 -19.871  0.00  0.00    -0.233 NA
ATOM      4  C   UNL     1      34.704 -22.188 -18.153  0.00  0.00    +0.120 C 
ATOM      5  C   UNL     1      32.475 -22.331 -18.017  0.00  0.00    +0.062 C 
ATOM      6  C   UNL     1      34.179 -21.504 -19.242  0.00  0.00    +0.131 C 
ATOM      7  C   UNL     1      32.767 -21.598 -19.148  0.00  0.00    +0.004 C 
ATOM      8  C   UNL     1      35.090 -20.910 -20.132  0.00  0.00    +0.113 C 
ATOM      9  C   UNL     1      36.789 -21.741 -18.771  0.00  0.00    +0.252 C 
ATOM     10  N   UNL     1      34.658 -20.206 -21.245  0.00  0.00    -0.319 N 
ATOM     11  H   UNL     1      33.688 -20.131 -21.399  0.00  0.00    +0.148 HD
ENDROOT
BRANCH  10  12
ATOM     12  C   UNL     1      35.548 -19.578 -22.191  0.00  0.00    +0.093 C 
ATOM     13  C   UNL     1      35.338 -20.147 -23.607  0.00  0.00    +0.029 C 
ATOM     14  C   UNL     1      35.173 -18.141 -22.396  0.00  0.00    -0.008 C 
ATOM     15  C   UNL     1      34.254 -19.285 -24.279  0.00  0.00    +0.028 C 
ATOM     16  C   UNL     1      34.448 -17.975 -23.583  0.00  0.00    -0.025 C 
ATOM     17  C   UNL     1      35.441 -17.063 -21.567  0.00  0.00    -0.003 C 
ATOM     18  C   UNL     1      33.969 -16.732 -23.960  0.00  0.00    -0.005 C 
ATOM     19  C   UNL     1      34.972 -15.804 -21.947  0.00  0.00    -0.000 C 
ATOM     20  C   UNL     1      34.241 -15.639 -23.134  0.00  0.00    -0.000 C 
ENDBRANCH  10  12
BRANCH   1  21
ATOM     21  C   UNL     1      33.772 -23.468 -16.194  0.00  0.00    +0.081 C 
ATOM     22  C   UNL     1      35.754 -23.668 -14.775  0.00  0.00    +0.061 C 
ATOM     23  C   UNL     1      34.544 -22.768 -15.055  0.00  0.00    +0.025 C 
ATOM     24  C   UNL     1      35.245 -25.069 -15.120  0.00  0.00    +0.115 C 
ATOM     25  C   UNL     1      34.456 -24.835 -16.404  0.00  0.00    +0.049 C 
BRANCH  24  26
ATOM     26  O   UNL     1      34.379 -25.560 -14.104  0.00  0.00    -0.384 OA
ATOM     27  H   UNL     1      34.883 -25.688 -13.284  0.00  0.00    +0.210 HD
ENDBRANCH  24  26
BRANCH  22  28
ATOM     28  C   UNL     1      36.279 -23.517 -13.355  0.00  0.00    +0.176 C 
BRANCH  28  29
ATOM     29  O   UNL     1      36.870 -24.742 -12.955  0.00  0.00    -0.230 OA
BRANCH  29  30
ATOM     30  S   UNL     1      36.631 -25.304 -11.436  0.00  0.00    +0.045 S 
ATOM     31  O   UNL     1      37.019 -26.703 -11.396  0.00  0.00    -0.056 OA
ATOM     32  O   UNL     1      37.240 -24.355 -10.522  0.00  0.00    -0.056 OA
BRANCH  30  33
ATOM     33  N   UNL     1      34.933 -25.216 -11.221  0.00  0.00    -0.204 NA
ATOM     34  H   UNL     1      34.654 -25.837 -10.462  0.00  0.00    +0.144 HD
ATOM     35  H   UNL     1      34.466 -25.501 -12.082  0.00  0.00    +0.144 HD
ENDBRANCH  30  33
ENDBRANCH  29  30
ENDBRANCH  28  29
ENDBRANCH  22  28
ENDBRANCH   1  21
TORSDOF 7
ENDMDL
MODEL 5
REMARK VINA RESULT:     -10.2      6.322     10.007
REMARK  Name = 16720766
REMARK  7 active torsions:
REMARK  status: ('A' for Active; 'I' for Inactive)
REMARK    1  A    between atoms: N_1  and  C_10
REMARK    2  A    between atoms: C_11  and  C_17
REMARK    3  A    between atoms: C_13  and  O_15
REMARK    4  A    between atoms: C_17  and  O_18
REMARK    5  A    between atoms: O_18  and  S_19
REMARK    6  A    between atoms: S_19  and  N_22
REMARK    7  A    between atoms: N_25  and  C_27
REMARK                            x       y       z     vdW  Elec       q    Type
REMARK                         _______ _______ _______ _____ _____    ______ ____
ROOT
ATOM      1  N   UNL     1      34.761 -15.997 -22.350  0.00  0.00    -0.276 N 
ATOM      2  N   UNL     1      34.855 -17.959 -23.750  0.00  0.00    -0.233 NA
ATOM      3  N   UNL     1      35.142 -20.017 -22.483  0.00  0.00    -0.233 NA
ATOM      4  C   UNL     1      34.878 -17.346 -22.552  0.00  0.00    +0.120 C 
ATOM      5  C   UNL     1      34.829 -15.729 -21.006  0.00  0.00    +0.062 C 
ATOM      6  C   UNL     1      35.024 -17.956 -21.312  0.00  0.00    +0.131 C 
ATOM      7  C   UNL     1      34.991 -16.925 -20.339  0.00  0.00    +0.004 C 
ATOM      8  C   UNL     1      35.160 -19.353 -21.292  0.00  0.00    +0.113 C 
ATOM      9  C   UNL     1      34.994 -19.292 -23.615  0.00  0.00    +0.252 C 
ATOM     10  N   UNL     1      35.309 -20.048 -20.102  0.00  0.00    -0.319 N 
ATOM     11  H   UNL     1      35.316 -19.533 -19.262  0.00  0.00    +0.148 HD
ENDROOT
BRANCH  10  12
ATOM     12  C   UNL     1      35.454 -21.481 -20.022  0.00  0.00    +0.093 C 
ATOM     13  C   UNL     1      36.867 -21.867 -19.548  0.00  0.00    +0.029 C 
ATOM     14  C   UNL     1      34.613 -22.037 -18.912  0.00  0.00    -0.008 C 
ATOM     15  C   UNL     1      36.821 -21.935 -18.012  0.00  0.00    +0.028 C 
ATOM     16  C   UNL     1      35.390 -22.301 -17.777  0.00  0.00    -0.025 C 
ATOM     17  C   UNL     1      33.246 -22.266 -18.910  0.00  0.00    -0.003 C 
ATOM     18  C   UNL     1      34.816 -22.791 -16.617  0.00  0.00    -0.005 C 
ATOM     19  C   UNL     1      32.661 -22.772 -17.747  0.00  0.00    -0.000 C 
ATOM     20  C   UNL     1      33.441 -23.032 -16.608  0.00  0.00    -0.000 C 
ENDBRANCH  10  12
BRANCH   1  21
ATOM     21  C   UNL     1      34.593 -14.989 -23.393  0.00  0.00    +0.081 C 
ATOM     22  C   UNL     1      32.984 -13.147 -23.387  0.00  0.00    +0.061 C 
ATOM     23  C   UNL     1      34.368 -13.555 -22.868  0.00  0.00    +0.025 C 
ATOM     24  C   UNL     1      32.854 -13.917 -24.703  0.00  0.00    +0.115 C 
ATOM     25  C   UNL     1      33.419 -15.289 -24.348  0.00  0.00    +0.049 C 
BRANCH  24  26
ATOM     26  O   UNL     1      33.645 -13.318 -25.722  0.00  0.00    -0.384 OA
ATOM     27  H   UNL     1      33.069 -13.014 -26.441  0.00  0.00    +0.210 HD
ENDBRANCH  24  26
BRANCH  22  28
ATOM     28  C   UNL     1      32.829 -11.639 -23.518  0.00  0.00    +0.176 C 
BRANCH  28  29
ATOM     29  O   UNL     1      32.867 -11.064 -22.223  0.00  0.00    -0.230 OA
BRANCH  29  30
ATOM     30  S   UNL     1      31.554 -10.280 -21.640  0.00  0.00    +0.045 S 
ATOM     31  O   UNL     1      31.920  -9.628 -20.395  0.00  0.00    -0.056 OA
ATOM     32  O   UNL     1      30.994  -9.502 -22.730  0.00  0.00    -0.056 OA
BRANCH  30  33
ATOM     33  N   UNL     1      30.446 -11.537 -21.276  0.00  0.00    -0.204 NA
ATOM     34  H   UNL     1      29.533 -11.311 -21.672  0.00  0.00    +0.144 HD
ATOM     35  H   UNL     1      30.363 -11.634 -20.264  0.00  0.00    +0.144 HD
ENDBRANCH  30  33
ENDBRANCH  29  30
ENDBRANCH  28  29
ENDBRANCH  22  28
ENDBRANCH   1  21
TORSDOF 7
ENDMDL
MODEL 6
REMARK VINA RESULT:     -10.0      3.824      6.649
REMARK  Name = 16720766
REMARK  7 active torsions:
REMARK  status: ('A' for Active; 'I' for Inactive)
REMARK    1  A    between atoms: N_1  and  C_10
REMARK    2  A    between atoms: C_11  and  C_17
REMARK    3  A    between atoms: C_13  and  O_15
REMARK    4  A    between atoms: C_17  and  O_18
REMARK    5  A    between atoms: O_18  and  S_19
REMARK    6  A    between atoms: S_19  and  N_22
REMARK    7  A    between atoms: N_25  and  C_27
REMARK                            x       y       z     vdW  Elec       q    Type
REMARK                         _______ _______ _______ _____ _____    ______ ____
ROOT
ATOM      1  N   UNL     1      34.668 -16.169 -21.825  0.00  0.00    -0.276 N 
ATOM      2  N   UNL     1      34.152 -15.548 -24.097  0.00  0.00    -0.233 NA
ATOM      3  N   UNL     1      33.292 -13.279 -24.290  0.00  0.00    -0.233 NA
ATOM      4  C   UNL     1      34.225 -15.292 -22.779  0.00  0.00    +0.120 C 
ATOM      5  C   UNL     1      34.604 -15.572 -20.591  0.00  0.00    +0.062 C 
ATOM      6  C   UNL     1      33.869 -14.109 -22.143  0.00  0.00    +0.131 C 
ATOM      7  C   UNL     1      34.113 -14.295 -20.758  0.00  0.00    +0.004 C 
ATOM      8  C   UNL     1      33.383 -13.065 -22.947  0.00  0.00    +0.113 C 
ATOM      9  C   UNL     1      33.674 -14.483 -24.772  0.00  0.00    +0.252 C 
ATOM     10  N   UNL     1      33.005 -11.848 -22.400  0.00  0.00    -0.319 N 
ATOM     11  H   UNL     1      33.087 -11.732 -21.426  0.00  0.00    +0.148 HD
ENDROOT
BRANCH  10  12
ATOM     12  C   UNL     1      32.500 -10.743 -23.177  0.00  0.00    +0.093 C 
ATOM     13  C   UNL     1      31.249 -10.132 -22.518  0.00  0.00    +0.029 C 
ATOM     14  C   UNL     1      33.449  -9.584 -23.129  0.00  0.00    -0.008 C 
ATOM     15  C   UNL     1      31.740  -9.037 -21.555  0.00  0.00    +0.028 C 
ATOM     16  C   UNL     1      33.014  -8.615 -22.216  0.00  0.00    -0.025 C 
ATOM     17  C   UNL     1      34.631  -9.420 -23.834  0.00  0.00    -0.003 C 
ATOM     18  C   UNL     1      33.755  -7.469 -21.983  0.00  0.00    -0.005 C 
ATOM     19  C   UNL     1      35.378  -8.260 -23.614  0.00  0.00    -0.000 C 
ATOM     20  C   UNL     1      34.943  -7.292 -22.694  0.00  0.00    -0.000 C 
ENDBRANCH  10  12
BRANCH   1  21
ATOM     21  C   UNL     1      35.137 -17.530 -22.069  0.00  0.00    +0.081 C 
ATOM     22  C   UNL     1      34.754 -19.478 -20.640  0.00  0.00    +0.061 C 
ATOM     23  C   UNL     1      34.105 -18.631 -21.742  0.00  0.00    +0.025 C 
ATOM     24  C   UNL     1      36.251 -19.363 -20.935  0.00  0.00    +0.115 C 
ATOM     25  C   UNL     1      36.415 -17.886 -21.282  0.00  0.00    +0.049 C 
BRANCH  24  26
ATOM     26  O   UNL     1      36.611 -20.164 -22.054  0.00  0.00    -0.384 OA
ATOM     27  H   UNL     1      37.274 -20.819 -21.782  0.00  0.00    +0.210 HD
ENDBRANCH  24  26
BRANCH  22  28
ATOM     28  C   UNL     1      34.222 -20.902 -20.607  0.00  0.00    +0.176 C 
BRANCH  28  29
ATOM     29  O   UNL     1      34.943 -21.635 -19.630  0.00  0.00    -0.230 OA
BRANCH  29  30
ATOM     30  S   UNL     1      34.174 -22.758 -18.721  0.00  0.00    +0.045 S 
ATOM     31  O   UNL     1      34.063 -23.981 -19.495  0.00  0.00    -0.056 OA
ATOM     32  O   UNL     1      34.817 -22.778 -17.420  0.00  0.00    -0.056 OA
BRANCH  30  33
ATOM     33  N   UNL     1      32.598 -22.116 -18.511  0.00  0.00    -0.204 NA
ATOM     34  H   UNL     1      32.255 -22.356 -17.581  0.00  0.00    +0.144 HD
ATOM     35  H   UNL     1      31.974 -22.510 -19.215  0.00  0.00    +0.144 HD
ENDBRANCH  30  33
ENDBRANCH  29  30
ENDBRANCH  28  29
ENDBRANCH  22  28
ENDBRANCH   1  21
TORSDOF 7
ENDMDL
MODEL 7
REMARK VINA RESULT:      -9.9      5.826      9.326
REMARK  Name = 16720766
REMARK  7 active torsions:
REMARK  status: ('A' for Active; 'I' for Inactive)
REMARK    1  A    between atoms: N_1  and  C_10
REMARK    2  A    between atoms: C_11  and  C_17
REMARK    3  A    between atoms: C_13  and  O_15
REMARK    4  A    between atoms: C_17  and  O_18
REMARK    5  A    between atoms: O_18  and  S_19
REMARK    6  A    between atoms: S_19  and  N_22
REMARK    7  A    between atoms: N_25  and  C_27
REMARK                            x       y       z     vdW  Elec       q    Type
REMARK                         _______ _______ _______ _____ _____    ______ ____
ROOT
ATOM      1  N   UNL     1      33.461 -13.817 -23.128  0.00  0.00    -0.276 N 
ATOM      2  N   UNL     1      31.935 -13.611 -21.272  0.00  0.00    -0.233 NA
ATOM      3  N   UNL     1      31.384 -11.298 -20.749  0.00  0.00    -0.233 NA
ATOM      4  C   UNL     1      32.703 -13.093 -22.247  0.00  0.00    +0.120 C 
ATOM      5  C   UNL     1      34.112 -12.963 -23.981  0.00  0.00    +0.062 C 
ATOM      6  C   UNL     1      32.872 -11.746 -22.542  0.00  0.00    +0.131 C 
ATOM      7  C   UNL     1      33.765 -11.673 -23.642  0.00  0.00    +0.004 C 
ATOM      8  C   UNL     1      32.175 -10.819 -21.750  0.00  0.00    +0.113 C 
ATOM      9  C   UNL     1      31.315 -12.638 -20.575  0.00  0.00    +0.252 C 
ATOM     10  N   UNL     1      32.281  -9.455 -21.972  0.00  0.00    -0.319 N 
ATOM     11  H   UNL     1      32.862  -9.147 -22.705  0.00  0.00    +0.148 HD
ENDROOT
BRANCH  10  12
ATOM     12  C   UNL     1      31.589  -8.459 -21.190  0.00  0.00    +0.093 C 
ATOM     13  C   UNL     1      32.356  -8.148 -19.891  0.00  0.00    +0.029 C 
ATOM     14  C   UNL     1      31.626  -7.127 -21.876  0.00  0.00    -0.008 C 
ATOM     15  C   UNL     1      33.333  -7.003 -20.211  0.00  0.00    +0.028 C 
ATOM     16  C   UNL     1      32.608  -6.300 -21.316  0.00  0.00    -0.025 C 
ATOM     17  C   UNL     1      30.853  -6.695 -22.942  0.00  0.00    -0.003 C 
ATOM     18  C   UNL     1      32.843  -5.030 -21.815  0.00  0.00    -0.005 C 
ATOM     19  C   UNL     1      31.075  -5.411 -23.443  0.00  0.00    -0.000 C 
ATOM     20  C   UNL     1      32.064  -4.584 -22.884  0.00  0.00    -0.000 C 
ENDBRANCH  10  12
BRANCH   1  21
ATOM     21  C   UNL     1      33.569 -15.273 -23.163  0.00  0.00    +0.081 C 
ATOM     22  C   UNL     1      35.566 -16.594 -22.663  0.00  0.00    +0.061 C 
ATOM     23  C   UNL     1      34.380 -15.883 -21.999  0.00  0.00    +0.025 C 
ATOM     24  C   UNL     1      35.010 -17.028 -24.020  0.00  0.00    +0.115 C 
ATOM     25  C   UNL     1      34.207 -15.807 -24.462  0.00  0.00    +0.049 C 
BRANCH  24  26
ATOM     26  O   UNL     1      34.145 -18.148 -23.881  0.00  0.00    -0.384 OA
ATOM     27  H   UNL     1      33.650 -18.073 -23.050  0.00  0.00    +0.210 HD
ENDBRANCH  24  26
BRANCH  22  28
ATOM     28  C   UNL     1      36.119 -17.729 -21.813  0.00  0.00    +0.176 C 
BRANCH  28  29
ATOM     29  O   UNL     1      35.070 -18.253 -21.017  0.00  0.00    -0.230 OA
BRANCH  29  30
ATOM     30  S   UNL     1      34.802 -19.868 -20.982  0.00  0.00    +0.045 S 
ATOM     31  O   UNL     1      33.540 -20.111 -20.306  0.00  0.00    -0.056 OA
ATOM     32  O   UNL     1      35.014 -20.372 -22.326  0.00  0.00    -0.056 OA
BRANCH  30  33
ATOM     33  N   UNL     1      36.063 -20.478 -19.993  0.00  0.00    -0.204 NA
ATOM     34  H   UNL     1      35.661 -20.996 -19.212  0.00  0.00    +0.144 HD
ATOM     35  H   UNL     1      36.620 -19.703 -19.636  0.00  0.00    +0.144 HD
ENDBRANCH  30  33
ENDBRANCH  29  30
ENDBRANCH  28  29
ENDBRANCH  22  28
ENDBRANCH   1  21
TORSDOF 7
ENDMDL
MODEL 8
REMARK VINA RESULT:      -9.9      5.374     10.183
REMARK  Name = 16720766
REMARK  7 active torsions:
REMARK  status: ('A' for Active; 'I' for Inactive)
REMARK    1  A    between atoms: N_1  and  C_10
REMARK    2  A    between atoms: C_11  and  C_17
REMARK    3  A    between atoms: C_13  and  O_15
REMARK    4  A    between atoms: C_17  and  O_18
REMARK    5  A    between atoms: O_18  and  S_19
REMARK    6  A    between atoms: S_19  and  N_22
REMARK    7  A    between atoms: N_25  and  C_27
REMARK                            x       y       z     vdW  Elec       q    Type
REMARK                         _______ _______ _______ _____ _____    ______ ____
ROOT
ATOM      1  N   UNL     1      35.785 -21.129 -19.528  0.00  0.00    -0.276 N 
ATOM      2  N   UNL     1      33.888 -22.542 -19.060  0.00  0.00    -0.233 NA
ATOM      3  N   UNL     1      34.036 -23.646 -16.896  0.00  0.00    -0.233 NA
ATOM      4  C   UNL     1      35.074 -21.995 -18.741  0.00  0.00    +0.120 C 
ATOM      5  C   UNL     1      36.945 -20.776 -18.887  0.00  0.00    +0.062 C 
ATOM      6  C   UNL     1      35.795 -22.203 -17.571  0.00  0.00    +0.131 C 
ATOM      7  C   UNL     1      36.978 -21.427 -17.672  0.00  0.00    +0.004 C 
ATOM      8  C   UNL     1      35.239 -23.069 -16.616  0.00  0.00    +0.113 C 
ATOM      9  C   UNL     1      33.447 -23.353 -18.078  0.00  0.00    +0.252 C 
ATOM     10  N   UNL     1      35.885 -23.335 -15.419  0.00  0.00    -0.319 N 
ATOM     11  H   UNL     1      36.752 -22.898 -15.252  0.00  0.00    +0.148 HD
ENDROOT
BRANCH  10  12
ATOM     12  C   UNL     1      35.361 -24.215 -14.403  0.00  0.00    +0.093 C 
ATOM     13  C   UNL     1      35.367 -25.678 -14.884  0.00  0.00    +0.029 C 
ATOM     14  C   UNL     1      36.296 -24.290 -13.233  0.00  0.00    -0.008 C 
ATOM     15  C   UNL     1      36.729 -26.274 -14.488  0.00  0.00    +0.028 C 
ATOM     16  C   UNL     1      37.065 -25.460 -13.278  0.00  0.00    -0.025 C 
ATOM     17  C   UNL     1      36.465 -23.364 -12.215  0.00  0.00    -0.003 C 
ATOM     18  C   UNL     1      38.021 -25.724 -12.313  0.00  0.00    -0.005 C 
ATOM     19  C   UNL     1      37.419 -23.629 -11.231  0.00  0.00    -0.000 C 
ATOM     20  C   UNL     1      38.193 -24.800 -11.280  0.00  0.00    -0.000 C 
ENDBRANCH  10  12
BRANCH   1  21
ATOM     21  C   UNL     1      35.382 -20.647 -20.847  0.00  0.00    +0.081 C 
ATOM     22  C   UNL     1      35.124 -18.312 -21.525  0.00  0.00    +0.061 C 
ATOM     23  C   UNL     1      36.171 -19.419 -21.348  0.00  0.00    +0.025 C 
ATOM     24  C   UNL     1      33.850 -19.078 -21.884  0.00  0.00    +0.115 C 
ATOM     25  C   UNL     1      33.890 -20.267 -20.928  0.00  0.00    +0.049 C 
BRANCH  24  26
ATOM     26  O   UNL     1      33.896 -19.539 -23.229  0.00  0.00    -0.384 OA
ATOM     27  H   UNL     1      33.789 -18.787 -23.832  0.00  0.00    +0.210 HD
ENDBRANCH  24  26
BRANCH  22  28
ATOM     28  C   UNL     1      35.544 -17.267 -22.547  0.00  0.00    +0.176 C 
BRANCH  28  29
ATOM     29  O   UNL     1      34.413 -16.486 -22.893  0.00  0.00    -0.230 OA
BRANCH  29  30
ATOM     30  S   UNL     1      34.107 -16.143 -24.463  0.00  0.00    +0.045 S 
ATOM     31  O   UNL     1      33.493 -14.830 -24.538  0.00  0.00    -0.056 OA
ATOM     32  O   UNL     1      35.320 -16.420 -25.212  0.00  0.00    -0.056 OA
BRANCH  30  33
ATOM     33  N   UNL     1      32.935 -17.306 -24.924  0.00  0.00    -0.204 NA
ATOM     34  H   UNL     1      32.526 -17.726 -24.089  0.00  0.00    +0.144 HD
ATOM     35  H   UNL     1      33.380 -18.032 -25.486  0.00  0.00    +0.144 HD
ENDBRANCH  30  33
ENDBRANCH  29  30
ENDBRANCH  28  29
ENDBRANCH  22  28
ENDBRANCH   1  21
TORSDOF 7
ENDMDL
MODEL 9
REMARK VINA RESULT:      -9.8      5.365      9.674
REMARK  Name = 16720766
REMARK  7 active torsions:
REMARK  status: ('A' for Active; 'I' for Inactive)
REMARK    1  A    between atoms: N_1  and  C_10
REMARK    2  A    between atoms: C_11  and  C_17
REMARK    3  A    between atoms: C_13  and  O_15
REMARK    4  A    between atoms: C_17  and  O_18
REMARK    5  A    between atoms: O_18  and  S_19
REMARK    6  A    between atoms: S_19  and  N_22
REMARK    7  A    between atoms: N_25  and  C_27
REMARK                            x       y       z     vdW  Elec       q    Type
REMARK                         _______ _______ _______ _____ _____    ______ ____
ROOT
ATOM      1  N   UNL     1      34.265 -20.075 -20.689  0.00  0.00    -0.276 N 
ATOM      2  N   UNL     1      36.135 -21.016 -19.492  0.00  0.00    -0.233 NA
ATOM      3  N   UNL     1      35.468 -22.666 -17.832  0.00  0.00    -0.233 NA
ATOM      4  C   UNL     1      34.820 -20.907 -19.754  0.00  0.00    +0.120 C 
ATOM      5  C   UNL     1      32.901 -20.226 -20.682  0.00  0.00    +0.062 C 
ATOM      6  C   UNL     1      33.791 -21.604 -19.134  0.00  0.00    +0.131 C 
ATOM      7  C   UNL     1      32.579 -21.168 -19.728  0.00  0.00    +0.004 C 
ATOM      8  C   UNL     1      34.145 -22.522 -18.131  0.00  0.00    +0.113 C 
ATOM      9  C   UNL     1      36.362 -21.919 -18.518  0.00  0.00    +0.252 C 
ATOM     10  N   UNL     1      33.186 -23.264 -17.459  0.00  0.00    -0.319 N 
ATOM     11  H   UNL     1      32.242 -23.132 -17.704  0.00  0.00    +0.148 HD
ENDROOT
BRANCH  10  12
ATOM     12  C   UNL     1      33.493 -24.219 -16.422  0.00  0.00    +0.093 C 
ATOM     13  C   UNL     1      34.733 -23.782 -15.620  0.00  0.00    +0.029 C 
ATOM     14  C   UNL     1      32.438 -24.201 -15.357  0.00  0.00    -0.008 C 
ATOM     15  C   UNL     1      34.231 -22.906 -14.460  0.00  0.00    +0.028 C 
ATOM     16  C   UNL     1      32.860 -23.465 -14.244  0.00  0.00    -0.025 C 
ATOM     17  C   UNL     1      31.180 -24.782 -15.394  0.00  0.00    -0.003 C 
ATOM     18  C   UNL     1      32.031 -23.287 -13.149  0.00  0.00    -0.005 C 
ATOM     19  C   UNL     1      30.343 -24.618 -14.288  0.00  0.00    -0.000 C 
ATOM     20  C   UNL     1      30.765 -23.875 -13.174  0.00  0.00    -0.000 C 
ENDBRANCH  10  12
BRANCH   1  21
ATOM     21  C   UNL     1      34.998 -19.164 -21.564  0.00  0.00    +0.081 C 
ATOM     22  C   UNL     1      34.435 -16.830 -22.031  0.00  0.00    +0.061 C 
ATOM     23  C   UNL     1      35.147 -17.729 -21.013  0.00  0.00    +0.025 C 
ATOM     24  C   UNL     1      34.621 -17.573 -23.356  0.00  0.00    +0.115 C 
ATOM     25  C   UNL     1      34.371 -19.027 -22.966  0.00  0.00    +0.049 C 
BRANCH  24  26
ATOM     26  O   UNL     1      35.950 -17.424 -23.839  0.00  0.00    -0.384 OA
ATOM     27  H   UNL     1      36.239 -18.255 -24.250  0.00  0.00    +0.210 HD
ENDBRANCH  24  26
BRANCH  22  28
ATOM     28  C   UNL     1      34.964 -15.404 -22.024  0.00  0.00    +0.176 C 
BRANCH  28  29
ATOM     29  O   UNL     1      34.862 -14.874 -23.335  0.00  0.00    -0.230 OA
BRANCH  29  30
ATOM     30  S   UNL     1      33.597 -13.913 -23.729  0.00  0.00    +0.045 S 
ATOM     31  O   UNL     1      32.630 -13.956 -22.646  0.00  0.00    -0.056 OA
ATOM     32  O   UNL     1      34.139 -12.640 -24.167  0.00  0.00    -0.056 OA
BRANCH  30  33
ATOM     33  N   UNL     1      32.901 -14.679 -25.095  0.00  0.00    -0.204 NA
ATOM     34  H   UNL     1      32.010 -15.101 -24.831  0.00  0.00    +0.144 HD
ATOM     35  H   UNL     1      33.532 -15.404 -25.436  0.00  0.00    +0.144 HD
ENDBRANCH  30  33
ENDBRANCH  29  30
ENDBRANCH  28  29
ENDBRANCH  22  28
ENDBRANCH   1  21
TORSDOF 7
ENDMDL
