MODEL 1
REMARK VINA RESULT:     -11.6      0.000      0.000
REMARK  Name = 5288250
REMARK  9 active torsions:
REMARK  status: ('A' for Active; 'I' for Inactive)
REMARK    1  A    between atoms: C_1  and  N_3
REMARK    2  A    between atoms: C_1  and  C_20
REMARK    3  A    between atoms: C_1  and  C_23
REMARK    4  A    between atoms: C_4  and  C_6
REMARK    5  A    between atoms: C_6  and  C_10
REMARK    6  A    between atoms: C_20  and  O_21
REMARK    7  A    between atoms: C_23  and  C_24
REMARK    8  A    between atoms: C_29  and  C_30
REMARK    9  A    between atoms: C_31  and  C_32
REMARK                            x       y       z     vdW  Elec       q    Type
REMARK                         _______ _______ _______ _____ _____    ______ ____
ROOT
ATOM      1  C   UNL     1      35.575 -25.157 -15.176  0.00  0.00    +0.176 C 
ENDROOT
BRANCH   1   3
ATOM      2  O   UNL     1      35.157 -23.661 -12.734  0.00  0.00    -0.275 OA
ATOM      3  N   UNL     1      34.350 -25.045 -14.419  0.00  0.00    -0.297 N 
ATOM      4  C   UNL     1      34.245 -24.300 -13.253  0.00  0.00    +0.223 C 
ATOM      5  H   UNL     1      33.551 -25.519 -14.746  0.00  0.00    +0.150 HD
BRANCH   4   6
ATOM      6  C   UNL     1      32.843 -24.366 -12.685  0.00  0.00    +0.087 C 
BRANCH   6  10
ATOM      7  N   UNL     1      30.033 -23.634 -15.143  0.00  0.00    -0.282 N 
ATOM      8  N   UNL     1      31.187 -22.670 -16.858  0.00  0.00    -0.331 N 
ATOM      9  N   UNL     1      28.840 -22.712 -16.929  0.00  0.00    -0.273 NA
ATOM     10  C   UNL     1      31.794 -24.637 -13.761  0.00  0.00    +0.029 C 
ATOM     11  C   UNL     1      30.782 -25.689 -13.282  0.00  0.00    +0.004 C 
ATOM     12  C   UNL     1      31.076 -23.341 -14.162  0.00  0.00    +0.094 C 
ATOM     13  C   UNL     1      29.692 -25.913 -14.329  0.00  0.00    +0.022 C 
ATOM     14  C   UNL     1      29.021 -24.600 -14.720  0.00  0.00    +0.093 C 
ATOM     15  C   UNL     1      29.964 -22.994 -16.333  0.00  0.00    +0.174 C 
ATOM     16  H   UNL     1      32.010 -22.904 -16.371  0.00  0.00    +0.145 HD
ATOM     17  H   UNL     1      31.243 -22.203 -17.723  0.00  0.00    +0.145 HD
ATOM     18  H   UNL     1      27.985 -22.966 -16.512  0.00  0.00    +0.189 HD
ENDBRANCH   6  10
ENDBRANCH   4   6
ENDBRANCH   1   3
BRANCH   1  20
ATOM     19  O   UNL     1      36.335 -27.449 -15.085  0.00  0.00    -0.248 OA
ATOM     20  C   UNL     1      36.459 -26.295 -14.686  0.00  0.00    +0.335 C 
BRANCH  20  21
ATOM     21  O   UNL     1      37.367 -25.879 -13.759  0.00  0.00    -0.443 OA
ATOM     22  C   UNL     1      37.253 -26.479 -12.465  0.00  0.00    +0.256 C 
ENDBRANCH  20  21
ENDBRANCH   1  20
BRANCH   1  23
ATOM     23  C   UNL     1      36.330 -23.820 -15.220  0.00  0.00    +0.057 C 
BRANCH  23  24
ATOM     24  C   UNL     1      36.074 -22.990 -16.458  0.00  0.00    -0.020 C 
ATOM     25  C   UNL     1      34.853 -23.089 -17.125  0.00  0.00    -0.004 C 
ATOM     26  C   UNL     1      37.059 -22.124 -16.933  0.00  0.00    -0.004 C 
ATOM     27  C   UNL     1      34.617 -22.324 -18.267  0.00  0.00    +0.008 C 
ATOM     28  C   UNL     1      36.823 -21.358 -18.074  0.00  0.00    +0.008 C 
ATOM     29  C   UNL     1      35.603 -21.458 -18.742  0.00  0.00    +0.042 C 
BRANCH  29  30
ATOM     30  C   UNL     1      35.361 -20.675 -19.912  0.00  0.00    -0.060 C 
ATOM     31  C   UNL     1      35.157 -20.016 -20.895  0.00  0.00    -0.060 C 
BRANCH  31  32
ATOM     32  C   UNL     1      34.915 -19.230 -22.067  0.00  0.00    +0.042 C 
ATOM     33  C   UNL     1      35.311 -17.894 -22.104  0.00  0.00    +0.008 C 
ATOM     34  C   UNL     1      34.282 -19.802 -23.171  0.00  0.00    +0.008 C 
ATOM     35  C   UNL     1      35.075 -17.128 -23.245  0.00  0.00    +0.001 C 
ATOM     36  C   UNL     1      34.046 -19.035 -24.312  0.00  0.00    +0.001 C 
ATOM     37  C   UNL     1      34.443 -17.698 -24.349  0.00  0.00    +0.000 C 
ENDBRANCH  31  32
ENDBRANCH  29  30
ENDBRANCH  23  24
ENDBRANCH   1  23
TORSDOF 9
ENDMDL
MODEL 2
REMARK VINA RESULT:     -11.1      3.062      5.573
REMARK  Name = 5288250
REMARK  9 active torsions:
REMARK  status: ('A' for Active; 'I' for Inactive)
REMARK    1  A    between atoms: C_1  and  N_3
REMARK    2  A    between atoms: C_1  and  C_20
REMARK    3  A    between atoms: C_1  and  C_23
REMARK    4  A    between atoms: C_4  and  C_6
REMARK    5  A    between atoms: C_6  and  C_10
REMARK    6  A    between atoms: C_20  and  O_21
REMARK    7  A    between atoms: C_23  and  C_24
REMARK    8  A    between atoms: C_29  and  C_30
REMARK    9  A    between atoms: C_31  and  C_32
REMARK                            x       y       z     vdW  Elec       q    Type
REMARK                         _______ _______ _______ _____ _____    ______ ____
ROOT
ATOM      1  C   UNL     1      35.339 -22.408 -17.705  0.00  0.00    +0.176 C 
ENDROOT
BRANCH   1   3
ATOM      2  O   UNL     1      37.499 -20.928 -16.472  0.00  0.00    -0.275 OA
ATOM      3  N   UNL     1      36.297 -22.899 -16.741  0.00  0.00    -0.297 N 
ATOM      4  C   UNL     1      37.303 -22.109 -16.203  0.00  0.00    +0.223 C 
ATOM      5  H   UNL     1      36.232 -23.838 -16.452  0.00  0.00    +0.150 HD
BRANCH   4   6
ATOM      6  C   UNL     1      38.147 -22.893 -15.220  0.00  0.00    +0.087 C 
BRANCH   6  10
ATOM      7  N   UNL     1      36.590 -24.914 -12.397  0.00  0.00    -0.282 N 
ATOM      8  N   UNL     1      34.737 -23.668 -11.933  0.00  0.00    -0.331 N 
ATOM      9  N   UNL     1      35.276 -25.488 -10.551  0.00  0.00    -0.273 NA
ATOM     10  C   UNL     1      37.361 -24.015 -14.546  0.00  0.00    +0.029 C 
ATOM     11  C   UNL     1      37.981 -25.383 -14.865  0.00  0.00    +0.004 C 
ATOM     12  C   UNL     1      37.289 -23.796 -13.028  0.00  0.00    +0.094 C 
ATOM     13  C   UNL     1      37.238 -26.502 -14.137  0.00  0.00    +0.022 C 
ATOM     14  C   UNL     1      37.165 -26.235 -12.636  0.00  0.00    +0.093 C 
ATOM     15  C   UNL     1      35.528 -24.729 -11.579  0.00  0.00    +0.174 C 
ATOM     16  H   UNL     1      34.967 -23.122 -12.719  0.00  0.00    +0.145 HD
ATOM     17  H   UNL     1      33.937 -23.451 -11.400  0.00  0.00    +0.145 HD
ATOM     18  H   UNL     1      35.875 -26.240 -10.337  0.00  0.00    +0.189 HD
ENDBRANCH   6  10
ENDBRANCH   4   6
ENDBRANCH   1   3
BRANCH   1  20
ATOM     19  O   UNL     1      33.534 -23.688 -18.675  0.00  0.00    -0.248 OA
ATOM     20  C   UNL     1      34.031 -23.186 -17.671  0.00  0.00    +0.335 C 
BRANCH  20  21
ATOM     21  O   UNL     1      33.493 -23.236 -16.421  0.00  0.00    -0.443 OA
ATOM     22  C   UNL     1      32.091 -23.518 -16.358  0.00  0.00    +0.256 C 
ENDBRANCH  20  21
ENDBRANCH   1  20
BRANCH   1  23
ATOM     23  C   UNL     1      35.942 -22.357 -19.116  0.00  0.00    +0.057 C 
BRANCH  23  24
ATOM     24  C   UNL     1      35.639 -21.092 -19.888  0.00  0.00    -0.020 C 
ATOM     25  C   UNL     1      36.668 -20.208 -20.211  0.00  0.00    -0.004 C 
ATOM     26  C   UNL     1      34.329 -20.810 -20.277  0.00  0.00    -0.004 C 
ATOM     27  C   UNL     1      36.388 -19.041 -20.922  0.00  0.00    +0.008 C 
ATOM     28  C   UNL     1      34.049 -19.644 -20.988  0.00  0.00    +0.008 C 
ATOM     29  C   UNL     1      35.078 -18.759 -21.311  0.00  0.00    +0.042 C 
BRANCH  29  30
ATOM     30  C   UNL     1      34.791 -17.564 -22.039  0.00  0.00    -0.060 C 
ATOM     31  C   UNL     1      34.549 -16.559 -22.651  0.00  0.00    -0.060 C 
BRANCH  31  32
ATOM     32  C   UNL     1      34.260 -15.362 -23.380  0.00  0.00    +0.042 C 
ATOM     33  C   UNL     1      34.432 -14.118 -22.772  0.00  0.00    +0.008 C 
ATOM     34  C   UNL     1      33.807 -15.439 -24.697  0.00  0.00    +0.008 C 
ATOM     35  C   UNL     1      34.151 -12.950 -23.482  0.00  0.00    +0.001 C 
ATOM     36  C   UNL     1      33.526 -14.271 -25.406  0.00  0.00    +0.001 C 
ATOM     37  C   UNL     1      33.698 -13.027 -24.798  0.00  0.00    +0.000 C 
ENDBRANCH  31  32
ENDBRANCH  29  30
ENDBRANCH  23  24
ENDBRANCH   1  23
TORSDOF 9
ENDMDL
MODEL 3
REMARK VINA RESULT:     -10.5      5.480     10.901
REMARK  Name = 5288250
REMARK  9 active torsions:
REMARK  status: ('A' for Active; 'I' for Inactive)
REMARK    1  A    between atoms: C_1  and  N_3
REMARK    2  A    between atoms: C_1  and  C_20
REMARK    3  A    between atoms: C_1  and  C_23
REMARK    4  A    between atoms: C_4  and  C_6
REMARK    5  A    between atoms: C_6  and  C_10
REMARK    6  A    between atoms: C_20  and  O_21
REMARK    7  A    between atoms: C_23  and  C_24
REMARK    8  A    between atoms: C_29  and  C_30
REMARK    9  A    between atoms: C_31  and  C_32
REMARK                            x       y       z     vdW  Elec       q    Type
REMARK                         _______ _______ _______ _____ _____    ______ ____
ROOT
ATOM      1  C   UNL     1      35.403 -18.564 -21.430  0.00  0.00    +0.176 C 
ENDROOT
BRANCH   1   3
ATOM      2  O   UNL     1      34.865 -15.782 -20.841  0.00  0.00    -0.275 OA
ATOM      3  N   UNL     1      35.089 -17.515 -22.373  0.00  0.00    -0.297 N 
ATOM      4  C   UNL     1      34.845 -16.203 -21.994  0.00  0.00    +0.223 C 
ATOM      5  H   UNL     1      35.047 -17.743 -23.330  0.00  0.00    +0.150 HD
BRANCH   4   6
ATOM      6  C   UNL     1      34.549 -15.332 -23.196  0.00  0.00    +0.087 C 
BRANCH   6  10
ATOM      7  N   UNL     1      32.312 -12.498 -21.994  0.00  0.00    -0.282 N 
ATOM      8  N   UNL     1      32.303 -12.868 -19.743  0.00  0.00    -0.331 N 
ATOM      9  N   UNL     1      30.900 -11.215 -20.644  0.00  0.00    -0.273 NA
ATOM     10  C   UNL     1      34.148 -13.913 -22.799  0.00  0.00    +0.029 C 
ATOM     11  C   UNL     1      34.346 -12.942 -23.973  0.00  0.00    +0.004 C 
ATOM     12  C   UNL     1      32.695 -13.874 -22.305  0.00  0.00    +0.094 C 
ATOM     13  C   UNL     1      33.882 -11.535 -23.600  0.00  0.00    +0.022 C 
ATOM     14  C   UNL     1      32.444 -11.541 -23.091  0.00  0.00    +0.093 C 
ATOM     15  C   UNL     1      31.796 -12.149 -20.793  0.00  0.00    +0.174 C 
ATOM     16  H   UNL     1      32.980 -13.564 -19.904  0.00  0.00    +0.145 HD
ATOM     17  H   UNL     1      31.991 -12.688 -18.827  0.00  0.00    +0.145 HD
ATOM     18  H   UNL     1      30.565 -10.725 -21.430  0.00  0.00    +0.189 HD
ENDBRANCH   6  10
ENDBRANCH   4   6
ENDBRANCH   1   3
BRANCH   1  20
ATOM     19  O   UNL     1      37.684 -18.809 -22.188  0.00  0.00    -0.248 OA
ATOM     20  C   UNL     1      36.902 -18.748 -21.244  0.00  0.00    +0.335 C 
BRANCH  20  21
ATOM     21  O   UNL     1      37.249 -18.851 -19.930  0.00  0.00    -0.443 OA
ATOM     22  C   UNL     1      37.470 -20.180 -19.448  0.00  0.00    +0.256 C 
ENDBRANCH  20  21
ENDBRANCH   1  20
BRANCH   1  23
ATOM     23  C   UNL     1      34.704 -19.880 -21.805  0.00  0.00    +0.057 C 
BRANCH  23  24
ATOM     24  C   UNL     1      34.137 -20.650 -20.633  0.00  0.00    -0.020 C 
ATOM     25  C   UNL     1      34.934 -21.569 -19.951  0.00  0.00    -0.004 C 
ATOM     26  C   UNL     1      32.817 -20.440 -20.234  0.00  0.00    -0.004 C 
ATOM     27  C   UNL     1      34.410 -22.280 -18.871  0.00  0.00    +0.008 C 
ATOM     28  C   UNL     1      32.294 -21.150 -19.153  0.00  0.00    +0.008 C 
ATOM     29  C   UNL     1      33.090 -22.070 -18.472  0.00  0.00    +0.042 C 
BRANCH  29  30
ATOM     30  C   UNL     1      32.554 -22.798 -17.365  0.00  0.00    -0.060 C 
ATOM     31  C   UNL     1      32.106 -23.410 -16.435  0.00  0.00    -0.060 C 
BRANCH  31  32
ATOM     32  C   UNL     1      31.569 -24.139 -15.326  0.00  0.00    +0.042 C 
ATOM     33  C   UNL     1      30.230 -24.527 -15.329  0.00  0.00    +0.008 C 
ATOM     34  C   UNL     1      32.387 -24.460 -14.242  0.00  0.00    +0.008 C 
ATOM     35  C   UNL     1      29.707 -25.237 -14.249  0.00  0.00    +0.001 C 
ATOM     36  C   UNL     1      31.863 -25.171 -13.161  0.00  0.00    +0.001 C 
ATOM     37  C   UNL     1      30.523 -25.558 -13.165  0.00  0.00    +0.000 C 
ENDBRANCH  31  32
ENDBRANCH  29  30
ENDBRANCH  23  24
ENDBRANCH   1  23
TORSDOF 9
ENDMDL
MODEL 4
REMARK VINA RESULT:     -10.1      6.407     10.365
REMARK  Name = 5288250
REMARK  9 active torsions:
REMARK  status: ('A' for Active; 'I' for Inactive)
REMARK    1  A    between atoms: C_1  and  N_3
REMARK    2  A    between atoms: C_1  and  C_20
REMARK    3  A    between atoms: C_1  and  C_23
REMARK    4  A    between atoms: C_4  and  C_6
REMARK    5  A    between atoms: C_6  and  C_10
REMARK    6  A    between atoms: C_20  and  O_21
REMARK    7  A    between atoms: C_23  and  C_24
REMARK    8  A    between atoms: C_29  and  C_30
REMARK    9  A    between atoms: C_31  and  C_32
REMARK                            x       y       z     vdW  Elec       q    Type
REMARK                         _______ _______ _______ _____ _____    ______ ____
ROOT
ATOM      1  C   UNL     1      34.253 -17.925 -23.546  0.00  0.00    +0.176 C 
ENDROOT
BRANCH   1   3
ATOM      2  O   UNL     1      35.106 -17.411 -20.828  0.00  0.00    -0.275 OA
ATOM      3  N   UNL     1      35.146 -18.729 -22.742  0.00  0.00    -0.297 N 
ATOM      4  C   UNL     1      35.498 -18.400 -21.441  0.00  0.00    +0.223 C 
ATOM      5  H   UNL     1      35.520 -19.549 -23.137  0.00  0.00    +0.150 HD
BRANCH   4   6
ATOM      6  C   UNL     1      36.441 -19.428 -20.853  0.00  0.00    +0.087 C 
BRANCH   6  10
ATOM      7  N   UNL     1      36.106 -22.076 -18.140  0.00  0.00    -0.282 N 
ATOM      8  N   UNL     1      37.347 -21.150 -16.465  0.00  0.00    -0.331 N 
ATOM      9  N   UNL     1      36.516 -23.331 -16.212  0.00  0.00    -0.273 NA
ATOM     10  C   UNL     1      35.798 -20.221 -19.716  0.00  0.00    +0.029 C 
ATOM     11  C   UNL     1      34.483 -20.866 -20.178  0.00  0.00    +0.004 C 
ATOM     12  C   UNL     1      36.764 -21.287 -19.180  0.00  0.00    +0.094 C 
ATOM     13  C   UNL     1      33.872 -21.715 -19.064  0.00  0.00    +0.022 C 
ATOM     14  C   UNL     1      34.870 -22.744 -18.541  0.00  0.00    +0.093 C 
ATOM     15  C   UNL     1      36.647 -22.240 -16.911  0.00  0.00    +0.174 C 
ATOM     16  H   UNL     1      37.418 -20.346 -17.028  0.00  0.00    +0.145 HD
ATOM     17  H   UNL     1      37.778 -21.171 -15.580  0.00  0.00    +0.145 HD
ATOM     18  H   UNL     1      36.003 -24.089 -16.576  0.00  0.00    +0.189 HD
ENDBRANCH   6  10
ENDBRANCH   4   6
ENDBRANCH   1   3
BRANCH   1  20
ATOM     19  O   UNL     1      32.644 -18.268 -25.315  0.00  0.00    -0.248 OA
ATOM     20  C   UNL     1      33.422 -18.764 -24.506  0.00  0.00    +0.335 C 
BRANCH  20  21
ATOM     21  O   UNL     1      33.636 -20.099 -24.341  0.00  0.00    -0.443 OA
ATOM     22  C   UNL     1      34.877 -20.597 -24.852  0.00  0.00    +0.256 C 
ENDBRANCH  20  21
ENDBRANCH   1  20
BRANCH   1  23
ATOM     23  C   UNL     1      35.012 -16.803 -24.270  0.00  0.00    +0.057 C 
BRANCH  23  24
ATOM     24  C   UNL     1      34.494 -15.409 -23.993  0.00  0.00    -0.020 C 
ATOM     25  C   UNL     1      34.686 -14.829 -22.740  0.00  0.00    -0.004 C 
ATOM     26  C   UNL     1      33.825 -14.703 -24.993  0.00  0.00    -0.004 C 
ATOM     27  C   UNL     1      34.208 -13.544 -22.485  0.00  0.00    +0.008 C 
ATOM     28  C   UNL     1      33.347 -13.417 -24.739  0.00  0.00    +0.008 C 
ATOM     29  C   UNL     1      33.539 -12.838 -23.484  0.00  0.00    +0.042 C 
BRANCH  29  30
ATOM     30  C   UNL     1      33.048 -11.521 -23.223  0.00  0.00    -0.060 C 
ATOM     31  C   UNL     1      32.637 -10.415 -23.004  0.00  0.00    -0.060 C 
BRANCH  31  32
ATOM     32  C   UNL     1      32.146  -9.096 -22.743  0.00  0.00    +0.042 C 
ATOM     33  C   UNL     1      31.677  -8.307 -23.792  0.00  0.00    +0.008 C 
ATOM     34  C   UNL     1      32.139  -8.600 -21.439  0.00  0.00    +0.008 C 
ATOM     35  C   UNL     1      31.198  -7.021 -23.539  0.00  0.00    +0.001 C 
ATOM     36  C   UNL     1      31.660  -7.314 -21.186  0.00  0.00    +0.001 C 
ATOM     37  C   UNL     1      31.190  -6.525 -22.236  0.00  0.00    +0.000 C 
ENDBRANCH  31  32
ENDBRANCH  29  30
ENDBRANCH  23  24
ENDBRANCH   1  23
TORSDOF 9
ENDMDL
MODEL 5
REMARK VINA RESULT:      -9.6      9.212     13.709
REMARK  Name = 5288250
REMARK  9 active torsions:
REMARK  status: ('A' for Active; 'I' for Inactive)
REMARK    1  A    between atoms: C_1  and  N_3
REMARK    2  A    between atoms: C_1  and  C_20
REMARK    3  A    between atoms: C_1  and  C_23
REMARK    4  A    between atoms: C_4  and  C_6
REMARK    5  A    between atoms: C_6  and  C_10
REMARK    6  A    between atoms: C_20  and  O_21
REMARK    7  A    between atoms: C_23  and  C_24
REMARK    8  A    between atoms: C_29  and  C_30
REMARK    9  A    between atoms: C_31  and  C_32
REMARK                            x       y       z     vdW  Elec       q    Type
REMARK                         _______ _______ _______ _____ _____    ______ ____
ROOT
ATOM      1  C   UNL     1      33.355 -13.586 -22.104  0.00  0.00    +0.176 C 
ENDROOT
BRANCH   1   3
ATOM      2  O   UNL     1      33.787 -13.415 -24.960  0.00  0.00    -0.275 OA
ATOM      3  N   UNL     1      33.571 -14.680 -23.022  0.00  0.00    -0.297 N 
ATOM      4  C   UNL     1      33.771 -14.499 -24.383  0.00  0.00    +0.223 C 
ATOM      5  H   UNL     1      33.579 -15.597 -22.665  0.00  0.00    +0.150 HD
BRANCH   4   6
ATOM      6  C   UNL     1      33.973 -15.823 -25.088  0.00  0.00    +0.087 C 
BRANCH   6  10
ATOM      7  N   UNL     1      35.331 -18.282 -22.521  0.00  0.00    -0.282 N 
ATOM      8  N   UNL     1      35.234 -17.030 -20.617  0.00  0.00    -0.331 N 
ATOM      9  N   UNL     1      36.261 -19.141 -20.556  0.00  0.00    -0.273 NA
ATOM     10  C   UNL     1      33.977 -17.002 -24.117  0.00  0.00    +0.029 C 
ATOM     11  C   UNL     1      33.650 -18.312 -24.849  0.00  0.00    +0.004 C 
ATOM     12  C   UNL     1      35.327 -17.110 -23.394  0.00  0.00    +0.094 C 
ATOM     13  C   UNL     1      33.719 -19.502 -23.894  0.00  0.00    +0.022 C 
ATOM     14  C   UNL     1      35.064 -19.561 -23.177  0.00  0.00    +0.093 C 
ATOM     15  C   UNL     1      35.639 -18.199 -21.206  0.00  0.00    +0.174 C 
ATOM     16  H   UNL     1      34.766 -16.347 -21.148  0.00  0.00    +0.145 HD
ATOM     17  H   UNL     1      35.411 -16.874 -19.661  0.00  0.00    +0.145 HD
ATOM     18  H   UNL     1      36.532 -19.964 -21.024  0.00  0.00    +0.189 HD
ENDBRANCH   6  10
ENDBRANCH   4   6
ENDBRANCH   1   3
BRANCH   1  20
ATOM     19  O   UNL     1      34.697 -14.328 -20.236  0.00  0.00    -0.248 OA
ATOM     20  C   UNL     1      33.595 -13.988 -20.655  0.00  0.00    +0.335 C 
BRANCH  20  21
ATOM     21  O   UNL     1      32.454 -13.938 -19.912  0.00  0.00    -0.443 OA
ATOM     22  C   UNL     1      32.037 -15.178 -19.330  0.00  0.00    +0.256 C 
ENDBRANCH  20  21
ENDBRANCH   1  20
BRANCH   1  23
ATOM     23  C   UNL     1      31.969 -12.954 -22.304  0.00  0.00    +0.057 C 
BRANCH  23  24
ATOM     24  C   UNL     1      31.968 -11.443 -22.374  0.00  0.00    -0.020 C 
ATOM     25  C   UNL     1      32.669 -10.791 -23.389  0.00  0.00    -0.004 C 
ATOM     26  C   UNL     1      31.265 -10.701 -21.425  0.00  0.00    -0.004 C 
ATOM     27  C   UNL     1      32.668  -9.398 -23.453  0.00  0.00    +0.008 C 
ATOM     28  C   UNL     1      31.263  -9.308 -21.489  0.00  0.00    +0.008 C 
ATOM     29  C   UNL     1      31.965  -8.656 -22.503  0.00  0.00    +0.042 C 
BRANCH  29  30
ATOM     30  C   UNL     1      31.964  -7.229 -22.569  0.00  0.00    -0.060 C 
ATOM     31  C   UNL     1      31.964  -6.029 -22.627  0.00  0.00    -0.060 C 
BRANCH  31  32
ATOM     32  C   UNL     1      31.963  -4.600 -22.693  0.00  0.00    +0.042 C 
ATOM     33  C   UNL     1      32.183  -3.959 -23.912  0.00  0.00    +0.008 C 
ATOM     34  C   UNL     1      31.742  -3.848 -21.539  0.00  0.00    +0.008 C 
ATOM     35  C   UNL     1      32.182  -2.565 -23.978  0.00  0.00    +0.001 C 
ATOM     36  C   UNL     1      31.741  -2.455 -21.605  0.00  0.00    +0.001 C 
ATOM     37  C   UNL     1      31.962  -1.814 -22.824  0.00  0.00    +0.000 C 
ENDBRANCH  31  32
ENDBRANCH  29  30
ENDBRANCH  23  24
ENDBRANCH   1  23
TORSDOF 9
ENDMDL
MODEL 6
REMARK VINA RESULT:      -9.4      5.246      8.326
REMARK  Name = 5288250
REMARK  9 active torsions:
REMARK  status: ('A' for Active; 'I' for Inactive)
REMARK    1  A    between atoms: C_1  and  N_3
REMARK    2  A    between atoms: C_1  and  C_20
REMARK    3  A    between atoms: C_1  and  C_23
REMARK    4  A    between atoms: C_4  and  C_6
REMARK    5  A    between atoms: C_6  and  C_10
REMARK    6  A    between atoms: C_20  and  O_21
REMARK    7  A    between atoms: C_23  and  C_24
REMARK    8  A    between atoms: C_29  and  C_30
REMARK    9  A    between atoms: C_31  and  C_32
REMARK                            x       y       z     vdW  Elec       q    Type
REMARK                         _______ _______ _______ _____ _____    ______ ____
ROOT
ATOM      1  C   UNL     1      34.657 -19.340 -21.361  0.00  0.00    +0.176 C 
ENDROOT
BRANCH   1   3
ATOM      2  O   UNL     1      32.734 -20.896 -19.858  0.00  0.00    -0.275 OA
ATOM      3  N   UNL     1      34.924 -20.482 -20.517  0.00  0.00    -0.297 N 
ATOM      4  C   UNL     1      33.931 -21.168 -19.833  0.00  0.00    +0.223 C 
ATOM      5  H   UNL     1      35.855 -20.789 -20.425  0.00  0.00    +0.150 HD
BRANCH   4   6
ATOM      6  C   UNL     1      34.510 -22.318 -19.036  0.00  0.00    +0.087 C 
BRANCH   6  10
ATOM      7  N   UNL     1      34.010 -23.582 -15.482  0.00  0.00    -0.282 N 
ATOM      8  N   UNL     1      35.684 -22.487 -14.386  0.00  0.00    -0.331 N 
ATOM      9  N   UNL     1      34.422 -24.103 -13.241  0.00  0.00    -0.273 NA
ATOM     10  C   UNL     1      33.892 -22.428 -17.644  0.00  0.00    +0.029 C 
ATOM     11  C   UNL     1      32.407 -22.809 -17.736  0.00  0.00    +0.004 C 
ATOM     12  C   UNL     1      34.657 -23.445 -16.786  0.00  0.00    +0.094 C 
ATOM     13  C   UNL     1      31.803 -22.985 -16.343  0.00  0.00    +0.022 C 
ATOM     14  C   UNL     1      32.605 -23.983 -15.513  0.00  0.00    +0.093 C 
ATOM     15  C   UNL     1      34.688 -23.426 -14.322  0.00  0.00    +0.174 C 
ATOM     16  H   UNL     1      35.849 -22.000 -15.225  0.00  0.00    +0.145 HD
ATOM     17  H   UNL     1      36.235 -22.300 -13.591  0.00  0.00    +0.145 HD
ATOM     18  H   UNL     1      33.696 -24.769 -13.245  0.00  0.00    +0.189 HD
ENDBRANCH   6  10
ENDBRANCH   4   6
ENDBRANCH   1   3
BRANCH   1  20
ATOM     19  O   UNL     1      35.569 -20.202 -23.426  0.00  0.00    -0.248 OA
ATOM     20  C   UNL     1      34.612 -19.707 -22.838  0.00  0.00    +0.335 C 
BRANCH  20  21
ATOM     21  O   UNL     1      33.412 -19.405 -23.407  0.00  0.00    -0.443 OA
ATOM     22  C   UNL     1      33.473 -18.812 -24.708  0.00  0.00    +0.256 C 
ENDBRANCH  20  21
ENDBRANCH   1  20
BRANCH   1  23
ATOM     23  C   UNL     1      35.643 -18.196 -21.081  0.00  0.00    +0.057 C 
BRANCH  23  24
ATOM     24  C   UNL     1      35.116 -16.815 -21.403  0.00  0.00    -0.020 C 
ATOM     25  C   UNL     1      35.083 -16.371 -22.725  0.00  0.00    -0.004 C 
ATOM     26  C   UNL     1      34.661 -15.986 -20.378  0.00  0.00    -0.004 C 
ATOM     27  C   UNL     1      34.598 -15.097 -23.021  0.00  0.00    +0.008 C 
ATOM     28  C   UNL     1      34.175 -14.713 -20.674  0.00  0.00    +0.008 C 
ATOM     29  C   UNL     1      34.143 -14.268 -21.996  0.00  0.00    +0.042 C 
BRANCH  29  30
ATOM     30  C   UNL     1      33.647 -12.963 -22.300  0.00  0.00    -0.060 C 
ATOM     31  C   UNL     1      33.229 -11.867 -22.553  0.00  0.00    -0.060 C 
BRANCH  31  32
ATOM     32  C   UNL     1      32.732 -10.559 -22.857  0.00  0.00    +0.042 C 
ATOM     33  C   UNL     1      31.408 -10.232 -22.568  0.00  0.00    +0.008 C 
ATOM     34  C   UNL     1      33.573  -9.613 -23.443  0.00  0.00    +0.008 C 
ATOM     35  C   UNL     1      30.923  -8.958 -22.863  0.00  0.00    +0.001 C 
ATOM     36  C   UNL     1      33.088  -8.339 -23.739  0.00  0.00    +0.001 C 
ATOM     37  C   UNL     1      31.763  -8.012 -23.449  0.00  0.00    +0.000 C 
ENDBRANCH  31  32
ENDBRANCH  29  30
ENDBRANCH  23  24
ENDBRANCH   1  23
TORSDOF 9
ENDMDL
MODEL 7
REMARK VINA RESULT:      -9.3      7.507     11.456
REMARK  Name = 5288250
REMARK  9 active torsions:
REMARK  status: ('A' for Active; 'I' for Inactive)
REMARK    1  A    between atoms: C_1  and  N_3
REMARK    2  A    between atoms: C_1  and  C_20
REMARK    3  A    between atoms: C_1  and  C_23
REMARK    4  A    between atoms: C_4  and  C_6
REMARK    5  A    between atoms: C_6  and  C_10
REMARK    6  A    between atoms: C_20  and  O_21
REMARK    7  A    between atoms: C_23  and  C_24
REMARK    8  A    between atoms: C_29  and  C_30
REMARK    9  A    between atoms: C_31  and  C_32
REMARK                            x       y       z     vdW  Elec       q    Type
REMARK                         _______ _______ _______ _____ _____    ______ ____
ROOT
ATOM      1  C   UNL     1      34.561 -15.454 -22.354  0.00  0.00    +0.176 C 
ENDROOT
BRANCH   1   3
ATOM      2  O   UNL     1      35.955 -17.233 -20.546  0.00  0.00    -0.275 OA
ATOM      3  N   UNL     1      34.546 -16.899 -22.364  0.00  0.00    -0.297 N 
ATOM      4  C   UNL     1      35.250 -17.670 -21.451  0.00  0.00    +0.223 C 
ATOM      5  H   UNL     1      34.010 -17.357 -23.051  0.00  0.00    +0.150 HD
BRANCH   4   6
ATOM      6  C   UNL     1      35.041 -19.148 -21.706  0.00  0.00    +0.087 C 
BRANCH   6  10
ATOM      7  N   UNL     1      35.536 -21.706 -18.933  0.00  0.00    -0.282 N 
ATOM      8  N   UNL     1      37.124 -20.675 -17.661  0.00  0.00    -0.331 N 
ATOM      9  N   UNL     1      36.486 -22.876 -17.146  0.00  0.00    -0.273 NA
ATOM     10  C   UNL     1      34.749 -19.922 -20.422  0.00  0.00    +0.029 C 
ATOM     11  C   UNL     1      33.390 -20.632 -20.511  0.00  0.00    +0.004 C 
ATOM     12  C   UNL     1      35.868 -20.932 -20.128  0.00  0.00    +0.094 C 
ATOM     13  C   UNL     1      33.126 -21.462 -19.256  0.00  0.00    +0.022 C 
ATOM     14  C   UNL     1      34.270 -22.434 -18.983  0.00  0.00    +0.093 C 
ATOM     15  C   UNL     1      36.383 -21.806 -17.883  0.00  0.00    +0.174 C 
ATOM     16  H   UNL     1      37.012 -19.891 -18.244  0.00  0.00    +0.145 HD
ATOM     17  H   UNL     1      37.770 -20.648 -16.918  0.00  0.00    +0.145 HD
ATOM     18  H   UNL     1      35.931 -23.665 -17.345  0.00  0.00    +0.189 HD
ENDBRANCH   6  10
ENDBRANCH   4   6
ENDBRANCH   1   3
BRANCH   1  20
ATOM     19  O   UNL     1      35.036 -14.030 -20.461  0.00  0.00    -0.248 OA
ATOM     20  C   UNL     1      34.310 -14.880 -20.967  0.00  0.00    +0.335 C 
BRANCH  20  21
ATOM     21  O   UNL     1      33.215 -15.433 -20.372  0.00  0.00    -0.443 OA
ATOM     22  C   UNL     1      32.294 -14.508 -19.786  0.00  0.00    +0.256 C 
ENDBRANCH  20  21
ENDBRANCH   1  20
BRANCH   1  23
ATOM     23  C   UNL     1      33.593 -14.878 -23.399  0.00  0.00    +0.057 C 
BRANCH  23  24
ATOM     24  C   UNL     1      33.324 -13.396 -23.262  0.00  0.00    -0.020 C 
ATOM     25  C   UNL     1      32.152 -12.953 -22.650  0.00  0.00    -0.004 C 
ATOM     26  C   UNL     1      34.250 -12.472 -23.746  0.00  0.00    -0.004 C 
ATOM     27  C   UNL     1      31.904 -11.586 -22.524  0.00  0.00    +0.008 C 
ATOM     28  C   UNL     1      34.003 -11.105 -23.619  0.00  0.00    +0.008 C 
ATOM     29  C   UNL     1      32.830 -10.662 -23.009  0.00  0.00    +0.042 C 
BRANCH  29  30
ATOM     30  C   UNL     1      32.576  -9.262 -22.880  0.00  0.00    -0.060 C 
ATOM     31  C   UNL     1      32.364  -8.085 -22.771  0.00  0.00    -0.060 C 
BRANCH  31  32
ATOM     32  C   UNL     1      32.110  -6.682 -22.643  0.00  0.00    +0.042 C 
ATOM     33  C   UNL     1      31.732  -5.938 -23.759  0.00  0.00    +0.008 C 
ATOM     34  C   UNL     1      32.242  -6.061 -21.401  0.00  0.00    +0.008 C 
ATOM     35  C   UNL     1      31.484  -4.570 -23.635  0.00  0.00    +0.001 C 
ATOM     36  C   UNL     1      31.995  -4.694 -21.277  0.00  0.00    +0.001 C 
ATOM     37  C   UNL     1      31.616  -3.949 -22.394  0.00  0.00    +0.000 C 
ENDBRANCH  31  32
ENDBRANCH  29  30
ENDBRANCH  23  24
ENDBRANCH   1  23
TORSDOF 9
ENDMDL
MODEL 8
REMARK VINA RESULT:      -8.9     11.322     16.328
REMARK  Name = 5288250
REMARK  9 active torsions:
REMARK  status: ('A' for Active; 'I' for Inactive)
REMARK    1  A    between atoms: C_1  and  N_3
REMARK    2  A    between atoms: C_1  and  C_20
REMARK    3  A    between atoms: C_1  and  C_23
REMARK    4  A    between atoms: C_4  and  C_6
REMARK    5  A    between atoms: C_6  and  C_10
REMARK    6  A    between atoms: C_20  and  O_21
REMARK    7  A    between atoms: C_23  and  C_24
REMARK    8  A    between atoms: C_29  and  C_30
REMARK    9  A    between atoms: C_31  and  C_32
REMARK                            x       y       z     vdW  Elec       q    Type
REMARK                         _______ _______ _______ _____ _____    ______ ____
ROOT
ATOM      1  C   UNL     1      33.334  -9.479 -22.770  0.00  0.00    +0.176 C 
ENDROOT
BRANCH   1   3
ATOM      2  O   UNL     1      33.652  -7.409 -20.773  0.00  0.00    -0.275 OA
ATOM      3  N   UNL     1      32.337  -8.534 -22.324  0.00  0.00    -0.297 N 
ATOM      4  C   UNL     1      32.584  -7.572 -21.356  0.00  0.00    +0.223 C 
ATOM      5  H   UNL     1      31.440  -8.575 -22.728  0.00  0.00    +0.150 HD
BRANCH   4   6
ATOM      6  C   UNL     1      31.355  -6.726 -21.099  0.00  0.00    +0.087 C 
BRANCH   6  10
ATOM      7  N   UNL     1      32.482  -4.149 -23.662  0.00  0.00    -0.282 N 
ATOM      8  N   UNL     1      32.460  -5.392 -25.575  0.00  0.00    -0.331 N 
ATOM      9  N   UNL     1      33.317  -3.206 -25.630  0.00  0.00    -0.273 NA
ATOM     10  C   UNL     1      31.253  -5.544 -22.060  0.00  0.00    +0.029 C 
ATOM     11  C   UNL     1      30.833  -4.269 -21.314  0.00  0.00    +0.004 C 
ATOM     12  C   UNL     1      32.581  -5.324 -22.798  0.00  0.00    +0.094 C 
ATOM     13  C   UNL     1      30.797  -3.070 -22.260  0.00  0.00    +0.022 C 
ATOM     14  C   UNL     1      32.124  -2.901 -22.992  0.00  0.00    +0.093 C 
ATOM     15  C   UNL     1      32.779  -4.199 -24.981  0.00  0.00    +0.174 C 
ATOM     16  H   UNL     1      32.055  -6.114 -25.043  0.00  0.00    +0.145 HD
ATOM     17  H   UNL     1      32.638  -5.527 -26.534  0.00  0.00    +0.145 HD
ATOM     18  H   UNL     1      33.529  -2.367 -25.159  0.00  0.00    +0.189 HD
ENDBRANCH   6  10
ENDBRANCH   4   6
ENDBRANCH   1   3
BRANCH   1  20
ATOM     19  O   UNL     1      35.619  -9.154 -23.488  0.00  0.00    -0.248 OA
ATOM     20  C   UNL     1      34.442  -8.817 -23.578  0.00  0.00    +0.335 C 
BRANCH  20  21
ATOM     21  O   UNL     1      33.970  -7.818 -24.375  0.00  0.00    -0.443 OA
ATOM     22  C   UNL     1      34.918  -7.249 -25.284  0.00  0.00    +0.256 C 
ENDBRANCH  20  21
ENDBRANCH   1  20
BRANCH   1  23
ATOM     23  C   UNL     1      32.694 -10.653 -23.527  0.00  0.00    +0.057 C 
BRANCH  23  24
ATOM     24  C   UNL     1      33.172 -12.020 -23.093  0.00  0.00    -0.020 C 
ATOM     25  C   UNL     1      32.791 -12.532 -21.853  0.00  0.00    -0.004 C 
ATOM     26  C   UNL     1      33.994 -12.771 -23.935  0.00  0.00    -0.004 C 
ATOM     27  C   UNL     1      33.233 -13.793 -21.453  0.00  0.00    +0.008 C 
ATOM     28  C   UNL     1      34.435 -14.032 -23.536  0.00  0.00    +0.008 C 
ATOM     29  C   UNL     1      34.055 -14.544 -22.295  0.00  0.00    +0.042 C 
BRANCH  29  30
ATOM     30  C   UNL     1      34.507 -15.836 -21.885  0.00  0.00    -0.060 C 
ATOM     31  C   UNL     1      34.888 -16.920 -21.539  0.00  0.00    -0.060 C 
BRANCH  31  32
ATOM     32  C   UNL     1      35.341 -18.214 -21.128  0.00  0.00    +0.042 C 
ATOM     33  C   UNL     1      36.705 -18.457 -20.969  0.00  0.00    +0.008 C 
ATOM     34  C   UNL     1      34.418 -19.232 -20.886  0.00  0.00    +0.008 C 
ATOM     35  C   UNL     1      37.147 -19.718 -20.568  0.00  0.00    +0.001 C 
ATOM     36  C   UNL     1      34.861 -20.493 -20.485  0.00  0.00    +0.001 C 
ATOM     37  C   UNL     1      36.225 -20.735 -20.327  0.00  0.00    +0.000 C 
ENDBRANCH  31  32
ENDBRANCH  29  30
ENDBRANCH  23  24
ENDBRANCH   1  23
TORSDOF 9
ENDMDL
MODEL 9
REMARK VINA RESULT:      -8.8     11.759     17.194
REMARK  Name = 5288250
REMARK  9 active torsions:
REMARK  status: ('A' for Active; 'I' for Inactive)
REMARK    1  A    between atoms: C_1  and  N_3
REMARK    2  A    between atoms: C_1  and  C_20
REMARK    3  A    between atoms: C_1  and  C_23
REMARK    4  A    between atoms: C_4  and  C_6
REMARK    5  A    between atoms: C_6  and  C_10
REMARK    6  A    between atoms: C_20  and  O_21
REMARK    7  A    between atoms: C_23  and  C_24
REMARK    8  A    between atoms: C_29  and  C_30
REMARK    9  A    between atoms: C_31  and  C_32
REMARK                            x       y       z     vdW  Elec       q    Type
REMARK                         _______ _______ _______ _____ _____    ______ ____
ROOT
ATOM      1  C   UNL     1      32.000  -7.840 -21.915  0.00  0.00    +0.176 C 
ENDROOT
BRANCH   1   3
ATOM      2  O   UNL     1      32.935  -5.315 -22.977  0.00  0.00    -0.275 OA
ATOM      3  N   UNL     1      33.170  -7.614 -22.732  0.00  0.00    -0.297 N 
ATOM      4  C   UNL     1      33.540  -6.360 -23.196  0.00  0.00    +0.223 C 
ATOM      5  H   UNL     1      33.733  -8.387 -22.968  0.00  0.00    +0.150 HD
BRANCH   4   6
ATOM      6  C   UNL     1      34.809  -6.434 -24.020  0.00  0.00    +0.087 C 
BRANCH   6  10
ATOM      7  N   UNL     1      33.675  -4.684 -27.203  0.00  0.00    -0.282 N 
ATOM      8  N   UNL     1      31.946  -3.420 -26.419  0.00  0.00    -0.331 N 
ATOM      9  N   UNL     1      32.353  -3.508 -28.730  0.00  0.00    -0.273 NA
ATOM     10  C   UNL     1      34.819  -5.418 -25.160  0.00  0.00    +0.029 C 
ATOM     11  C   UNL     1      36.128  -5.508 -25.958  0.00  0.00    +0.004 C 
ATOM     12  C   UNL     1      33.610  -5.622 -26.084  0.00  0.00    +0.094 C 
ATOM     13  C   UNL     1      36.113  -4.540 -27.141  0.00  0.00    +0.022 C 
ATOM     14  C   UNL     1      34.885  -4.757 -28.019  0.00  0.00    +0.093 C 
ATOM     15  C   UNL     1      32.649  -3.858 -27.511  0.00  0.00    +0.174 C 
ATOM     16  H   UNL     1      32.206  -3.712 -25.516  0.00  0.00    +0.145 HD
ATOM     17  H   UNL     1      31.179  -2.814 -26.539  0.00  0.00    +0.145 HD
ATOM     18  H   UNL     1      32.889  -3.850 -29.483  0.00  0.00    +0.189 HD
ENDBRANCH   6  10
ENDBRANCH   4   6
ENDBRANCH   1   3
BRANCH   1  20
ATOM     19  O   UNL     1      33.459  -7.829 -19.990  0.00  0.00    -0.248 OA
ATOM     20  C   UNL     1      32.349  -8.073 -20.452  0.00  0.00    +0.335 C 
BRANCH  20  21
ATOM     21  O   UNL     1      31.302  -8.589 -19.749  0.00  0.00    -0.443 OA
ATOM     22  C   UNL     1      31.645  -9.522 -18.720  0.00  0.00    +0.256 C 
ENDBRANCH  20  21
ENDBRANCH   1  20
BRANCH   1  23
ATOM     23  C   UNL     1      31.130  -8.970 -22.486  0.00  0.00    +0.057 C 
BRANCH  23  24
ATOM     24  C   UNL     1      31.781 -10.335 -22.477  0.00  0.00    -0.020 C 
ATOM     25  C   UNL     1      31.238 -11.362 -21.707  0.00  0.00    -0.004 C 
ATOM     26  C   UNL     1      32.926 -10.566 -23.241  0.00  0.00    -0.004 C 
ATOM     27  C   UNL     1      31.839 -12.621 -21.699  0.00  0.00    +0.008 C 
ATOM     28  C   UNL     1      33.527 -11.824 -23.234  0.00  0.00    +0.008 C 
ATOM     29  C   UNL     1      32.983 -12.852 -22.462  0.00  0.00    +0.042 C 
BRANCH  29  30
ATOM     30  C   UNL     1      33.600 -14.141 -22.453  0.00  0.00    -0.060 C 
ATOM     31  C   UNL     1      34.117 -15.225 -22.444  0.00  0.00    -0.060 C 
BRANCH  31  32
ATOM     32  C   UNL     1      34.733 -16.517 -22.435  0.00  0.00    +0.042 C 
ATOM     33  C   UNL     1      34.699 -17.313 -23.578  0.00  0.00    +0.008 C 
ATOM     34  C   UNL     1      35.365 -16.979 -21.280  0.00  0.00    +0.008 C 
ATOM     35  C   UNL     1      35.300 -18.572 -23.570  0.00  0.00    +0.001 C 
ATOM     36  C   UNL     1      35.965 -18.238 -21.272  0.00  0.00    +0.001 C 
ATOM     37  C   UNL     1      35.932 -19.035 -22.417  0.00  0.00    +0.000 C 
ENDBRANCH  31  32
ENDBRANCH  29  30
ENDBRANCH  23  24
ENDBRANCH   1  23
TORSDOF 9
ENDMDL
