MODEL 1
REMARK VINA RESULT:     -12.2      0.000      0.000
REMARK  Name = 448317
REMARK  6 active torsions:
REMARK  status: ('A' for Active; 'I' for Inactive)
REMARK    1  A    between atoms: C_1  and  C_18
REMARK    2  A    between atoms: C_4  and  N_24
REMARK    3  A    between atoms: C_5  and  S_25
REMARK    4  A    between atoms: S_25  and  C_26
REMARK    5  A    between atoms: C_27  and  O_32
REMARK    6  A    between atoms: O_32  and  C_33
REMARK                            x       y       z     vdW  Elec       q    Type
REMARK                         _______ _______ _______ _____ _____    ______ ____
ROOT
ATOM      1  C   UNL     1      34.251 -21.152 -19.462  0.00  0.00    +0.002 C 
ATOM      2  C   UNL     1      35.555 -20.668 -19.575  0.00  0.00    +0.025 C 
ATOM      3  C   UNL     1      33.288 -20.786 -20.403  0.00  0.00    +0.001 C 
ATOM      4  C   UNL     1      35.896 -19.819 -20.629  0.00  0.00    +0.149 C 
ATOM      5  C   UNL     1      34.933 -19.453 -21.569  0.00  0.00    +0.052 C 
ATOM      6  C   UNL     1      33.629 -19.937 -21.457  0.00  0.00    +0.008 C 
ENDROOT
BRANCH   1  18
ATOM      7  O   UNL     1      38.678 -24.192 -11.929  0.00  0.00    -0.275 OA
ATOM      8  N   UNL     1      35.532 -23.889 -15.635  0.00  0.00    -0.290 N 
ATOM      9  N   UNL     1      37.486 -24.812 -13.821  0.00  0.00    -0.276 N 
ATOM     10  N   UNL     1      33.212 -23.732 -16.260  0.00  0.00    -0.229 NA
ATOM     11  C   UNL     1      35.362 -25.204 -15.002  0.00  0.00    +0.114 C 
ATOM     12  C   UNL     1      36.347 -22.915 -14.892  0.00  0.00    +0.114 C 
ATOM     13  C   UNL     1      36.719 -25.784 -14.603  0.00  0.00    +0.115 C 
ATOM     14  C   UNL     1      37.686 -23.534 -14.498  0.00  0.00    +0.115 C 
ATOM     15  C   UNL     1      34.527 -23.391 -16.472  0.00  0.00    +0.132 C 
ATOM     16  C   UNL     1      38.021 -25.027 -12.554  0.00  0.00    +0.226 C 
ATOM     17  C   UNL     1      34.885 -22.536 -17.531  0.00  0.00    +0.034 C 
ATOM     18  C   UNL     1      33.898 -22.031 -18.371  0.00  0.00    +0.004 C 
ATOM     19  C   UNL     1      37.760 -26.376 -11.932  0.00  0.00    +0.095 C 
ATOM     20  C   UNL     1      32.568 -22.377 -18.156  0.00  0.00    +0.021 C 
ATOM     21  C   UNL     1      32.280 -23.224 -17.098  0.00  0.00    +0.100 C 
ENDBRANCH   1  18
BRANCH   4  24
ATOM     22  O   UNL     1      37.704 -19.027 -21.821  0.00  0.00    -0.126 OA
ATOM     23  O   UNL     1      37.910 -19.271 -19.648  0.00  0.00    -0.126 OA
ATOM     24  N   UNL     1      37.238 -19.349 -20.703  0.00  0.00    +0.058 N 
ENDBRANCH   4  24
BRANCH   5  25
ATOM     25  S   UNL     1      35.303 -18.368 -22.945  0.00  0.00    -0.082 S 
BRANCH  25  26
ATOM     26  C   UNL     1      34.922 -16.775 -22.234  0.00  0.00    +0.063 C 
ATOM     27  C   UNL     1      34.668 -15.662 -23.036  0.00  0.00    +0.144 C 
ATOM     28  C   UNL     1      34.883 -16.654 -20.843  0.00  0.00    +0.010 C 
ATOM     29  C   UNL     1      34.374 -14.431 -22.450  0.00  0.00    +0.037 C 
ATOM     30  C   UNL     1      34.589 -15.422 -20.257  0.00  0.00    +0.001 C 
ATOM     31  C   UNL     1      34.335 -14.310 -21.061  0.00  0.00    +0.003 C 
BRANCH  27  32
ATOM     32  O   UNL     1      34.695 -15.743 -24.397  0.00  0.00    -0.475 OA
BRANCH  32  33
ATOM     33  C   UNL     1      33.457 -15.566 -25.081  0.00  0.00    +0.206 C 
ATOM     34  C   UNL     1      33.455 -14.211 -25.755  0.00  0.00    +0.051 C 
ENDBRANCH  32  33
ENDBRANCH  27  32
ENDBRANCH  25  26
ENDBRANCH   5  25
TORSDOF 6
ENDMDL
MODEL 2
REMARK VINA RESULT:      -9.7      6.661     12.780
REMARK  Name = 448317
REMARK  6 active torsions:
REMARK  status: ('A' for Active; 'I' for Inactive)
REMARK    1  A    between atoms: C_1  and  C_18
REMARK    2  A    between atoms: C_4  and  N_24
REMARK    3  A    between atoms: C_5  and  S_25
REMARK    4  A    between atoms: S_25  and  C_26
REMARK    5  A    between atoms: C_27  and  O_32
REMARK    6  A    between atoms: O_32  and  C_33
REMARK                            x       y       z     vdW  Elec       q    Type
REMARK                         _______ _______ _______ _____ _____    ______ ____
ROOT
ATOM      1  C   UNL     1      33.230 -13.398 -21.902  0.00  0.00    +0.002 C 
ATOM      2  C   UNL     1      33.021 -13.535 -23.274  0.00  0.00    +0.025 C 
ATOM      3  C   UNL     1      34.027 -14.319 -21.223  0.00  0.00    +0.001 C 
ATOM      4  C   UNL     1      33.611 -14.591 -23.968  0.00  0.00    +0.149 C 
ATOM      5  C   UNL     1      34.408 -15.513 -23.289  0.00  0.00    +0.052 C 
ATOM      6  C   UNL     1      34.617 -15.377 -21.916  0.00  0.00    +0.008 C 
ENDROOT
BRANCH   1  18
ATOM      7  O   UNL     1      30.784  -4.764 -24.152  0.00  0.00    -0.275 OA
ATOM      8  N   UNL     1      32.079  -8.672 -21.549  0.00  0.00    -0.290 N 
ATOM      9  N   UNL     1      31.978  -6.080 -22.659  0.00  0.00    -0.276 N 
ATOM     10  N   UNL     1      31.437 -10.186 -19.790  0.00  0.00    -0.229 NA
ATOM     11  C   UNL     1      32.099  -7.505 -20.656  0.00  0.00    +0.114 C 
ATOM     12  C   UNL     1      31.442  -8.470 -22.860  0.00  0.00    +0.114 C 
ATOM     13  C   UNL     1      32.666  -6.286 -21.383  0.00  0.00    +0.115 C 
ATOM     14  C   UNL     1      32.022  -7.237 -23.549  0.00  0.00    +0.115 C 
ATOM     15  C   UNL     1      32.046  -9.960 -21.002  0.00  0.00    +0.132 C 
ATOM     16  C   UNL     1      31.340  -4.909 -23.061  0.00  0.00    +0.226 C 
ATOM     17  C   UNL     1      32.644 -11.017 -21.713  0.00  0.00    +0.034 C 
ATOM     18  C   UNL     1      32.619 -12.303 -21.182  0.00  0.00    +0.004 C 
ATOM     19  C   UNL     1      31.343  -3.769 -22.075  0.00  0.00    +0.095 C 
ATOM     20  C   UNL     1      32.003 -12.530 -19.957  0.00  0.00    +0.021 C 
ATOM     21  C   UNL     1      31.433 -11.448 -19.306  0.00  0.00    +0.100 C 
ENDBRANCH   1  18
BRANCH   4  24
ATOM     22  O   UNL     1      33.316 -15.829 -25.892  0.00  0.00    -0.126 OA
ATOM     23  O   UNL     1      33.220 -13.639 -26.032  0.00  0.00    -0.126 OA
ATOM     24  N   UNL     1      33.370 -14.692 -25.368  0.00  0.00    +0.058 N 
ENDBRANCH   4  24
BRANCH   5  25
ATOM     25  S   UNL     1      35.194 -16.892 -24.119  0.00  0.00    -0.082 S 
BRANCH  25  26
ATOM     26  C   UNL     1      35.323 -18.066 -22.779  0.00  0.00    +0.063 C 
ATOM     27  C   UNL     1      34.329 -19.017 -22.547  0.00  0.00    +0.144 C 
ATOM     28  C   UNL     1      36.449 -18.019 -21.953  0.00  0.00    +0.010 C 
ATOM     29  C   UNL     1      34.459 -19.919 -21.492  0.00  0.00    +0.037 C 
ATOM     30  C   UNL     1      36.578 -18.922 -20.898  0.00  0.00    +0.001 C 
ATOM     31  C   UNL     1      35.583 -19.873 -20.666  0.00  0.00    +0.003 C 
BRANCH  27  32
ATOM     32  O   UNL     1      33.218 -19.094 -23.333  0.00  0.00    -0.475 OA
BRANCH  32  33
ATOM     33  C   UNL     1      33.410 -19.487 -24.690  0.00  0.00    +0.206 C 
ATOM     34  C   UNL     1      32.084 -19.416 -25.416  0.00  0.00    +0.051 C 
ENDBRANCH  32  33
ENDBRANCH  27  32
ENDBRANCH  25  26
ENDBRANCH   5  25
TORSDOF 6
ENDMDL
MODEL 3
REMARK VINA RESULT:      -9.5      2.727      3.879
REMARK  Name = 448317
REMARK  6 active torsions:
REMARK  status: ('A' for Active; 'I' for Inactive)
REMARK    1  A    between atoms: C_1  and  C_18
REMARK    2  A    between atoms: C_4  and  N_24
REMARK    3  A    between atoms: C_5  and  S_25
REMARK    4  A    between atoms: S_25  and  C_26
REMARK    5  A    between atoms: C_27  and  O_32
REMARK    6  A    between atoms: O_32  and  C_33
REMARK                            x       y       z     vdW  Elec       q    Type
REMARK                         _______ _______ _______ _____ _____    ______ ____
ROOT
ATOM      1  C   UNL     1      35.971 -20.945 -19.133  0.00  0.00    +0.002 C 
ATOM      2  C   UNL     1      34.814 -20.863 -19.907  0.00  0.00    +0.025 C 
ATOM      3  C   UNL     1      37.099 -20.205 -19.487  0.00  0.00    +0.001 C 
ATOM      4  C   UNL     1      34.783 -20.040 -21.033  0.00  0.00    +0.149 C 
ATOM      5  C   UNL     1      35.911 -19.300 -21.386  0.00  0.00    +0.052 C 
ATOM      6  C   UNL     1      37.070 -19.381 -20.613  0.00  0.00    +0.008 C 
ENDROOT
BRANCH   1  18
ATOM      7  O   UNL     1      29.634 -25.959 -14.629  0.00  0.00    -0.275 OA
ATOM      8  N   UNL     1      33.661 -23.400 -15.610  0.00  0.00    -0.290 N 
ATOM      9  N   UNL     1      31.276 -24.332 -14.424  0.00  0.00    -0.276 N 
ATOM     10  N   UNL     1      36.066 -23.447 -15.710  0.00  0.00    -0.229 NA
ATOM     11  C   UNL     1      33.630 -23.660 -14.164  0.00  0.00    +0.114 C 
ATOM     12  C   UNL     1      32.697 -24.158 -16.423  0.00  0.00    +0.114 C 
ATOM     13  C   UNL     1      32.204 -23.526 -13.628  0.00  0.00    +0.115 C 
ATOM     14  C   UNL     1      31.289 -24.013 -15.850  0.00  0.00    +0.115 C 
ATOM     15  C   UNL     1      34.863 -23.017 -16.216  0.00  0.00    +0.132 C 
ATOM     16  C   UNL     1      30.417 -25.311 -13.931  0.00  0.00    +0.226 C 
ATOM     17  C   UNL     1      34.818 -22.186 -17.352  0.00  0.00    +0.034 C 
ATOM     18  C   UNL     1      36.003 -21.798 -17.966  0.00  0.00    +0.004 C 
ATOM     19  C   UNL     1      30.476 -25.573 -12.447  0.00  0.00    +0.095 C 
ATOM     20  C   UNL     1      37.220 -22.233 -17.453  0.00  0.00    +0.021 C 
ATOM     21  C   UNL     1      37.198 -23.048 -16.333  0.00  0.00    +0.100 C 
ENDBRANCH   1  18
BRANCH   4  24
ATOM     22  O   UNL     1      32.488 -20.176 -21.210  0.00  0.00    -0.126 OA
ATOM     23  O   UNL     1      33.653 -19.754 -23.022  0.00  0.00    -0.126 OA
ATOM     24  N   UNL     1      33.580 -19.988 -21.794  0.00  0.00    +0.058 N 
ENDBRANCH   4  24
BRANCH   5  25
ATOM     25  S   UNL     1      35.940 -18.225 -22.819  0.00  0.00    -0.082 S 
BRANCH  25  26
ATOM     26  C   UNL     1      35.203 -16.744 -22.147  0.00  0.00    +0.063 C 
ATOM     27  C   UNL     1      34.746 -15.718 -22.975  0.00  0.00    +0.144 C 
ATOM     28  C   UNL     1      35.089 -16.621 -20.760  0.00  0.00    +0.010 C 
ATOM     29  C   UNL     1      34.176 -14.573 -22.420  0.00  0.00    +0.037 C 
ATOM     30  C   UNL     1      34.519 -15.475 -20.205  0.00  0.00    +0.001 C 
ATOM     31  C   UNL     1      34.062 -14.451 -21.034  0.00  0.00    +0.003 C 
BRANCH  27  32
ATOM     32  O   UNL     1      34.839 -15.803 -24.333  0.00  0.00    -0.475 OA
BRANCH  32  33
ATOM     33  C   UNL     1      33.617 -15.790 -25.068  0.00  0.00    +0.206 C 
ATOM     34  C   UNL     1      33.402 -14.406 -25.641  0.00  0.00    +0.051 C 
ENDBRANCH  32  33
ENDBRANCH  27  32
ENDBRANCH  25  26
ENDBRANCH   5  25
TORSDOF 6
ENDMDL
