MODEL 1
REMARK VINA RESULT:     -12.1      0.000      0.000
REMARK  Name = 154000
REMARK  7 active torsions:
REMARK  status: ('A' for Active; 'I' for Inactive)
REMARK    1  A    between atoms: O_1  and  C_5
REMARK    2  A    between atoms: O_1  and  C_17
REMARK    3  A    between atoms: C_2  and  C_8
REMARK    4  A    between atoms: C_8  and  C_13
REMARK    5  A    between atoms: C_17  and  C_18
REMARK    6  A    between atoms: C_18  and  C_21
REMARK    7  A    between atoms: C_23  and  C_25
REMARK                            x       y       z     vdW  Elec       q    Type
REMARK                         _______ _______ _______ _____ _____    ______ ____
ROOT
ATOM      1  O   UNL     1      36.017 -23.122 -16.988  0.00  0.00    -0.475 OA
ENDROOT
BRANCH   1   5
ATOM      2  C   UNL     1      34.568 -20.807 -20.090  0.00  0.00    -0.021 C 
ATOM      3  C   UNL     1      35.930 -20.816 -19.826  0.00  0.00    -0.001 C 
ATOM      4  C   UNL     1      33.684 -21.560 -19.332  0.00  0.00    -0.001 C 
ATOM      5  C   UNL     1      35.541 -22.360 -18.009  0.00  0.00    +0.139 C 
ATOM      6  C   UNL     1      36.419 -21.597 -18.779  0.00  0.00    +0.037 C 
ATOM      7  C   UNL     1      34.174 -22.341 -18.285  0.00  0.00    +0.037 C 
BRANCH   2   8
ATOM      8  C   UNL     1      34.039 -19.961 -21.221  0.00  0.00    +0.047 C 
BRANCH   8  13
ATOM      9  O   UNL     1      34.885 -17.991 -23.913  0.00  0.00    -0.346 OA
ATOM     10  O   UNL     1      35.440 -17.371 -20.520  0.00  0.00    -0.272 OA
ATOM     11  O   UNL     1      34.698 -20.265 -24.176  0.00  0.00    -0.247 OA
ATOM     12  N   UNL     1      35.106 -17.134 -22.814  0.00  0.00    -0.144 N 
ATOM     13  C   UNL     1      35.155 -19.282 -21.991  0.00  0.00    +0.184 C 
ATOM     14  C   UNL     1      35.257 -17.829 -21.637  0.00  0.00    +0.264 C 
ATOM     15  C   UNL     1      34.884 -19.286 -23.473  0.00  0.00    +0.348 C 
ATOM     16  H   UNL     1      35.146 -16.153 -22.882  0.00  0.00    +0.196 HD
ENDBRANCH   8  13
ENDBRANCH   2   8
ENDBRANCH   1   5
BRANCH   1  17
ATOM     17  C   UNL     1      36.202 -22.478 -15.727  0.00  0.00    +0.213 C 
BRANCH  17  18
ATOM     18  C   UNL     1      36.239 -23.522 -14.615  0.00  0.00    +0.105 C 
BRANCH  18  21
ATOM     19  O   UNL     1      33.176 -24.601 -12.949  0.00  0.00    -0.449 OA
ATOM     20  N   UNL     1      33.805 -23.787 -14.963  0.00  0.00    -0.373 NA
ATOM     21  C   UNL     1      34.870 -23.911 -14.135  0.00  0.00    +0.134 C 
ATOM     22  C   UNL     1      34.523 -24.396 -12.921  0.00  0.00    +0.216 C 
ATOM     23  C   UNL     1      32.821 -24.214 -14.204  0.00  0.00    +0.277 C 
ATOM     24  C   UNL     1      35.223 -24.726 -11.675  0.00  0.00    +0.055 C 
BRANCH  23  25
ATOM     25  C   UNL     1      31.421 -24.329 -14.507  0.00  0.00    +0.066 C 
ATOM     26  C   UNL     1      30.782 -23.348 -15.271  0.00  0.00    +0.006 C 
ATOM     27  C   UNL     1      30.689 -25.423 -14.036  0.00  0.00    +0.006 C 
ATOM     28  C   UNL     1      29.423 -23.461 -15.562  0.00  0.00    +0.000 C 
ATOM     29  C   UNL     1      29.329 -25.535 -14.327  0.00  0.00    +0.000 C 
ATOM     30  C   UNL     1      28.696 -24.554 -15.090  0.00  0.00    +0.000 C 
ENDBRANCH  23  25
ENDBRANCH  18  21
ENDBRANCH  17  18
ENDBRANCH   1  17
TORSDOF 7
ENDMDL
MODEL 2
REMARK VINA RESULT:     -12.0      5.998      9.857
REMARK  Name = 154000
REMARK  7 active torsions:
REMARK  status: ('A' for Active; 'I' for Inactive)
REMARK    1  A    between atoms: O_1  and  C_5
REMARK    2  A    between atoms: O_1  and  C_17
REMARK    3  A    between atoms: C_2  and  C_8
REMARK    4  A    between atoms: C_8  and  C_13
REMARK    5  A    between atoms: C_17  and  C_18
REMARK    6  A    between atoms: C_18  and  C_21
REMARK    7  A    between atoms: C_23  and  C_25
REMARK                            x       y       z     vdW  Elec       q    Type
REMARK                         _______ _______ _______ _____ _____    ______ ____
ROOT
ATOM      1  O   UNL     1      34.003 -15.171 -21.696  0.00  0.00    -0.475 OA
ENDROOT
BRANCH   1   5
ATOM      2  C   UNL     1      31.876 -11.634 -21.469  0.00  0.00    -0.021 C 
ATOM      3  C   UNL     1      32.604 -11.919 -22.615  0.00  0.00    -0.001 C 
ATOM      4  C   UNL     1      31.849 -12.515 -20.398  0.00  0.00    -0.001 C 
ATOM      5  C   UNL     1      33.303 -14.006 -21.622  0.00  0.00    +0.139 C 
ATOM      6  C   UNL     1      33.322 -13.112 -22.692  0.00  0.00    +0.037 C 
ATOM      7  C   UNL     1      32.567 -13.708 -20.475  0.00  0.00    +0.037 C 
BRANCH   2   8
ATOM      8  C   UNL     1      31.101 -10.343 -21.386  0.00  0.00    +0.047 C 
BRANCH   8  13
ATOM      9  O   UNL     1      31.284  -6.918 -21.665  0.00  0.00    -0.346 OA
ATOM     10  O   UNL     1      32.678  -8.965 -19.201  0.00  0.00    -0.272 OA
ATOM     11  O   UNL     1      30.997  -8.204 -23.547  0.00  0.00    -0.247 OA
ATOM     12  N   UNL     1      31.786  -7.156 -20.368  0.00  0.00    -0.144 N 
ATOM     13  C   UNL     1      32.001  -9.131 -21.527  0.00  0.00    +0.184 C 
ATOM     14  C   UNL     1      32.214  -8.452 -20.208  0.00  0.00    +0.264 C 
ATOM     15  C   UNL     1      31.370  -8.072 -22.392  0.00  0.00    +0.348 C 
ATOM     16  H   UNL     1      31.826  -6.472 -19.661  0.00  0.00    +0.196 HD
ENDBRANCH   8  13
ENDBRANCH   2   8
ENDBRANCH   1   5
BRANCH   1  17
ATOM     17  C   UNL     1      34.470 -15.568 -22.985  0.00  0.00    +0.213 C 
BRANCH  17  18
ATOM     18  C   UNL     1      35.597 -16.585 -22.835  0.00  0.00    +0.105 C 
BRANCH  18  21
ATOM     19  O   UNL     1      34.187 -19.927 -22.428  0.00  0.00    -0.449 OA
ATOM     20  N   UNL     1      35.342 -18.420 -21.198  0.00  0.00    -0.373 NA
ATOM     21  C   UNL     1      35.103 -17.949 -22.446  0.00  0.00    +0.134 C 
ATOM     22  C   UNL     1      34.414 -18.831 -23.205  0.00  0.00    +0.216 C 
ATOM     23  C   UNL     1      34.773 -19.604 -21.242  0.00  0.00    +0.277 C 
ATOM     24  C   UNL     1      33.893 -18.865 -24.576  0.00  0.00    +0.055 C 
BRANCH  23  25
ATOM     25  C   UNL     1      34.680 -20.610 -20.220  0.00  0.00    +0.066 C 
ATOM     26  C   UNL     1      33.430 -21.083 -19.810  0.00  0.00    +0.006 C 
ATOM     27  C   UNL     1      35.839 -21.119 -19.629  0.00  0.00    +0.006 C 
ATOM     28  C   UNL     1      33.341 -22.057 -18.816  0.00  0.00    +0.000 C 
ATOM     29  C   UNL     1      35.750 -22.094 -18.636  0.00  0.00    +0.000 C 
ATOM     30  C   UNL     1      34.501 -22.564 -18.229  0.00  0.00    +0.000 C 
ENDBRANCH  23  25
ENDBRANCH  18  21
ENDBRANCH  17  18
ENDBRANCH   1  17
TORSDOF 7
ENDMDL
MODEL 3
REMARK VINA RESULT:     -11.9      1.651      4.404
REMARK  Name = 154000
REMARK  7 active torsions:
REMARK  status: ('A' for Active; 'I' for Inactive)
REMARK    1  A    between atoms: O_1  and  C_5
REMARK    2  A    between atoms: O_1  and  C_17
REMARK    3  A    between atoms: C_2  and  C_8
REMARK    4  A    between atoms: C_8  and  C_13
REMARK    5  A    between atoms: C_17  and  C_18
REMARK    6  A    between atoms: C_18  and  C_21
REMARK    7  A    between atoms: C_23  and  C_25
REMARK                            x       y       z     vdW  Elec       q    Type
REMARK                         _______ _______ _______ _____ _____    ______ ____
ROOT
ATOM      1  O   UNL     1      32.642 -22.842 -18.379  0.00  0.00    -0.475 OA
ENDROOT
BRANCH   1   5
ATOM      2  C   UNL     1      34.787 -20.153 -20.672  0.00  0.00    -0.021 C 
ATOM      3  C   UNL     1      33.401 -20.085 -20.661  0.00  0.00    -0.001 C 
ATOM      4  C   UNL     1      35.465 -21.107 -19.928  0.00  0.00    -0.001 C 
ATOM      5  C   UNL     1      33.348 -21.956 -19.135  0.00  0.00    +0.139 C 
ATOM      6  C   UNL     1      32.677 -20.992 -19.888  0.00  0.00    +0.037 C 
ATOM      7  C   UNL     1      34.741 -22.014 -19.155  0.00  0.00    +0.037 C 
BRANCH   2   8
ATOM      8  C   UNL     1      35.569 -19.173 -21.510  0.00  0.00    +0.047 C 
BRANCH   8  13
ATOM      9  O   UNL     1      35.369 -15.909 -22.581  0.00  0.00    -0.346 OA
ATOM     10  O   UNL     1      34.695 -18.822 -24.386  0.00  0.00    -0.272 OA
ATOM     11  O   UNL     1      35.092 -16.399 -20.354  0.00  0.00    -0.247 OA
ATOM     12  N   UNL     1      35.250 -16.641 -23.780  0.00  0.00    -0.144 N 
ATOM     13  C   UNL     1      34.685 -18.078 -22.075  0.00  0.00    +0.184 C 
ATOM     14  C   UNL     1      34.865 -17.942 -23.557  0.00  0.00    +0.264 C 
ATOM     15  C   UNL     1      35.063 -16.726 -21.529  0.00  0.00    +0.348 C 
ATOM     16  H   UNL     1      35.423 -16.265 -24.673  0.00  0.00    +0.196 HD
ENDBRANCH   8  13
ENDBRANCH   2   8
ENDBRANCH   1   5
BRANCH   1  17
ATOM     17  C   UNL     1      33.316 -23.427 -17.265  0.00  0.00    +0.213 C 
BRANCH  17  18
ATOM     18  C   UNL     1      32.362 -23.524 -16.079  0.00  0.00    +0.105 C 
BRANCH  18  21
ATOM     19  O   UNL     1      33.509 -24.577 -12.777  0.00  0.00    -0.449 OA
ATOM     20  N   UNL     1      34.406 -23.882 -14.734  0.00  0.00    -0.373 NA
ATOM     21  C   UNL     1      33.054 -23.919 -14.805  0.00  0.00    +0.134 C 
ATOM     22  C   UNL     1      32.490 -24.332 -13.647  0.00  0.00    +0.216 C 
ATOM     23  C   UNL     1      34.623 -24.284 -13.501  0.00  0.00    +0.277 C 
ATOM     24  C   UNL     1      31.125 -24.557 -13.158  0.00  0.00    +0.055 C 
BRANCH  23  25
ATOM     25  C   UNL     1      35.869 -24.461 -12.807  0.00  0.00    +0.066 C 
ATOM     26  C   UNL     1      36.627 -25.619 -13.004  0.00  0.00    +0.006 C 
ATOM     27  C   UNL     1      36.328 -23.478 -11.926  0.00  0.00    +0.006 C 
ATOM     28  C   UNL     1      37.834 -25.791 -12.327  0.00  0.00    +0.000 C 
ATOM     29  C   UNL     1      37.535 -23.649 -11.250  0.00  0.00    +0.000 C 
ATOM     30  C   UNL     1      38.289 -24.806 -11.450  0.00  0.00    +0.000 C 
ENDBRANCH  23  25
ENDBRANCH  18  21
ENDBRANCH  17  18
ENDBRANCH   1  17
TORSDOF 7
ENDMDL
MODEL 4
REMARK VINA RESULT:     -11.7      5.984     11.775
REMARK  Name = 154000
REMARK  7 active torsions:
REMARK  status: ('A' for Active; 'I' for Inactive)
REMARK    1  A    between atoms: O_1  and  C_5
REMARK    2  A    between atoms: O_1  and  C_17
REMARK    3  A    between atoms: C_2  and  C_8
REMARK    4  A    between atoms: C_8  and  C_13
REMARK    5  A    between atoms: C_17  and  C_18
REMARK    6  A    between atoms: C_18  and  C_21
REMARK    7  A    between atoms: C_23  and  C_25
REMARK                            x       y       z     vdW  Elec       q    Type
REMARK                         _______ _______ _______ _____ _____    ______ ____
ROOT
ATOM      1  O   UNL     1      34.860 -15.378 -23.775  0.00  0.00    -0.475 OA
ENDROOT
BRANCH   1   5
ATOM      2  C   UNL     1      34.891 -19.193 -22.183  0.00  0.00    -0.021 C 
ATOM      3  C   UNL     1      35.265 -18.120 -21.388  0.00  0.00    -0.001 C 
ATOM      4  C   UNL     1      34.508 -19.009 -23.503  0.00  0.00    -0.001 C 
ATOM      5  C   UNL     1      34.871 -16.634 -23.250  0.00  0.00    +0.139 C 
ATOM      6  C   UNL     1      35.255 -16.832 -21.924  0.00  0.00    +0.037 C 
ATOM      7  C   UNL     1      34.497 -17.721 -24.039  0.00  0.00    +0.037 C 
BRANCH   2   8
ATOM      8  C   UNL     1      34.904 -20.584 -21.603  0.00  0.00    +0.047 C 
BRANCH   8  13
ATOM      9  O   UNL     1      33.219 -22.160 -19.050  0.00  0.00    -0.346 OA
ATOM     10  O   UNL     1      36.644 -21.527 -19.313  0.00  0.00    -0.272 OA
ATOM     11  O   UNL     1      32.131 -20.612 -20.352  0.00  0.00    -0.247 OA
ATOM     12  N   UNL     1      34.570 -22.427 -18.746  0.00  0.00    -0.144 N 
ATOM     13  C   UNL     1      34.559 -20.586 -20.126  0.00  0.00    +0.184 C 
ATOM     14  C   UNL     1      35.424 -21.545 -19.364  0.00  0.00    +0.264 C 
ATOM     15  C   UNL     1      33.157 -21.082 -19.888  0.00  0.00    +0.348 C 
ATOM     16  H   UNL     1      34.867 -23.160 -18.160  0.00  0.00    +0.196 HD
ENDBRANCH   8  13
ENDBRANCH   2   8
ENDBRANCH   1   5
BRANCH   1  17
ATOM     17  C   UNL     1      34.484 -14.312 -22.902  0.00  0.00    +0.213 C 
BRANCH  17  18
ATOM     18  C   UNL     1      33.124 -13.760 -23.319  0.00  0.00    +0.105 C 
BRANCH  18  21
ATOM     19  O   UNL     1      31.893 -11.473 -20.754  0.00  0.00    -0.449 OA
ATOM     20  N   UNL     1      32.615 -11.378 -22.896  0.00  0.00    -0.373 NA
ATOM     21  C   UNL     1      32.648 -12.649 -22.428  0.00  0.00    +0.134 C 
ATOM     22  C   UNL     1      32.221 -12.736 -21.147  0.00  0.00    +0.216 C 
ATOM     23  C   UNL     1      32.156 -10.718 -21.856  0.00  0.00    +0.277 C 
ATOM     24  C   UNL     1      32.045 -13.809 -20.162  0.00  0.00    +0.055 C 
BRANCH  23  25
ATOM     25  C   UNL     1      31.893  -9.313 -21.711  0.00  0.00    +0.066 C 
ATOM     26  C   UNL     1      31.290  -8.599 -22.751  0.00  0.00    +0.006 C 
ATOM     27  C   UNL     1      32.241  -8.652 -20.530  0.00  0.00    +0.006 C 
ATOM     28  C   UNL     1      31.037  -7.235 -22.610  0.00  0.00    +0.000 C 
ATOM     29  C   UNL     1      31.987  -7.287 -20.389  0.00  0.00    +0.000 C 
ATOM     30  C   UNL     1      31.385  -6.578 -21.429  0.00  0.00    +0.000 C 
ENDBRANCH  23  25
ENDBRANCH  18  21
ENDBRANCH  17  18
ENDBRANCH   1  17
TORSDOF 7
ENDMDL
MODEL 5
REMARK VINA RESULT:     -11.7      3.784     10.414
REMARK  Name = 154000
REMARK  7 active torsions:
REMARK  status: ('A' for Active; 'I' for Inactive)
REMARK    1  A    between atoms: O_1  and  C_5
REMARK    2  A    between atoms: O_1  and  C_17
REMARK    3  A    between atoms: C_2  and  C_8
REMARK    4  A    between atoms: C_8  and  C_13
REMARK    5  A    between atoms: C_17  and  C_18
REMARK    6  A    between atoms: C_18  and  C_21
REMARK    7  A    between atoms: C_23  and  C_25
REMARK                            x       y       z     vdW  Elec       q    Type
REMARK                         _______ _______ _______ _____ _____    ______ ____
ROOT
ATOM      1  O   UNL     1      35.698 -19.070 -21.360  0.00  0.00    -0.475 OA
ENDROOT
BRANCH   1   5
ATOM      2  C   UNL     1      34.135 -22.151 -19.091  0.00  0.00    -0.021 C 
ATOM      3  C   UNL     1      33.274 -21.289 -19.753  0.00  0.00    -0.001 C 
ATOM      4  C   UNL     1      35.510 -21.998 -19.176  0.00  0.00    -0.001 C 
ATOM      5  C   UNL     1      35.182 -20.084 -20.613  0.00  0.00    +0.139 C 
ATOM      6  C   UNL     1      33.800 -20.249 -20.519  0.00  0.00    +0.037 C 
ATOM      7  C   UNL     1      36.037 -20.959 -19.942  0.00  0.00    +0.037 C 
BRANCH   2   8
ATOM      8  C   UNL     1      33.564 -23.274 -18.262  0.00  0.00    +0.047 C 
BRANCH   8  13
ATOM      9  O   UNL     1      32.162 -24.058 -15.219  0.00  0.00    -0.346 OA
ATOM     10  O   UNL     1      35.540 -23.637 -15.999  0.00  0.00    -0.272 OA
ATOM     11  O   UNL     1      30.945 -22.874 -16.766  0.00  0.00    -0.247 OA
ATOM     12  N   UNL     1      33.537 -24.282 -14.999  0.00  0.00    -0.144 N 
ATOM     13  C   UNL     1      33.384 -22.873 -16.810  0.00  0.00    +0.184 C 
ATOM     14  C   UNL     1      34.322 -23.625 -15.916  0.00  0.00    +0.264 C 
ATOM     15  C   UNL     1      32.013 -23.239 -16.303  0.00  0.00    +0.348 C 
ATOM     16  H   UNL     1      33.893 -24.843 -14.272  0.00  0.00    +0.196 HD
ENDBRANCH   8  13
ENDBRANCH   2   8
ENDBRANCH   1   5
BRANCH   1  17
ATOM     17  C   UNL     1      35.109 -17.780 -21.198  0.00  0.00    +0.213 C 
BRANCH  17  18
ATOM     18  C   UNL     1      35.543 -16.868 -22.342  0.00  0.00    +0.105 C 
BRANCH  18  21
ATOM     19  O   UNL     1      33.157 -14.354 -23.487  0.00  0.00    -0.449 OA
ATOM     20  N   UNL     1      34.277 -14.881 -21.593  0.00  0.00    -0.373 NA
ATOM     21  C   UNL     1      34.576 -15.746 -22.592  0.00  0.00    +0.134 C 
ATOM     22  C   UNL     1      33.920 -15.455 -23.738  0.00  0.00    +0.216 C 
ATOM     23  C   UNL     1      33.426 -14.071 -22.184  0.00  0.00    +0.277 C 
ATOM     24  C   UNL     1      33.854 -16.020 -25.091  0.00  0.00    +0.055 C 
BRANCH  23  25
ATOM     25  C   UNL     1      32.735 -12.928 -21.651  0.00  0.00    +0.066 C 
ATOM     26  C   UNL     1      32.387 -11.864 -22.488  0.00  0.00    +0.006 C 
ATOM     27  C   UNL     1      32.411 -12.874 -20.293  0.00  0.00    +0.006 C 
ATOM     28  C   UNL     1      31.719 -10.755 -21.969  0.00  0.00    +0.000 C 
ATOM     29  C   UNL     1      31.742 -11.766 -19.775  0.00  0.00    +0.000 C 
ATOM     30  C   UNL     1      31.396 -10.705 -20.613  0.00  0.00    +0.000 C 
ENDBRANCH  23  25
ENDBRANCH  18  21
ENDBRANCH  17  18
ENDBRANCH   1  17
TORSDOF 7
ENDMDL
MODEL 6
REMARK VINA RESULT:     -11.7      2.990     10.530
REMARK  Name = 154000
REMARK  7 active torsions:
REMARK  status: ('A' for Active; 'I' for Inactive)
REMARK    1  A    between atoms: O_1  and  C_5
REMARK    2  A    between atoms: O_1  and  C_17
REMARK    3  A    between atoms: C_2  and  C_8
REMARK    4  A    between atoms: C_8  and  C_13
REMARK    5  A    between atoms: C_17  and  C_18
REMARK    6  A    between atoms: C_18  and  C_21
REMARK    7  A    between atoms: C_23  and  C_25
REMARK                            x       y       z     vdW  Elec       q    Type
REMARK                         _______ _______ _______ _____ _____    ______ ____
ROOT
ATOM      1  O   UNL     1      35.653 -21.562 -20.045  0.00  0.00    -0.475 OA
ENDROOT
BRANCH   1   5
ATOM      2  C   UNL     1      35.520 -22.962 -16.158  0.00  0.00    -0.021 C 
ATOM      3  C   UNL     1      34.414 -23.125 -16.978  0.00  0.00    -0.001 C 
ATOM      4  C   UNL     1      36.670 -22.338 -16.618  0.00  0.00    -0.001 C 
ATOM      5  C   UNL     1      35.608 -22.023 -18.765  0.00  0.00    +0.139 C 
ATOM      6  C   UNL     1      34.458 -22.652 -18.290  0.00  0.00    +0.037 C 
ATOM      7  C   UNL     1      36.714 -21.866 -17.929  0.00  0.00    +0.037 C 
BRANCH   2   8
ATOM      8  C   UNL     1      35.471 -23.472 -14.739  0.00  0.00    +0.047 C 
BRANCH   8  13
ATOM      9  O   UNL     1      37.086 -25.348 -12.349  0.00  0.00    -0.346 OA
ATOM     10  O   UNL     1      35.716 -26.420 -15.378  0.00  0.00    -0.272 OA
ATOM     11  O   UNL     1      37.568 -23.113 -12.564  0.00  0.00    -0.247 OA
ATOM     12  N   UNL     1      36.530 -26.329 -13.197  0.00  0.00    -0.144 N 
ATOM     13  C   UNL     1      36.638 -24.387 -14.425  0.00  0.00    +0.184 C 
ATOM     14  C   UNL     1      36.222 -25.827 -14.439  0.00  0.00    +0.264 C 
ATOM     15  C   UNL     1      37.154 -24.163 -13.027  0.00  0.00    +0.348 C 
ATOM     16  H   UNL     1      36.379 -27.265 -12.929  0.00  0.00    +0.196 HD
ENDBRANCH   8  13
ENDBRANCH   2   8
ENDBRANCH   1   5
BRANCH   1  17
ATOM     17  C   UNL     1      35.040 -20.298 -20.301  0.00  0.00    +0.213 C 
BRANCH  17  18
ATOM     18  C   UNL     1      36.042 -19.367 -20.978  0.00  0.00    +0.105 C 
BRANCH  18  21
ATOM     19  O   UNL     1      34.478 -17.817 -23.888  0.00  0.00    -0.449 OA
ATOM     20  N   UNL     1      35.287 -17.189 -21.871  0.00  0.00    -0.373 NA
ATOM     21  C   UNL     1      35.420 -18.525 -22.054  0.00  0.00    +0.134 C 
ATOM     22  C   UNL     1      34.943 -18.929 -23.254  0.00  0.00    +0.216 C 
ATOM     23  C   UNL     1      34.719 -16.817 -22.997  0.00  0.00    +0.277 C 
ATOM     24  C   UNL     1      34.826 -20.204 -23.970  0.00  0.00    +0.055 C 
BRANCH  23  25
ATOM     25  C   UNL     1      34.314 -15.506 -23.424  0.00  0.00    +0.066 C 
ATOM     26  C   UNL     1      34.496 -14.404 -22.583  0.00  0.00    +0.006 C 
ATOM     27  C   UNL     1      33.734 -15.325 -24.683  0.00  0.00    +0.006 C 
ATOM     28  C   UNL     1      34.100 -13.133 -22.998  0.00  0.00    +0.000 C 
ATOM     29  C   UNL     1      33.340 -14.054 -25.098  0.00  0.00    +0.000 C 
ATOM     30  C   UNL     1      33.522 -12.957 -24.255  0.00  0.00    +0.000 C 
ENDBRANCH  23  25
ENDBRANCH  18  21
ENDBRANCH  17  18
ENDBRANCH   1  17
TORSDOF 7
ENDMDL
MODEL 7
REMARK VINA RESULT:     -11.6      1.776      4.332
REMARK  Name = 154000
REMARK  7 active torsions:
REMARK  status: ('A' for Active; 'I' for Inactive)
REMARK    1  A    between atoms: O_1  and  C_5
REMARK    2  A    between atoms: O_1  and  C_17
REMARK    3  A    between atoms: C_2  and  C_8
REMARK    4  A    between atoms: C_8  and  C_13
REMARK    5  A    between atoms: C_17  and  C_18
REMARK    6  A    between atoms: C_18  and  C_21
REMARK    7  A    between atoms: C_23  and  C_25
REMARK                            x       y       z     vdW  Elec       q    Type
REMARK                         _______ _______ _______ _____ _____    ______ ____
ROOT
ATOM      1  O   UNL     1      35.017 -22.252 -18.505  0.00  0.00    -0.475 OA
ENDROOT
BRANCH   1   5
ATOM      2  C   UNL     1      35.699 -19.379 -21.398  0.00  0.00    -0.021 C 
ATOM      3  C   UNL     1      34.415 -19.874 -21.219  0.00  0.00    -0.001 C 
ATOM      4  C   UNL     1      36.757 -19.831 -20.625  0.00  0.00    -0.001 C 
ATOM      5  C   UNL     1      35.240 -21.306 -19.458  0.00  0.00    +0.139 C 
ATOM      6  C   UNL     1      34.184 -20.843 -20.243  0.00  0.00    +0.037 C 
ATOM      7  C   UNL     1      36.526 -20.801 -19.649  0.00  0.00    +0.037 C 
BRANCH   2   8
ATOM      8  C   UNL     1      35.948 -18.333 -22.455  0.00  0.00    +0.047 C 
BRANCH   8  13
ATOM      9  O   UNL     1      34.910 -15.059 -22.239  0.00  0.00    -0.346 OA
ATOM     10  O   UNL     1      34.763 -17.196 -24.998  0.00  0.00    -0.272 OA
ATOM     11  O   UNL     1      34.953 -16.370 -20.353  0.00  0.00    -0.247 OA
ATOM     12  N   UNL     1      34.855 -15.316 -23.625  0.00  0.00    -0.144 N 
ATOM     13  C   UNL     1      34.789 -17.362 -22.576  0.00  0.00    +0.184 C 
ATOM     14  C   UNL     1      34.800 -16.661 -23.901  0.00  0.00    +0.264 C 
ATOM     15  C   UNL     1      34.895 -16.249 -21.566  0.00  0.00    +0.348 C 
ATOM     16  H   UNL     1      34.856 -14.612 -24.314  0.00  0.00    +0.196 HD
ENDBRANCH   8  13
ENDBRANCH   2   8
ENDBRANCH   1   5
BRANCH   1  17
ATOM     17  C   UNL     1      33.911 -23.131 -18.710  0.00  0.00    +0.213 C 
BRANCH  17  18
ATOM     18  C   UNL     1      32.890 -22.945 -17.592  0.00  0.00    +0.105 C 
BRANCH  18  21
ATOM     19  O   UNL     1      33.495 -24.153 -14.201  0.00  0.00    -0.449 OA
ATOM     20  N   UNL     1      34.573 -24.089 -16.189  0.00  0.00    -0.373 NA
ATOM     21  C   UNL     1      33.350 -23.513 -16.280  0.00  0.00    +0.134 C 
ATOM     22  C   UNL     1      32.682 -23.538 -15.105  0.00  0.00    +0.216 C 
ATOM     23  C   UNL     1      34.608 -24.452 -14.926  0.00  0.00    +0.277 C 
ATOM     24  C   UNL     1      31.373 -23.081 -14.623  0.00  0.00    +0.055 C 
BRANCH  23  25
ATOM     25  C   UNL     1      35.650 -25.123 -14.198  0.00  0.00    +0.066 C 
ATOM     26  C   UNL     1      36.093 -24.614 -12.974  0.00  0.00    +0.006 C 
ATOM     27  C   UNL     1      36.228 -26.286 -14.712  0.00  0.00    +0.006 C 
ATOM     28  C   UNL     1      37.106 -25.264 -12.270  0.00  0.00    +0.000 C 
ATOM     29  C   UNL     1      37.241 -26.937 -14.007  0.00  0.00    +0.000 C 
ATOM     30  C   UNL     1      37.680 -26.426 -12.786  0.00  0.00    +0.000 C 
ENDBRANCH  23  25
ENDBRANCH  18  21
ENDBRANCH  17  18
ENDBRANCH   1  17
TORSDOF 7
ENDMDL
MODEL 8
REMARK VINA RESULT:     -11.4      1.559      2.535
REMARK  Name = 154000
REMARK  7 active torsions:
REMARK  status: ('A' for Active; 'I' for Inactive)
REMARK    1  A    between atoms: O_1  and  C_5
REMARK    2  A    between atoms: O_1  and  C_17
REMARK    3  A    between atoms: C_2  and  C_8
REMARK    4  A    between atoms: C_8  and  C_13
REMARK    5  A    between atoms: C_17  and  C_18
REMARK    6  A    between atoms: C_18  and  C_21
REMARK    7  A    between atoms: C_23  and  C_25
REMARK                            x       y       z     vdW  Elec       q    Type
REMARK                         _______ _______ _______ _____ _____    ______ ____
ROOT
ATOM      1  O   UNL     1      36.875 -21.484 -18.726  0.00  0.00    -0.475 OA
ENDROOT
BRANCH   1   5
ATOM      2  C   UNL     1      35.240 -19.117 -21.695  0.00  0.00    -0.021 C 
ATOM      3  C   UNL     1      34.434 -20.029 -21.029  0.00  0.00    -0.001 C 
ATOM      4  C   UNL     1      36.585 -18.986 -21.383  0.00  0.00    -0.001 C 
ATOM      5  C   UNL     1      36.336 -20.705 -19.703  0.00  0.00    +0.139 C 
ATOM      6  C   UNL     1      34.985 -20.828 -20.028  0.00  0.00    +0.037 C 
ATOM      7  C   UNL     1      37.136 -19.785 -20.381  0.00  0.00    +0.037 C 
BRANCH   2   8
ATOM      8  C   UNL     1      34.644 -18.255 -22.779  0.00  0.00    +0.047 C 
BRANCH   8  13
ATOM      9  O   UNL     1      34.178 -14.936 -23.557  0.00  0.00    -0.346 OA
ATOM     10  O   UNL     1      34.889 -16.348 -20.442  0.00  0.00    -0.272 OA
ATOM     11  O   UNL     1      34.944 -16.388 -25.163  0.00  0.00    -0.247 OA
ATOM     12  N   UNL     1      34.164 -14.934 -22.146  0.00  0.00    -0.144 N 
ATOM     13  C   UNL     1      35.242 -16.861 -22.789  0.00  0.00    +0.184 C 
ATOM     14  C   UNL     1      34.762 -16.054 -21.620  0.00  0.00    +0.264 C 
ATOM     15  C   UNL     1      34.791 -16.077 -23.993  0.00  0.00    +0.348 C 
ATOM     16  H   UNL     1      33.771 -14.213 -21.602  0.00  0.00    +0.196 HD
ENDBRANCH   8  13
ENDBRANCH   2   8
ENDBRANCH   1   5
BRANCH   1  17
ATOM     17  C   UNL     1      35.967 -22.237 -17.922  0.00  0.00    +0.213 C 
BRANCH  17  18
ATOM     18  C   UNL     1      36.508 -22.347 -16.499  0.00  0.00    +0.105 C 
BRANCH  18  21
ATOM     19  O   UNL     1      34.600 -23.966 -13.842  0.00  0.00    -0.449 OA
ATOM     20  N   UNL     1      34.243 -23.153 -15.923  0.00  0.00    -0.373 NA
ATOM     21  C   UNL     1      35.537 -22.995 -15.554  0.00  0.00    +0.134 C 
ATOM     22  C   UNL     1      35.779 -23.472 -14.312  0.00  0.00    +0.216 C 
ATOM     23  C   UNL     1      33.730 -23.739 -14.864  0.00  0.00    +0.277 C 
ATOM     24  C   UNL     1      36.945 -23.570 -13.426  0.00  0.00    +0.055 C 
BRANCH  23  25
ATOM     25  C   UNL     1      32.380 -24.172 -14.626  0.00  0.00    +0.066 C 
ATOM     26  C   UNL     1      32.074 -24.932 -13.493  0.00  0.00    +0.006 C 
ATOM     27  C   UNL     1      31.367 -23.839 -15.528  0.00  0.00    +0.006 C 
ATOM     28  C   UNL     1      30.765 -25.354 -13.265  0.00  0.00    +0.000 C 
ATOM     29  C   UNL     1      30.057 -24.260 -15.299  0.00  0.00    +0.000 C 
ATOM     30  C   UNL     1      29.756 -25.018 -14.168  0.00  0.00    +0.000 C 
ENDBRANCH  23  25
ENDBRANCH  18  21
ENDBRANCH  17  18
ENDBRANCH   1  17
TORSDOF 7
ENDMDL
MODEL 9
REMARK VINA RESULT:     -11.3      2.712     10.193
REMARK  Name = 154000
REMARK  7 active torsions:
REMARK  status: ('A' for Active; 'I' for Inactive)
REMARK    1  A    between atoms: O_1  and  C_5
REMARK    2  A    between atoms: O_1  and  C_17
REMARK    3  A    between atoms: C_2  and  C_8
REMARK    4  A    between atoms: C_8  and  C_13
REMARK    5  A    between atoms: C_17  and  C_18
REMARK    6  A    between atoms: C_18  and  C_21
REMARK    7  A    between atoms: C_23  and  C_25
REMARK                            x       y       z     vdW  Elec       q    Type
REMARK                         _______ _______ _______ _____ _____    ______ ____
ROOT
ATOM      1  O   UNL     1      36.154 -21.047 -19.533  0.00  0.00    -0.475 OA
ENDROOT
BRANCH   1   5
ATOM      2  C   UNL     1      34.026 -23.313 -16.808  0.00  0.00    -0.021 C 
ATOM      3  C   UNL     1      35.286 -22.844 -16.467  0.00  0.00    -0.001 C 
ATOM      4  C   UNL     1      33.467 -23.035 -18.046  0.00  0.00    -0.001 C 
ATOM      5  C   UNL     1      35.454 -21.793 -18.635  0.00  0.00    +0.139 C 
ATOM      6  C   UNL     1      36.005 -22.080 -17.386  0.00  0.00    +0.037 C 
ATOM      7  C   UNL     1      34.186 -22.271 -18.965  0.00  0.00    +0.037 C 
BRANCH   2   8
ATOM      8  C   UNL     1      33.250 -24.140 -15.814  0.00  0.00    +0.047 C 
BRANCH   8  13
ATOM      9  O   UNL     1      30.161 -23.708 -14.361  0.00  0.00    -0.346 OA
ATOM     10  O   UNL     1      33.260 -24.064 -12.789  0.00  0.00    -0.272 OA
ATOM     11  O   UNL     1      30.550 -22.903 -16.476  0.00  0.00    -0.247 OA
ATOM     12  N   UNL     1      30.979 -24.054 -13.265  0.00  0.00    -0.144 N 
ATOM     13  C   UNL     1      32.384 -23.281 -14.913  0.00  0.00    +0.184 C 
ATOM     14  C   UNL     1      32.312 -23.844 -13.526  0.00  0.00    +0.264 C 
ATOM     15  C   UNL     1      30.952 -23.260 -15.381  0.00  0.00    +0.348 C 
ATOM     16  H   UNL     1      30.634 -24.406 -12.412  0.00  0.00    +0.196 HD
ENDBRANCH   8  13
ENDBRANCH   2   8
ENDBRANCH   1   5
BRANCH   1  17
ATOM     17  C   UNL     1      35.398 -20.288 -20.476  0.00  0.00    +0.213 C 
BRANCH  17  18
ATOM     18  C   UNL     1      36.274 -19.193 -21.077  0.00  0.00    +0.105 C 
BRANCH  18  21
ATOM     19  O   UNL     1      34.464 -17.722 -23.884  0.00  0.00    -0.449 OA
ATOM     20  N   UNL     1      35.433 -17.041 -21.958  0.00  0.00    -0.373 NA
ATOM     21  C   UNL     1      35.560 -18.380 -22.118  0.00  0.00    +0.134 C 
ATOM     22  C   UNL     1      34.988 -18.816 -23.264  0.00  0.00    +0.216 C 
ATOM     23  C   UNL     1      34.772 -16.699 -23.041  0.00  0.00    +0.277 C 
ATOM     24  C   UNL     1      34.821 -20.110 -23.936  0.00  0.00    +0.055 C 
BRANCH  23  25
ATOM     25  C   UNL     1      34.325 -15.401 -23.465  0.00  0.00    +0.066 C 
ATOM     26  C   UNL     1      34.459 -14.299 -22.616  0.00  0.00    +0.006 C 
ATOM     27  C   UNL     1      33.750 -15.235 -24.728  0.00  0.00    +0.006 C 
ATOM     28  C   UNL     1      34.021 -13.040 -23.028  0.00  0.00    +0.000 C 
ATOM     29  C   UNL     1      33.314 -13.976 -25.140  0.00  0.00    +0.000 C 
ATOM     30  C   UNL     1      33.449 -12.878 -24.290  0.00  0.00    +0.000 C 
ENDBRANCH  23  25
ENDBRANCH  18  21
ENDBRANCH  17  18
ENDBRANCH   1  17
TORSDOF 7
ENDMDL
