MODEL 1
REMARK VINA RESULT:     -12.0      0.000      0.000
REMARK  Name = 448841
REMARK  3 active torsions:
REMARK  status: ('A' for Active; 'I' for Inactive)
REMARK    1  A    between atoms: C_1  and  C_17
REMARK    2  A    between atoms: C_9  and  C_13
REMARK    3  A    between atoms: C_18  and  C_20
REMARK                            x       y       z     vdW  Elec       q    Type
REMARK                         _______ _______ _______ _____ _____    ______ ____
ROOT
ATOM      1  C   UNL     1      35.508 -21.256 -19.567  0.00  0.00    -0.022 C 
ATOM      2  C   UNL     1      36.453 -21.484 -18.566  0.00  0.00    -0.004 C 
ATOM      3  C   UNL     1      34.216 -21.757 -19.433  0.00  0.00    -0.004 C 
ATOM      4  C   UNL     1      36.117 -22.219 -17.417  0.00  0.00    -0.000 C 
ATOM      5  C   UNL     1      33.866 -22.490 -18.298  0.00  0.00    -0.000 C 
ATOM      6  C   UNL     1      34.804 -22.730 -17.281  0.00  0.00    +0.000 C 
ATOM      7  C   UNL     1      37.056 -22.460 -16.401  0.00  0.00    +0.000 C 
ATOM      8  C   UNL     1      34.468 -23.464 -16.133  0.00  0.00    +0.003 C 
ATOM      9  C   UNL     1      35.413 -23.693 -15.132  0.00  0.00    +0.031 C 
ATOM     10  C   UNL     1      36.704 -23.191 -15.266  0.00  0.00    +0.003 C 
ENDROOT
BRANCH   9  13
ATOM     11  N   UNL     1      34.411 -23.853 -12.866  0.00  0.00    -0.343 N 
ATOM     12  N   UNL     1      35.328 -25.746 -13.885  0.00  0.00    -0.285 NA
ATOM     13  C   UNL     1      35.049 -24.455 -13.949  0.00  0.00    +0.117 C 
ATOM     14  H   UNL     1      34.174 -24.388 -12.074  0.00  0.00    +0.144 HD
ATOM     15  H   UNL     1      34.198 -22.893 -12.893  0.00  0.00    +0.144 HD
ATOM     16  H   UNL     1      35.082 -26.263 -13.084  0.00  0.00    +0.188 HD
ENDBRANCH   9  13
BRANCH   1  17
ATOM     17  C   UNL     1      35.881 -20.475 -20.779  0.00  0.00    +0.027 C 
ATOM     18  C   UNL     1      35.526 -19.022 -20.852  0.00  0.00    +0.027 C 
ATOM     19  C   UNL     1      36.957 -19.438 -20.677  0.00  0.00    +0.009 C 
BRANCH  18  20
ATOM     20  C   UNL     1      35.088 -18.446 -22.148  0.00  0.00    -0.022 C 
ATOM     21  C   UNL     1      35.241 -17.079 -22.398  0.00  0.00    -0.004 C 
ATOM     22  C   UNL     1      34.520 -19.266 -23.127  0.00  0.00    -0.004 C 
ATOM     23  C   UNL     1      34.828 -16.537 -23.615  0.00  0.00    -0.000 C 
ATOM     24  C   UNL     1      34.106 -18.724 -24.344  0.00  0.00    -0.000 C 
ATOM     25  C   UNL     1      34.260 -17.360 -24.587  0.00  0.00    -0.000 C 
ENDBRANCH  18  20
ENDBRANCH   1  17
TORSDOF 3
ENDMDL
MODEL 2
REMARK VINA RESULT:     -11.6      5.890      9.755
REMARK  Name = 448841
REMARK  3 active torsions:
REMARK  status: ('A' for Active; 'I' for Inactive)
REMARK    1  A    between atoms: C_1  and  C_17
REMARK    2  A    between atoms: C_9  and  C_13
REMARK    3  A    between atoms: C_18  and  C_20
REMARK                            x       y       z     vdW  Elec       q    Type
REMARK                         _______ _______ _______ _____ _____    ______ ____
ROOT
ATOM      1  C   UNL     1      34.876 -16.520 -21.478  0.00  0.00    -0.022 C 
ATOM      2  C   UNL     1      34.107 -15.728 -20.626  0.00  0.00    -0.004 C 
ATOM      3  C   UNL     1      35.105 -16.115 -22.790  0.00  0.00    -0.004 C 
ATOM      4  C   UNL     1      33.555 -14.518 -21.076  0.00  0.00    -0.000 C 
ATOM      5  C   UNL     1      34.564 -14.915 -23.254  0.00  0.00    -0.000 C 
ATOM      6  C   UNL     1      33.787 -14.105 -22.411  0.00  0.00    +0.000 C 
ATOM      7  C   UNL     1      32.777 -13.708 -20.233  0.00  0.00    +0.000 C 
ATOM      8  C   UNL     1      33.236 -12.895 -22.861  0.00  0.00    +0.003 C 
ATOM      9  C   UNL     1      32.465 -12.102 -22.009  0.00  0.00    +0.031 C 
ATOM     10  C   UNL     1      32.237 -12.508 -20.697  0.00  0.00    +0.003 C 
ENDROOT
BRANCH   9  13
ATOM     11  N   UNL     1      32.617 -10.016 -23.347  0.00  0.00    -0.343 N 
ATOM     12  N   UNL     1      30.689 -10.487 -22.113  0.00  0.00    -0.285 NA
ATOM     13  C   UNL     1      31.902 -10.852 -22.491  0.00  0.00    +0.117 C 
ATOM     14  H   UNL     1      32.216  -9.173 -23.661  0.00  0.00    +0.144 HD
ATOM     15  H   UNL     1      33.523 -10.268 -23.638  0.00  0.00    +0.144 HD
ATOM     16  H   UNL     1      30.306  -9.640 -22.439  0.00  0.00    +0.188 HD
ENDBRANCH   9  13
BRANCH   1  17
ATOM     17  C   UNL     1      35.454 -17.802 -20.984  0.00  0.00    +0.027 C 
ATOM     18  C   UNL     1      34.884 -19.097 -21.472  0.00  0.00    +0.027 C 
ATOM     19  C   UNL     1      36.246 -18.656 -21.924  0.00  0.00    +0.009 C 
BRANCH  18  20
ATOM     20  C   UNL     1      34.765 -20.238 -20.530  0.00  0.00    -0.022 C 
ATOM     21  C   UNL     1      33.504 -20.710 -20.153  0.00  0.00    -0.004 C 
ATOM     22  C   UNL     1      35.912 -20.847 -20.013  0.00  0.00    -0.004 C 
ATOM     23  C   UNL     1      33.391 -21.781 -19.266  0.00  0.00    -0.000 C 
ATOM     24  C   UNL     1      35.800 -21.918 -19.126  0.00  0.00    -0.000 C 
ATOM     25  C   UNL     1      34.539 -22.385 -18.753  0.00  0.00    -0.000 C 
ENDBRANCH  18  20
ENDBRANCH   1  17
TORSDOF 3
ENDMDL
MODEL 3
REMARK VINA RESULT:     -11.6      1.194      2.412
REMARK  Name = 448841
REMARK  3 active torsions:
REMARK  status: ('A' for Active; 'I' for Inactive)
REMARK    1  A    between atoms: C_1  and  C_17
REMARK    2  A    between atoms: C_9  and  C_13
REMARK    3  A    between atoms: C_18  and  C_20
REMARK                            x       y       z     vdW  Elec       q    Type
REMARK                         _______ _______ _______ _____ _____    ______ ____
ROOT
ATOM      1  C   UNL     1      34.605 -20.450 -20.645  0.00  0.00    -0.022 C 
ATOM      2  C   UNL     1      33.561 -21.062 -19.953  0.00  0.00    -0.004 C 
ATOM      3  C   UNL     1      35.919 -20.613 -20.213  0.00  0.00    -0.004 C 
ATOM      4  C   UNL     1      33.817 -21.847 -18.817  0.00  0.00    -0.000 C 
ATOM      5  C   UNL     1      36.191 -21.391 -19.086  0.00  0.00    -0.000 C 
ATOM      6  C   UNL     1      35.152 -22.014 -18.377  0.00  0.00    +0.000 C 
ATOM      7  C   UNL     1      32.778 -22.470 -18.107  0.00  0.00    +0.000 C 
ATOM      8  C   UNL     1      35.409 -22.799 -17.242  0.00  0.00    +0.003 C 
ATOM      9  C   UNL     1      34.364 -23.412 -16.548  0.00  0.00    +0.031 C 
ATOM     10  C   UNL     1      33.051 -23.247 -16.981  0.00  0.00    +0.003 C 
ENDROOT
BRANCH   9  13
ATOM     11  N   UNL     1      33.789 -24.228 -14.275  0.00  0.00    -0.343 N 
ATOM     12  N   UNL     1      35.736 -24.968 -15.336  0.00  0.00    -0.285 NA
ATOM     13  C   UNL     1      34.646 -24.221 -15.375  0.00  0.00    +0.117 C 
ATOM     14  H   UNL     1      34.000 -24.784 -13.490  0.00  0.00    +0.144 HD
ATOM     15  H   UNL     1      32.974 -23.677 -14.283  0.00  0.00    +0.144 HD
ATOM     16  H   UNL     1      35.928 -25.517 -14.542  0.00  0.00    +0.188 HD
ENDBRANCH   9  13
BRANCH   1  17
ATOM     17  C   UNL     1      34.316 -19.620 -21.848  0.00  0.00    +0.027 C 
ATOM     18  C   UNL     1      35.356 -18.666 -22.347  0.00  0.00    +0.027 C 
ATOM     19  C   UNL     1      35.039 -19.909 -23.127  0.00  0.00    +0.009 C 
BRANCH  18  20
ATOM     20  C   UNL     1      34.936 -17.346 -22.880  0.00  0.00    -0.022 C 
ATOM     21  C   UNL     1      34.934 -16.221 -22.050  0.00  0.00    -0.004 C 
ATOM     22  C   UNL     1      34.538 -17.220 -24.214  0.00  0.00    -0.004 C 
ATOM     23  C   UNL     1      34.537 -14.980 -22.550  0.00  0.00    -0.000 C 
ATOM     24  C   UNL     1      34.140 -15.980 -24.714  0.00  0.00    -0.000 C 
ATOM     25  C   UNL     1      34.140 -14.861 -23.882  0.00  0.00    -0.000 C 
ENDBRANCH  18  20
ENDBRANCH   1  17
TORSDOF 3
ENDMDL
MODEL 4
REMARK VINA RESULT:     -11.5      0.874      1.925
REMARK  Name = 448841
REMARK  3 active torsions:
REMARK  status: ('A' for Active; 'I' for Inactive)
REMARK    1  A    between atoms: C_1  and  C_17
REMARK    2  A    between atoms: C_9  and  C_13
REMARK    3  A    between atoms: C_18  and  C_20
REMARK                            x       y       z     vdW  Elec       q    Type
REMARK                         _______ _______ _______ _____ _____    ______ ____
ROOT
ATOM      1  C   UNL     1      35.807 -21.203 -19.500  0.00  0.00    -0.022 C 
ATOM      2  C   UNL     1      34.530 -21.701 -19.244  0.00  0.00    -0.004 C 
ATOM      3  C   UNL     1      36.826 -21.386 -18.569  0.00  0.00    -0.004 C 
ATOM      4  C   UNL     1      34.254 -22.391 -18.052  0.00  0.00    -0.000 C 
ATOM      5  C   UNL     1      36.569 -22.069 -17.379  0.00  0.00    -0.000 C 
ATOM      6  C   UNL     1      35.290 -22.578 -17.105  0.00  0.00    +0.000 C 
ATOM      7  C   UNL     1      32.974 -22.899 -17.778  0.00  0.00    +0.000 C 
ATOM      8  C   UNL     1      35.015 -23.267 -15.914  0.00  0.00    +0.003 C 
ATOM      9  C   UNL     1      33.737 -23.766 -15.658  0.00  0.00    +0.031 C 
ATOM     10  C   UNL     1      32.719 -23.583 -16.589  0.00  0.00    +0.003 C 
ENDROOT
BRANCH   9  13
ATOM     11  N   UNL     1      34.452 -25.248 -13.798  0.00  0.00    -0.343 N 
ATOM     12  N   UNL     1      32.273 -24.406 -13.863  0.00  0.00    -0.285 NA
ATOM     13  C   UNL     1      33.469 -24.478 -14.419  0.00  0.00    +0.117 C 
ATOM     14  H   UNL     1      34.248 -25.722 -12.959  0.00  0.00    +0.144 HD
ATOM     15  H   UNL     1      35.348 -25.318 -14.198  0.00  0.00    +0.144 HD
ATOM     16  H   UNL     1      32.090 -24.887 -13.024  0.00  0.00    +0.188 HD
ENDBRANCH   9  13
BRANCH   1  17
ATOM     17  C   UNL     1      36.081 -20.473 -20.769  0.00  0.00    +0.027 C 
ATOM     18  C   UNL     1      35.683 -19.035 -20.887  0.00  0.00    +0.027 C 
ATOM     19  C   UNL     1      37.134 -19.408 -20.787  0.00  0.00    +0.009 C 
BRANCH  18  20
ATOM     20  C   UNL     1      35.149 -18.533 -22.178  0.00  0.00    -0.022 C 
ATOM     21  C   UNL     1      35.248 -17.176 -22.501  0.00  0.00    -0.004 C 
ATOM     22  C   UNL     1      34.543 -19.413 -23.079  0.00  0.00    -0.004 C 
ATOM     23  C   UNL     1      34.744 -16.703 -23.713  0.00  0.00    -0.000 C 
ATOM     24  C   UNL     1      34.039 -18.941 -24.291  0.00  0.00    -0.000 C 
ATOM     25  C   UNL     1      34.140 -17.586 -24.607  0.00  0.00    -0.000 C 
ENDBRANCH  18  20
ENDBRANCH   1  17
TORSDOF 3
ENDMDL
MODEL 5
REMARK VINA RESULT:     -11.2      3.843      8.642
REMARK  Name = 448841
REMARK  3 active torsions:
REMARK  status: ('A' for Active; 'I' for Inactive)
REMARK    1  A    between atoms: C_1  and  C_17
REMARK    2  A    between atoms: C_9  and  C_13
REMARK    3  A    between atoms: C_18  and  C_20
REMARK                            x       y       z     vdW  Elec       q    Type
REMARK                         _______ _______ _______ _____ _____    ______ ____
ROOT
ATOM      1  C   UNL     1      34.426 -22.799 -17.618  0.00  0.00    -0.022 C 
ATOM      2  C   UNL     1      35.560 -22.180 -18.143  0.00  0.00    -0.004 C 
ATOM      3  C   UNL     1      33.176 -22.558 -18.182  0.00  0.00    -0.004 C 
ATOM      4  C   UNL     1      35.460 -21.310 -19.242  0.00  0.00    -0.000 C 
ATOM      5  C   UNL     1      33.058 -21.696 -19.274  0.00  0.00    -0.000 C 
ATOM      6  C   UNL     1      34.189 -21.065 -19.816  0.00  0.00    +0.000 C 
ATOM      7  C   UNL     1      36.590 -20.678 -19.783  0.00  0.00    +0.000 C 
ATOM      8  C   UNL     1      34.087 -20.196 -20.913  0.00  0.00    +0.003 C 
ATOM      9  C   UNL     1      35.222 -19.577 -21.439  0.00  0.00    +0.031 C 
ATOM     10  C   UNL     1      36.471 -19.818 -20.874  0.00  0.00    +0.003 C 
ENDROOT
BRANCH   9  13
ATOM     11  N   UNL     1      34.297 -19.000 -23.670  0.00  0.00    -0.343 N 
ATOM     12  N   UNL     1      35.764 -17.537 -22.588  0.00  0.00    -0.285 NA
ATOM     13  C   UNL     1      35.100 -18.680 -22.577  0.00  0.00    +0.117 C 
ATOM     14  H   UNL     1      34.229 -18.377 -24.430  0.00  0.00    +0.144 HD
ATOM     15  H   UNL     1      33.797 -19.848 -23.682  0.00  0.00    +0.144 HD
ATOM     16  H   UNL     1      35.682 -16.928 -23.358  0.00  0.00    +0.188 HD
ENDBRANCH   9  13
BRANCH   1  17
ATOM     17  C   UNL     1      34.551 -23.718 -16.453  0.00  0.00    +0.027 C 
ATOM     18  C   UNL     1      35.400 -23.312 -15.288  0.00  0.00    +0.027 C 
ATOM     19  C   UNL     1      33.906 -23.344 -15.155  0.00  0.00    +0.009 C 
BRANCH  18  20
ATOM     20  C   UNL     1      36.215 -24.338 -14.591  0.00  0.00    -0.022 C 
ATOM     21  C   UNL     1      36.060 -25.692 -14.905  0.00  0.00    -0.004 C 
ATOM     22  C   UNL     1      37.140 -23.959 -13.614  0.00  0.00    -0.004 C 
ATOM     23  C   UNL     1      36.824 -26.657 -14.248  0.00  0.00    -0.000 C 
ATOM     24  C   UNL     1      37.903 -24.923 -12.957  0.00  0.00    -0.000 C 
ATOM     25  C   UNL     1      37.745 -26.272 -13.274  0.00  0.00    -0.000 C 
ENDBRANCH  18  20
ENDBRANCH   1  17
TORSDOF 3
ENDMDL
MODEL 6
REMARK VINA RESULT:     -11.0      3.998      8.535
REMARK  Name = 448841
REMARK  3 active torsions:
REMARK  status: ('A' for Active; 'I' for Inactive)
REMARK    1  A    between atoms: C_1  and  C_17
REMARK    2  A    between atoms: C_9  and  C_13
REMARK    3  A    between atoms: C_18  and  C_20
REMARK                            x       y       z     vdW  Elec       q    Type
REMARK                         _______ _______ _______ _____ _____    ______ ____
ROOT
ATOM      1  C   UNL     1      34.524 -22.213 -18.606  0.00  0.00    -0.022 C 
ATOM      2  C   UNL     1      35.651 -21.558 -19.101  0.00  0.00    -0.004 C 
ATOM      3  C   UNL     1      33.260 -21.893 -19.096  0.00  0.00    -0.004 C 
ATOM      4  C   UNL     1      35.530 -20.572 -20.094  0.00  0.00    -0.000 C 
ATOM      5  C   UNL     1      33.122 -20.915 -20.083  0.00  0.00    -0.000 C 
ATOM      6  C   UNL     1      34.245 -20.246 -20.593  0.00  0.00    +0.000 C 
ATOM      7  C   UNL     1      36.654 -19.902 -20.603  0.00  0.00    +0.000 C 
ATOM      8  C   UNL     1      34.124 -19.261 -21.585  0.00  0.00    +0.003 C 
ATOM      9  C   UNL     1      35.252 -18.606 -22.081  0.00  0.00    +0.031 C 
ATOM     10  C   UNL     1      36.514 -18.926 -21.590  0.00  0.00    +0.003 C 
ENDROOT
BRANCH   9  13
ATOM     11  N   UNL     1      34.397 -17.838 -24.282  0.00  0.00    -0.343 N 
ATOM     12  N   UNL     1      35.664 -16.401 -22.943  0.00  0.00    -0.285 NA
ATOM     13  C   UNL     1      35.109 -17.588 -23.109  0.00  0.00    +0.117 C 
ATOM     14  H   UNL     1      34.313 -17.134 -24.965  0.00  0.00    +0.144 HD
ATOM     15  H   UNL     1      33.979 -18.717 -24.426  0.00  0.00    +0.144 HD
ATOM     16  H   UNL     1      35.567 -15.711 -23.638  0.00  0.00    +0.188 HD
ENDBRANCH   9  13
BRANCH   1  17
ATOM     17  C   UNL     1      34.671 -23.255 -17.552  0.00  0.00    +0.027 C 
ATOM     18  C   UNL     1      34.491 -22.874 -16.115  0.00  0.00    +0.027 C 
ATOM     19  C   UNL     1      33.457 -23.715 -16.805  0.00  0.00    +0.009 C 
BRANCH  18  20
ATOM     20  C   UNL     1      35.362 -23.493 -15.086  0.00  0.00    -0.022 C 
ATOM     21  C   UNL     1      36.733 -23.641 -15.320  0.00  0.00    -0.004 C 
ATOM     22  C   UNL     1      34.819 -23.932 -13.875  0.00  0.00    -0.004 C 
ATOM     23  C   UNL     1      37.552 -24.224 -14.354  0.00  0.00    -0.000 C 
ATOM     24  C   UNL     1      35.638 -24.516 -12.908  0.00  0.00    -0.000 C 
ATOM     25  C   UNL     1      37.004 -24.662 -13.148  0.00  0.00    -0.000 C 
ENDBRANCH  18  20
ENDBRANCH   1  17
TORSDOF 3
ENDMDL
MODEL 7
REMARK VINA RESULT:     -10.6      3.766      8.921
REMARK  Name = 448841
REMARK  3 active torsions:
REMARK  status: ('A' for Active; 'I' for Inactive)
REMARK    1  A    between atoms: C_1  and  C_17
REMARK    2  A    between atoms: C_9  and  C_13
REMARK    3  A    between atoms: C_18  and  C_20
REMARK                            x       y       z     vdW  Elec       q    Type
REMARK                         _______ _______ _______ _____ _____    ______ ____
ROOT
ATOM      1  C   UNL     1      35.088 -22.757 -17.270  0.00  0.00    -0.022 C 
ATOM      2  C   UNL     1      34.012 -22.343 -18.055  0.00  0.00    -0.004 C 
ATOM      3  C   UNL     1      36.380 -22.344 -17.583  0.00  0.00    -0.004 C 
ATOM      4  C   UNL     1      34.215 -21.507 -19.165  0.00  0.00    -0.000 C 
ATOM      5  C   UNL     1      36.599 -21.514 -18.684  0.00  0.00    -0.000 C 
ATOM      6  C   UNL     1      35.528 -21.086 -19.485  0.00  0.00    +0.000 C 
ATOM      7  C   UNL     1      33.144 -21.081 -19.967  0.00  0.00    +0.000 C 
ATOM      8  C   UNL     1      35.731 -20.252 -20.595  0.00  0.00    +0.003 C 
ATOM      9  C   UNL     1      34.655 -19.836 -21.381  0.00  0.00    +0.031 C 
ATOM     10  C   UNL     1      33.364 -20.251 -21.066  0.00  0.00    +0.003 C 
ENDROOT
BRANCH   9  13
ATOM     11  N   UNL     1      34.145 -19.116 -23.701  0.00  0.00    -0.343 N 
ATOM     12  N   UNL     1      35.806 -18.028 -22.467  0.00  0.00    -0.285 NA
ATOM     13  C   UNL     1      34.882 -18.972 -22.526  0.00  0.00    +0.117 C 
ATOM     14  H   UNL     1      34.315 -18.519 -24.465  0.00  0.00    +0.144 HD
ATOM     15  H   UNL     1      33.455 -19.814 -23.766  0.00  0.00    +0.144 HD
ATOM     16  H   UNL     1      35.960 -17.442 -23.243  0.00  0.00    +0.188 HD
ENDBRANCH   9  13
BRANCH   1  17
ATOM     17  C   UNL     1      34.855 -23.644 -16.096  0.00  0.00    +0.027 C 
ATOM     18  C   UNL     1      35.257 -23.173 -14.732  0.00  0.00    +0.027 C 
ATOM     19  C   UNL     1      33.804 -23.272 -15.096  0.00  0.00    +0.009 C 
BRANCH  18  20
ATOM     20  C   UNL     1      35.833 -24.145 -13.769  0.00  0.00    -0.022 C 
ATOM     21  C   UNL     1      35.804 -23.877 -12.397  0.00  0.00    -0.004 C 
ATOM     22  C   UNL     1      36.409 -25.333 -14.227  0.00  0.00    -0.004 C 
ATOM     23  C   UNL     1      36.347 -24.789 -11.492  0.00  0.00    -0.000 C 
ATOM     24  C   UNL     1      36.952 -26.245 -13.323  0.00  0.00    -0.000 C 
ATOM     25  C   UNL     1      36.922 -25.972 -11.955  0.00  0.00    -0.000 C 
ENDBRANCH  18  20
ENDBRANCH   1  17
TORSDOF 3
ENDMDL
MODEL 8
REMARK VINA RESULT:     -10.4      4.996      9.024
REMARK  Name = 448841
REMARK  3 active torsions:
REMARK  status: ('A' for Active; 'I' for Inactive)
REMARK    1  A    between atoms: C_1  and  C_17
REMARK    2  A    between atoms: C_9  and  C_13
REMARK    3  A    between atoms: C_18  and  C_20
REMARK                            x       y       z     vdW  Elec       q    Type
REMARK                         _______ _______ _______ _____ _____    ______ ____
ROOT
ATOM      1  C   UNL     1      35.465 -19.447 -21.085  0.00  0.00    -0.022 C 
ATOM      2  C   UNL     1      35.395 -18.076 -20.841  0.00  0.00    -0.004 C 
ATOM      3  C   UNL     1      35.127 -19.951 -22.338  0.00  0.00    -0.004 C 
ATOM      4  C   UNL     1      34.986 -17.188 -21.849  0.00  0.00    -0.000 C 
ATOM      5  C   UNL     1      34.718 -19.083 -23.352  0.00  0.00    -0.000 C 
ATOM      6  C   UNL     1      34.642 -17.699 -23.124  0.00  0.00    +0.000 C 
ATOM      7  C   UNL     1      34.908 -15.805 -21.621  0.00  0.00    +0.000 C 
ATOM      8  C   UNL     1      34.232 -16.813 -24.132  0.00  0.00    +0.003 C 
ATOM      9  C   UNL     1      34.162 -15.440 -23.888  0.00  0.00    +0.031 C 
ATOM     10  C   UNL     1      34.500 -14.938 -22.635  0.00  0.00    +0.003 C 
ENDROOT
BRANCH   9  13
ATOM     11  N   UNL     1      33.473 -13.191 -24.683  0.00  0.00    -0.343 N 
ATOM     12  N   UNL     1      33.588 -14.984 -26.177  0.00  0.00    -0.285 NA
ATOM     13  C   UNL     1      33.736 -14.535 -24.943  0.00  0.00    +0.117 C 
ATOM     14  H   UNL     1      33.185 -12.596 -25.412  0.00  0.00    +0.144 HD
ATOM     15  H   UNL     1      33.574 -12.838 -23.770  0.00  0.00    +0.144 HD
ATOM     16  H   UNL     1      33.300 -14.372 -26.892  0.00  0.00    +0.188 HD
ENDBRANCH   9  13
BRANCH   1  17
ATOM     17  C   UNL     1      35.901 -20.375 -20.004  0.00  0.00    +0.027 C 
ATOM     18  C   UNL     1      35.232 -21.706 -19.867  0.00  0.00    +0.027 C 
ATOM     19  C   UNL     1      36.644 -21.623 -20.368  0.00  0.00    +0.009 C 
BRANCH  18  20
ATOM     20  C   UNL     1      34.971 -22.253 -18.512  0.00  0.00    -0.022 C 
ATOM     21  C   UNL     1      35.969 -22.212 -17.533  0.00  0.00    -0.004 C 
ATOM     22  C   UNL     1      33.727 -22.813 -18.205  0.00  0.00    -0.004 C 
ATOM     23  C   UNL     1      35.725 -22.727 -16.260  0.00  0.00    -0.000 C 
ATOM     24  C   UNL     1      33.483 -23.329 -16.933  0.00  0.00    -0.000 C 
ATOM     25  C   UNL     1      34.483 -23.286 -15.960  0.00  0.00    -0.000 C 
ENDBRANCH  18  20
ENDBRANCH   1  17
TORSDOF 3
ENDMDL
MODEL 9
REMARK VINA RESULT:     -10.4      1.740      3.241
REMARK  Name = 448841
REMARK  3 active torsions:
REMARK  status: ('A' for Active; 'I' for Inactive)
REMARK    1  A    between atoms: C_1  and  C_17
REMARK    2  A    between atoms: C_9  and  C_13
REMARK    3  A    between atoms: C_18  and  C_20
REMARK                            x       y       z     vdW  Elec       q    Type
REMARK                         _______ _______ _______ _____ _____    ______ ____
ROOT
ATOM      1  C   UNL     1      34.452 -22.809 -17.110  0.00  0.00    -0.022 C 
ATOM      2  C   UNL     1      35.693 -22.835 -16.473  0.00  0.00    -0.004 C 
ATOM      3  C   UNL     1      33.339 -23.370 -16.490  0.00  0.00    -0.004 C 
ATOM      4  C   UNL     1      35.837 -23.423 -15.206  0.00  0.00    -0.000 C 
ATOM      5  C   UNL     1      33.464 -23.959 -15.231  0.00  0.00    -0.000 C 
ATOM      6  C   UNL     1      34.705 -23.994 -14.575  0.00  0.00    +0.000 C 
ATOM      7  C   UNL     1      37.078 -23.459 -14.551  0.00  0.00    +0.000 C 
ATOM      8  C   UNL     1      34.848 -24.582 -13.309  0.00  0.00    +0.003 C 
ATOM      9  C   UNL     1      36.090 -24.608 -12.672  0.00  0.00    +0.031 C 
ATOM     10  C   UNL     1      37.202 -24.047 -13.292  0.00  0.00    +0.003 C 
ENDROOT
BRANCH   9  13
ATOM     11  N   UNL     1      35.735 -24.593 -10.214  0.00  0.00    -0.343 N 
ATOM     12  N   UNL     1      36.816 -26.395 -11.238  0.00  0.00    -0.285 NA
ATOM     13  C   UNL     1      36.221 -25.221 -11.360  0.00  0.00    +0.117 C 
ATOM     14  H   UNL     1      35.835 -25.026  -9.336  0.00  0.00    +0.144 HD
ATOM     15  H   UNL     1      35.292 -23.717 -10.284  0.00  0.00    +0.144 HD
ATOM     16  H   UNL     1      36.906 -26.811 -10.350  0.00  0.00    +0.188 HD
ENDBRANCH   9  13
BRANCH   1  17
ATOM     17  C   UNL     1      34.318 -22.181 -18.454  0.00  0.00    +0.027 C 
ATOM     18  C   UNL     1      35.540 -21.981 -19.294  0.00  0.00    +0.027 C 
ATOM     19  C   UNL     1      34.527 -23.020 -19.676  0.00  0.00    +0.009 C 
BRANCH  18  20
ATOM     20  C   UNL     1      35.665 -20.750 -20.114  0.00  0.00    -0.022 C 
ATOM     21  C   UNL     1      34.547 -20.224 -20.768  0.00  0.00    -0.004 C 
ATOM     22  C   UNL     1      36.901 -20.110 -20.240  0.00  0.00    -0.004 C 
ATOM     23  C   UNL     1      34.664 -19.068 -21.541  0.00  0.00    -0.000 C 
ATOM     24  C   UNL     1      37.019 -18.955 -21.012  0.00  0.00    -0.000 C 
ATOM     25  C   UNL     1      35.900 -18.434 -21.662  0.00  0.00    -0.000 C 
ENDBRANCH  18  20
ENDBRANCH   1  17
TORSDOF 3
ENDMDL
