MODEL 1
REMARK VINA RESULT:     -12.2      0.000      0.000
REMARK  Name = 72696796
REMARK  9 active torsions:
REMARK  status: ('A' for Active; 'I' for Inactive)
REMARK    1  A    between atoms: N_2  and  C_29
REMARK    2  A    between atoms: C_10  and  C_12
REMARK    3  A    between atoms: C_13  and  C_16
REMARK    4  A    between atoms: N_15  and  C_18
REMARK    5  A    between atoms: C_18  and  C_20
REMARK    6  A    between atoms: C_29  and  O_30
REMARK    7  A    between atoms: O_30  and  P_31
REMARK    8  A    between atoms: P_31  and  O_33
REMARK    9  A    between atoms: P_31  and  O_35
REMARK                            x       y       z     vdW  Elec       q    Type
REMARK                         _______ _______ _______ _____ _____    ______ ____
ROOT
ATOM      1  O   UNL     1      31.778  -7.608 -19.682  0.00  0.00    -0.274 OA
ATOM      2  N   UNL     1      32.416  -8.988 -21.448  0.00  0.00    -0.217 N 
ATOM      3  N   UNL     1      33.134 -10.492 -23.184  0.00  0.00    -0.229 NA
ATOM      4  C   UNL     1      31.311 -11.146 -19.948  0.00  0.00    +0.039 C 
ATOM      5  C   UNL     1      32.040 -11.385 -21.232  0.00  0.00    +0.010 C 
ATOM      6  C   UNL     1      31.898  -9.943 -19.238  0.00  0.00    +0.090 C 
ATOM      7  C   UNL     1      32.548 -10.314 -21.971  0.00  0.00    +0.135 C 
ATOM      8  C   UNL     1      31.988  -8.732 -20.142  0.00  0.00    +0.233 C 
ATOM      9  C   UNL     1      32.146 -12.673 -21.766  0.00  0.00    +0.000 C 
ATOM     10  C   UNL     1      32.759 -12.868 -22.996  0.00  0.00    +0.019 C 
ATOM     11  C   UNL     1      33.231 -11.753 -23.660  0.00  0.00    +0.100 C 
ENDROOT
BRANCH  10  12
ATOM     12  C   UNL     1      32.911 -14.197 -23.559  0.00  0.00    +0.006 C 
ATOM     13  C   UNL     1      34.081 -14.867 -23.680  0.00  0.00    +0.058 C 
BRANCH  13  16
ATOM     14  O   UNL     1      33.720 -16.366 -25.468  0.00  0.00    -0.270 OA
ATOM     15  N   UNL     1      34.627 -17.253 -23.520  0.00  0.00    -0.267 N 
ATOM     16  C   UNL     1      34.113 -16.220 -24.309  0.00  0.00    +0.250 C 
ATOM     17  C   UNL     1      34.719 -18.598 -24.075  0.00  0.00    +0.116 C 
BRANCH  15  18
ATOM     18  C   UNL     1      35.131 -17.099 -22.157  0.00  0.00    +0.158 C 
BRANCH  18  20
ATOM     19  O   UNL     1      33.969 -18.917 -21.046  0.00  0.00    -0.456 OA
ATOM     20  C   UNL     1      35.172 -18.409 -21.423  0.00  0.00    +0.139 A 
ATOM     21  C   UNL     1      36.196 -19.240 -21.032  0.00  0.00    +0.013 A 
ATOM     22  C   UNL     1      35.590 -20.338 -20.368  0.00  0.00    +0.033 A 
ATOM     23  C   UNL     1      34.221 -20.092 -20.403  0.00  0.00    +0.145 A 
ATOM     24  C   UNL     1      37.638 -19.028 -21.261  0.00  0.00    +0.034 C 
ATOM     25  C   UNL     1      36.046 -21.511 -19.742  0.00  0.00    +0.003 C 
ATOM     26  C   UNL     1      33.261 -20.939 -19.853  0.00  0.00    +0.037 C 
ATOM     27  C   UNL     1      35.103 -22.383 -19.180  0.00  0.00    +0.000 C 
ATOM     28  C   UNL     1      33.736 -22.100 -19.235  0.00  0.00    +0.003 C 
ENDBRANCH  18  20
ENDBRANCH  15  18
ENDBRANCH  13  16
ENDBRANCH  10  12
BRANCH   2  29
ATOM     29  C   UNL     1      32.742  -7.883 -22.342  0.00  0.00    +0.257 C 
BRANCH  29  30
ATOM     30  O   UNL     1      31.540  -7.294 -22.801  0.00  0.00    -0.251 OA
BRANCH  30  31
ATOM     31  P   UNL     1      31.294  -5.721 -22.514  0.00  0.00    +0.475 P 
ATOM     32  O   UNL     1      30.992  -4.882 -23.721  0.00  0.00    -0.227 OA
BRANCH  31  33
ATOM     33  O   UNL     1      32.614  -5.283 -21.690  0.00  0.00    -0.303 OA
ATOM     34  H   UNL     1      33.048  -4.543 -22.143  0.00  0.00    +0.222 HD
ENDBRANCH  31  33
BRANCH  31  35
ATOM     35  O   UNL     1      30.138  -5.715 -21.381  0.00  0.00    -0.303 OA
ATOM     36  H   UNL     1      29.978  -6.622 -21.078  0.00  0.00    +0.222 HD
ENDBRANCH  31  35
ENDBRANCH  30  31
ENDBRANCH  29  30
ENDBRANCH   2  29
TORSDOF 9
ENDMDL
MODEL 2
REMARK VINA RESULT:     -11.8      5.158     11.856
REMARK  Name = 72696796
REMARK  9 active torsions:
REMARK  status: ('A' for Active; 'I' for Inactive)
REMARK    1  A    between atoms: N_2  and  C_29
REMARK    2  A    between atoms: C_10  and  C_12
REMARK    3  A    between atoms: C_13  and  C_16
REMARK    4  A    between atoms: N_15  and  C_18
REMARK    5  A    between atoms: C_18  and  C_20
REMARK    6  A    between atoms: C_29  and  O_30
REMARK    7  A    between atoms: O_30  and  P_31
REMARK    8  A    between atoms: P_31  and  O_33
REMARK    9  A    between atoms: P_31  and  O_35
REMARK                            x       y       z     vdW  Elec       q    Type
REMARK                         _______ _______ _______ _____ _____    ______ ____
ROOT
ATOM      1  O   UNL     1      35.680 -23.783 -15.780  0.00  0.00    -0.274 OA
ATOM      2  N   UNL     1      34.362 -22.823 -17.444  0.00  0.00    -0.217 N 
ATOM      3  N   UNL     1      33.061 -21.718 -19.140  0.00  0.00    -0.229 NA
ATOM      4  C   UNL     1      36.786 -21.826 -18.564  0.00  0.00    +0.039 C 
ATOM      5  C   UNL     1      35.455 -21.448 -19.132  0.00  0.00    +0.010 C 
ATOM      6  C   UNL     1      36.667 -22.043 -17.070  0.00  0.00    +0.090 C 
ATOM      7  C   UNL     1      34.278 -21.970 -18.591  0.00  0.00    +0.135 C 
ATOM      8  C   UNL     1      35.542 -22.994 -16.717  0.00  0.00    +0.233 C 
ATOM      9  C   UNL     1      35.365 -20.641 -20.270  0.00  0.00    +0.000 C 
ATOM     10  C   UNL     1      34.126 -20.362 -20.829  0.00  0.00    +0.019 C 
ATOM     11  C   UNL     1      33.014 -20.922 -20.231  0.00  0.00    +0.100 C 
ENDROOT
BRANCH  10  12
ATOM     12  C   UNL     1      34.001 -19.502 -21.991  0.00  0.00    +0.006 C 
ATOM     13  C   UNL     1      34.867 -18.519 -22.334  0.00  0.00    +0.058 C 
BRANCH  13  16
ATOM     14  O   UNL     1      34.442 -18.215 -24.637  0.00  0.00    -0.270 OA
ATOM     15  N   UNL     1      34.553 -16.298 -23.327  0.00  0.00    -0.267 N 
ATOM     16  C   UNL     1      34.611 -17.678 -23.540  0.00  0.00    +0.250 C 
ATOM     17  C   UNL     1      34.276 -15.411 -24.450  0.00  0.00    +0.116 C 
BRANCH  15  18
ATOM     18  C   UNL     1      34.715 -15.640 -22.032  0.00  0.00    +0.158 C 
BRANCH  18  20
ATOM     19  O   UNL     1      34.007 -13.470 -22.856  0.00  0.00    -0.456 OA
ATOM     20  C   UNL     1      33.839 -14.427 -21.905  0.00  0.00    +0.139 A 
ATOM     21  C   UNL     1      32.867 -14.054 -21.007  0.00  0.00    +0.013 A 
ATOM     22  C   UNL     1      32.400 -12.781 -21.426  0.00  0.00    +0.033 A 
ATOM     23  C   UNL     1      33.133 -12.466 -22.566  0.00  0.00    +0.145 A 
ATOM     24  C   UNL     1      32.404 -14.828 -19.839  0.00  0.00    +0.034 C 
ATOM     25  C   UNL     1      31.441 -11.861 -20.969  0.00  0.00    +0.003 C 
ATOM     26  C   UNL     1      32.978 -11.288 -23.294  0.00  0.00    +0.037 C 
ATOM     27  C   UNL     1      31.262 -10.666 -21.680  0.00  0.00    +0.000 C 
ATOM     28  C   UNL     1      32.019 -10.387 -22.821  0.00  0.00    +0.003 C 
ENDBRANCH  18  20
ENDBRANCH  15  18
ENDBRANCH  13  16
ENDBRANCH  10  12
BRANCH   2  29
ATOM     29  C   UNL     1      33.150 -23.533 -17.051  0.00  0.00    +0.257 C 
BRANCH  29  30
ATOM     30  O   UNL     1      32.589 -22.891 -15.921  0.00  0.00    -0.251 OA
BRANCH  30  31
ATOM     31  P   UNL     1      32.098 -23.807 -14.680  0.00  0.00    +0.475 P 
ATOM     32  O   UNL     1      30.873 -24.637 -14.933  0.00  0.00    -0.227 OA
BRANCH  31  33
ATOM     33  O   UNL     1      31.967 -22.747 -13.466  0.00  0.00    -0.303 OA
ATOM     34  H   UNL     1      32.616 -22.962 -12.777  0.00  0.00    +0.222 HD
ENDBRANCH  31  33
BRANCH  31  35
ATOM     35  O   UNL     1      33.419 -24.654 -14.284  0.00  0.00    -0.303 OA
ATOM     36  H   UNL     1      33.347 -24.955 -13.364  0.00  0.00    +0.222 HD
ENDBRANCH  31  35
ENDBRANCH  30  31
ENDBRANCH  29  30
ENDBRANCH   2  29
TORSDOF 9
ENDMDL
MODEL 3
REMARK VINA RESULT:     -11.6      5.659     12.343
REMARK  Name = 72696796
REMARK  9 active torsions:
REMARK  status: ('A' for Active; 'I' for Inactive)
REMARK    1  A    between atoms: N_2  and  C_29
REMARK    2  A    between atoms: C_10  and  C_12
REMARK    3  A    between atoms: C_13  and  C_16
REMARK    4  A    between atoms: N_15  and  C_18
REMARK    5  A    between atoms: C_18  and  C_20
REMARK    6  A    between atoms: C_29  and  O_30
REMARK    7  A    between atoms: O_30  and  P_31
REMARK    8  A    between atoms: P_31  and  O_33
REMARK    9  A    between atoms: P_31  and  O_35
REMARK                            x       y       z     vdW  Elec       q    Type
REMARK                         _______ _______ _______ _____ _____    ______ ____
ROOT
ATOM      1  O   UNL     1      34.642 -24.000 -14.824  0.00  0.00    -0.274 OA
ATOM      2  N   UNL     1      35.560 -22.684 -16.513  0.00  0.00    -0.217 N 
ATOM      3  N   UNL     1      36.461 -21.410 -18.345  0.00  0.00    -0.229 NA
ATOM      4  C   UNL     1      32.986 -22.744 -17.738  0.00  0.00    +0.039 C 
ATOM      5  C   UNL     1      34.156 -22.109 -18.419  0.00  0.00    +0.010 C 
ATOM      6  C   UNL     1      33.454 -23.906 -16.885  0.00  0.00    +0.090 C 
ATOM      7  C   UNL     1      35.404 -22.060 -17.792  0.00  0.00    +0.135 C 
ATOM      8  C   UNL     1      34.585 -23.515 -15.956  0.00  0.00    +0.233 C 
ATOM      9  C   UNL     1      34.005 -21.470 -19.654  0.00  0.00    +0.000 C 
ATOM     10  C   UNL     1      35.084 -20.819 -20.237  0.00  0.00    +0.019 C 
ATOM     11  C   UNL     1      36.279 -20.817 -19.546  0.00  0.00    +0.100 C 
ENDROOT
BRANCH  10  12
ATOM     12  C   UNL     1      34.963 -20.175 -21.531  0.00  0.00    +0.006 C 
ATOM     13  C   UNL     1      34.693 -18.863 -21.731  0.00  0.00    +0.058 C 
BRANCH  13  16
ATOM     14  O   UNL     1      34.196 -19.066 -24.030  0.00  0.00    -0.270 OA
ATOM     15  N   UNL     1      34.843 -16.964 -23.277  0.00  0.00    -0.267 N 
ATOM     16  C   UNL     1      34.561 -18.323 -23.116  0.00  0.00    +0.250 C 
ATOM     17  C   UNL     1      34.707 -16.357 -24.595  0.00  0.00    +0.116 C 
BRANCH  15  18
ATOM     18  C   UNL     1      35.243 -16.056 -22.204  0.00  0.00    +0.158 C 
BRANCH  18  20
ATOM     19  O   UNL     1      34.503 -13.941 -23.136  0.00  0.00    -0.456 OA
ATOM     20  C   UNL     1      34.356 -14.846 -22.134  0.00  0.00    +0.139 A 
ATOM     21  C   UNL     1      33.390 -14.435 -21.245  0.00  0.00    +0.013 A 
ATOM     22  C   UNL     1      32.904 -13.192 -21.727  0.00  0.00    +0.033 A 
ATOM     23  C   UNL     1      33.621 -12.932 -22.891  0.00  0.00    +0.145 A 
ATOM     24  C   UNL     1      32.948 -15.150 -20.032  0.00  0.00    +0.034 C 
ATOM     25  C   UNL     1      31.940 -12.258 -21.309  0.00  0.00    +0.003 C 
ATOM     26  C   UNL     1      33.445 -11.797 -23.679  0.00  0.00    +0.037 C 
ATOM     27  C   UNL     1      31.740 -11.106 -22.082  0.00  0.00    +0.000 C 
ATOM     28  C   UNL     1      32.481 -10.881 -23.245  0.00  0.00    +0.003 C 
ENDBRANCH  18  20
ENDBRANCH  15  18
ENDBRANCH  13  16
ENDBRANCH  10  12
BRANCH   2  29
ATOM     29  C   UNL     1      36.796 -22.415 -15.787  0.00  0.00    +0.257 C 
BRANCH  29  30
ATOM     30  O   UNL     1      37.716 -23.458 -16.046  0.00  0.00    -0.251 OA
BRANCH  30  31
ATOM     31  P   UNL     1      38.136 -24.437 -14.827  0.00  0.00    +0.475 P 
ATOM     32  O   UNL     1      39.604 -24.722 -14.703  0.00  0.00    -0.227 OA
BRANCH  31  33
ATOM     33  O   UNL     1      37.203 -25.737 -15.058  0.00  0.00    -0.303 OA
ATOM     34  H   UNL     1      36.719 -25.644 -15.893  0.00  0.00    +0.222 HD
ENDBRANCH  31  33
BRANCH  31  35
ATOM     35  O   UNL     1      37.470 -23.736 -13.529  0.00  0.00    -0.303 OA
ATOM     36  H   UNL     1      37.029 -24.409 -12.988  0.00  0.00    +0.222 HD
ENDBRANCH  31  35
ENDBRANCH  30  31
ENDBRANCH  29  30
ENDBRANCH   2  29
TORSDOF 9
ENDMDL
MODEL 4
REMARK VINA RESULT:     -11.5      1.682      2.913
REMARK  Name = 72696796
REMARK  9 active torsions:
REMARK  status: ('A' for Active; 'I' for Inactive)
REMARK    1  A    between atoms: N_2  and  C_29
REMARK    2  A    between atoms: C_10  and  C_12
REMARK    3  A    between atoms: C_13  and  C_16
REMARK    4  A    between atoms: N_15  and  C_18
REMARK    5  A    between atoms: C_18  and  C_20
REMARK    6  A    between atoms: C_29  and  O_30
REMARK    7  A    between atoms: O_30  and  P_31
REMARK    8  A    between atoms: P_31  and  O_33
REMARK    9  A    between atoms: P_31  and  O_35
REMARK                            x       y       z     vdW  Elec       q    Type
REMARK                         _______ _______ _______ _____ _____    ______ ____
ROOT
ATOM      1  O   UNL     1      33.567  -6.703 -21.972  0.00  0.00    -0.274 OA
ATOM      2  N   UNL     1      32.753  -8.886 -21.955  0.00  0.00    -0.217 N 
ATOM      3  N   UNL     1      31.916 -11.139 -22.068  0.00  0.00    -0.229 NA
ATOM      4  C   UNL     1      34.927  -9.539 -23.679  0.00  0.00    +0.039 C 
ATOM      5  C   UNL     1      33.875 -10.547 -23.338  0.00  0.00    +0.010 C 
ATOM      6  C   UNL     1      34.322  -8.150 -23.704  0.00  0.00    +0.090 C 
ATOM      7  C   UNL     1      32.833 -10.220 -22.467  0.00  0.00    +0.135 C 
ATOM      8  C   UNL     1      33.543  -7.842 -22.442  0.00  0.00    +0.233 C 
ATOM      9  C   UNL     1      33.963 -11.860 -23.809  0.00  0.00    +0.000 C 
ATOM     10  C   UNL     1      33.021 -12.803 -23.422  0.00  0.00    +0.019 C 
ATOM     11  C   UNL     1      32.026 -12.394 -22.556  0.00  0.00    +0.100 C 
ENDROOT
BRANCH  10  12
ATOM     12  C   UNL     1      33.070 -14.164 -23.920  0.00  0.00    +0.006 C 
ATOM     13  C   UNL     1      34.124 -15.005 -23.797  0.00  0.00    +0.058 C 
BRANCH  13  16
ATOM     14  O   UNL     1      33.582 -16.543 -25.504  0.00  0.00    -0.270 OA
ATOM     15  N   UNL     1      34.606 -17.403 -23.603  0.00  0.00    -0.267 N 
ATOM     16  C   UNL     1      34.066 -16.377 -24.383  0.00  0.00    +0.250 C 
ATOM     17  C   UNL     1      34.614 -18.766 -24.119  0.00  0.00    +0.116 C 
BRANCH  15  18
ATOM     18  C   UNL     1      35.217 -17.226 -22.287  0.00  0.00    +0.158 C 
BRANCH  18  20
ATOM     19  O   UNL     1      33.982 -18.980 -21.152  0.00  0.00    -0.456 OA
ATOM     20  C   UNL     1      35.207 -18.498 -21.488  0.00  0.00    +0.139 A 
ATOM     21  C   UNL     1      36.202 -19.315 -21.004  0.00  0.00    +0.013 A 
ATOM     22  C   UNL     1      35.552 -20.376 -20.320  0.00  0.00    +0.033 A 
ATOM     23  C   UNL     1      34.189 -20.123 -20.440  0.00  0.00    +0.145 A 
ATOM     24  C   UNL     1      37.656 -19.124 -21.166  0.00  0.00    +0.034 C 
ATOM     25  C   UNL     1      35.964 -21.519 -19.614  0.00  0.00    +0.003 C 
ATOM     26  C   UNL     1      33.194 -20.937 -19.901  0.00  0.00    +0.037 C 
ATOM     27  C   UNL     1      34.986 -22.357 -19.061  0.00  0.00    +0.000 C 
ATOM     28  C   UNL     1      33.626 -22.068 -19.203  0.00  0.00    +0.003 C 
ENDBRANCH  18  20
ENDBRANCH  15  18
ENDBRANCH  13  16
ENDBRANCH  10  12
BRANCH   2  29
ATOM     29  C   UNL     1      31.802  -8.642 -20.875  0.00  0.00    +0.257 C 
BRANCH  29  30
ATOM     30  O   UNL     1      32.432  -8.918 -19.639  0.00  0.00    -0.251 OA
BRANCH  30  31
ATOM     31  P   UNL     1      31.821 -10.094 -18.709  0.00  0.00    +0.475 P 
ATOM     32  O   UNL     1      32.002  -9.909 -17.230  0.00  0.00    -0.227 OA
BRANCH  31  33
ATOM     33  O   UNL     1      32.490 -11.433 -19.318  0.00  0.00    -0.303 OA
ATOM     34  H   UNL     1      32.602 -12.089 -18.611  0.00  0.00    +0.222 HD
ENDBRANCH  31  33
BRANCH  31  35
ATOM     35  O   UNL     1      30.281 -10.203 -19.193  0.00  0.00    -0.303 OA
ATOM     36  H   UNL     1      30.238 -10.689 -20.031  0.00  0.00    +0.222 HD
ENDBRANCH  31  35
ENDBRANCH  30  31
ENDBRANCH  29  30
ENDBRANCH   2  29
TORSDOF 9
ENDMDL
MODEL 5
REMARK VINA RESULT:     -11.4      1.137      2.125
REMARK  Name = 72696796
REMARK  9 active torsions:
REMARK  status: ('A' for Active; 'I' for Inactive)
REMARK    1  A    between atoms: N_2  and  C_29
REMARK    2  A    between atoms: C_10  and  C_12
REMARK    3  A    between atoms: C_13  and  C_16
REMARK    4  A    between atoms: N_15  and  C_18
REMARK    5  A    between atoms: C_18  and  C_20
REMARK    6  A    between atoms: C_29  and  O_30
REMARK    7  A    between atoms: O_30  and  P_31
REMARK    8  A    between atoms: P_31  and  O_33
REMARK    9  A    between atoms: P_31  and  O_35
REMARK                            x       y       z     vdW  Elec       q    Type
REMARK                         _______ _______ _______ _____ _____    ______ ____
ROOT
ATOM      1  O   UNL     1      34.517  -6.715 -22.547  0.00  0.00    -0.274 OA
ATOM      2  N   UNL     1      33.425  -8.768 -22.408  0.00  0.00    -0.217 N 
ATOM      3  N   UNL     1      32.304 -10.897 -22.394  0.00  0.00    -0.229 NA
ATOM      4  C   UNL     1      35.535  -9.818 -24.011  0.00  0.00    +0.039 C 
ATOM      5  C   UNL     1      34.353 -10.655 -23.637  0.00  0.00    +0.010 C 
ATOM      6  C   UNL     1      35.117  -8.368 -24.151  0.00  0.00    +0.090 C 
ATOM      7  C   UNL     1      33.343 -10.135 -22.825  0.00  0.00    +0.135 C 
ATOM      8  C   UNL     1      34.356  -7.872 -22.939  0.00  0.00    +0.233 C 
ATOM      9  C   UNL     1      34.280 -11.999 -24.014  0.00  0.00    +0.000 C 
ATOM     10  C   UNL     1      33.214 -12.783 -23.595  0.00  0.00    +0.019 C 
ATOM     11  C   UNL     1      32.260 -12.189 -22.791  0.00  0.00    +0.100 C 
ENDROOT
BRANCH  10  12
ATOM     12  C   UNL     1      33.097 -14.172 -23.996  0.00  0.00    +0.006 C 
ATOM     13  C   UNL     1      34.104 -15.077 -23.987  0.00  0.00    +0.058 C 
BRANCH  13  16
ATOM     14  O   UNL     1      33.232 -16.670 -25.496  0.00  0.00    -0.270 OA
ATOM     15  N   UNL     1      34.419 -17.490 -23.674  0.00  0.00    -0.267 N 
ATOM     16  C   UNL     1      33.866 -16.473 -24.457  0.00  0.00    +0.250 C 
ATOM     17  C   UNL     1      34.256 -18.879 -24.084  0.00  0.00    +0.116 C 
BRANCH  15  18
ATOM     18  C   UNL     1      35.203 -17.281 -22.458  0.00  0.00    +0.158 C 
BRANCH  18  20
ATOM     19  O   UNL     1      34.037 -19.009 -21.215  0.00  0.00    -0.456 OA
ATOM     20  C   UNL     1      35.242 -18.512 -21.598  0.00  0.00    +0.139 A 
ATOM     21  C   UNL     1      36.267 -19.277 -21.092  0.00  0.00    +0.013 A 
ATOM     22  C   UNL     1      35.659 -20.320 -20.346  0.00  0.00    +0.033 A 
ATOM     23  C   UNL     1      34.288 -20.110 -20.452  0.00  0.00    +0.145 A 
ATOM     24  C   UNL     1      37.713 -19.055 -21.290  0.00  0.00    +0.034 C 
ATOM     25  C   UNL     1      36.114 -21.415 -19.592  0.00  0.00    +0.003 C 
ATOM     26  C   UNL     1      33.325 -20.922 -19.856  0.00  0.00    +0.037 C 
ATOM     27  C   UNL     1      35.169 -22.250 -18.980  0.00  0.00    +0.000 C 
ATOM     28  C   UNL     1      33.800 -22.005 -19.111  0.00  0.00    +0.003 C 
ENDBRANCH  18  20
ENDBRANCH  15  18
ENDBRANCH  13  16
ENDBRANCH  10  12
BRANCH   2  29
ATOM     29  C   UNL     1      32.488  -8.327 -21.379  0.00  0.00    +0.257 C 
BRANCH  29  30
ATOM     30  O   UNL     1      31.411  -7.651 -22.000  0.00  0.00    -0.251 OA
BRANCH  30  31
ATOM     31  P   UNL     1      31.301  -6.047 -21.819  0.00  0.00    +0.475 P 
ATOM     32  O   UNL     1      29.973  -5.539 -21.338  0.00  0.00    -0.227 OA
BRANCH  31  33
ATOM     33  O   UNL     1      31.770  -5.478 -23.258  0.00  0.00    -0.303 OA
ATOM     34  H   UNL     1      32.693  -5.730 -23.421  0.00  0.00    +0.222 HD
ENDBRANCH  31  33
BRANCH  31  35
ATOM     35  O   UNL     1      32.552  -5.684 -20.859  0.00  0.00    -0.303 OA
ATOM     36  H   UNL     1      32.708  -4.727 -20.877  0.00  0.00    +0.222 HD
ENDBRANCH  31  35
ENDBRANCH  30  31
ENDBRANCH  29  30
ENDBRANCH   2  29
TORSDOF 9
ENDMDL
MODEL 6
REMARK VINA RESULT:     -10.7      5.474     12.010
REMARK  Name = 72696796
REMARK  9 active torsions:
REMARK  status: ('A' for Active; 'I' for Inactive)
REMARK    1  A    between atoms: N_2  and  C_29
REMARK    2  A    between atoms: C_10  and  C_12
REMARK    3  A    between atoms: C_13  and  C_16
REMARK    4  A    between atoms: N_15  and  C_18
REMARK    5  A    between atoms: C_18  and  C_20
REMARK    6  A    between atoms: C_29  and  O_30
REMARK    7  A    between atoms: O_30  and  P_31
REMARK    8  A    between atoms: P_31  and  O_33
REMARK    9  A    between atoms: P_31  and  O_35
REMARK                            x       y       z     vdW  Elec       q    Type
REMARK                         _______ _______ _______ _____ _____    ______ ____
ROOT
ATOM      1  O   UNL     1      33.590 -24.529 -14.155  0.00  0.00    -0.274 OA
ATOM      2  N   UNL     1      33.104 -23.544 -16.209  0.00  0.00    -0.217 N 
ATOM      3  N   UNL     1      32.667 -22.420 -18.292  0.00  0.00    -0.229 NA
ATOM      4  C   UNL     1      35.889 -22.969 -16.410  0.00  0.00    +0.039 C 
ATOM      5  C   UNL     1      34.916 -22.467 -17.430  0.00  0.00    +0.010 C 
ATOM      6  C   UNL     1      35.220 -23.046 -15.053  0.00  0.00    +0.090 C 
ATOM      7  C   UNL     1      33.559 -22.784 -17.334  0.00  0.00    +0.135 C 
ATOM      8  C   UNL     1      33.913 -23.808 -15.101  0.00  0.00    +0.233 C 
ATOM      9  C   UNL     1      35.357 -21.752 -18.548  0.00  0.00    +0.000 C 
ATOM     10  C   UNL     1      34.451 -21.359 -19.523  0.00  0.00    +0.019 C 
ATOM     11  C   UNL     1      33.128 -21.717 -19.350  0.00  0.00    +0.100 C 
ENDROOT
BRANCH  10  12
ATOM     12  C   UNL     1      34.875 -20.589 -20.677  0.00  0.00    +0.006 C 
ATOM     13  C   UNL     1      34.389 -19.375 -21.030  0.00  0.00    +0.058 C 
BRANCH  13  16
ATOM     14  O   UNL     1      35.071 -19.350 -23.290  0.00  0.00    -0.270 OA
ATOM     15  N   UNL     1      35.081 -17.315 -22.168  0.00  0.00    -0.267 N 
ATOM     16  C   UNL     1      34.884 -18.695 -22.263  0.00  0.00    +0.250 C 
ATOM     17  C   UNL     1      35.534 -16.574 -23.339  0.00  0.00    +0.116 C 
BRANCH  15  18
ATOM     18  C   UNL     1      34.832 -16.511 -20.973  0.00  0.00    +0.158 C 
BRANCH  18  20
ATOM     19  O   UNL     1      34.612 -14.552 -22.388  0.00  0.00    -0.456 OA
ATOM     20  C   UNL     1      34.143 -15.217 -21.300  0.00  0.00    +0.139 A 
ATOM     21  C   UNL     1      33.102 -14.530 -20.721  0.00  0.00    +0.013 A 
ATOM     22  C   UNL     1      32.911 -13.359 -21.501  0.00  0.00    +0.033 A 
ATOM     23  C   UNL     1      33.864 -13.420 -22.512  0.00  0.00    +0.145 A 
ATOM     24  C   UNL     1      32.337 -14.934 -19.526  0.00  0.00    +0.034 C 
ATOM     25  C   UNL     1      32.040 -12.257 -21.463  0.00  0.00    +0.003 C 
ATOM     26  C   UNL     1      34.015 -12.450 -23.502  0.00  0.00    +0.037 C 
ATOM     27  C   UNL     1      32.168 -11.265 -22.446  0.00  0.00    +0.000 C 
ATOM     28  C   UNL     1      33.139 -11.362 -23.446  0.00  0.00    +0.003 C 
ENDBRANCH  18  20
ENDBRANCH  15  18
ENDBRANCH  13  16
ENDBRANCH  10  12
BRANCH   2  29
ATOM     29  C   UNL     1      31.738 -24.054 -16.258  0.00  0.00    +0.257 C 
BRANCH  29  30
ATOM     30  O   UNL     1      30.969 -23.398 -15.267  0.00  0.00    -0.251 OA
BRANCH  30  31
ATOM     31  P   UNL     1      29.359 -23.384 -15.427  0.00  0.00    +0.475 P 
ATOM     32  O   UNL     1      28.659 -24.656 -15.045  0.00  0.00    -0.227 OA
BRANCH  31  33
ATOM     33  O   UNL     1      29.142 -22.918 -16.960  0.00  0.00    -0.303 OA
ATOM     34  H   UNL     1      29.300 -21.963 -17.033  0.00  0.00    +0.222 HD
ENDBRANCH  31  33
BRANCH  31  35
ATOM     35  O   UNL     1      28.902 -22.081 -14.581  0.00  0.00    -0.303 OA
ATOM     36  H   UNL     1      29.567 -21.886 -13.903  0.00  0.00    +0.222 HD
ENDBRANCH  31  35
ENDBRANCH  30  31
ENDBRANCH  29  30
ENDBRANCH   2  29
TORSDOF 9
ENDMDL
MODEL 7
REMARK VINA RESULT:     -10.2      6.713     12.538
REMARK  Name = 72696796
REMARK  9 active torsions:
REMARK  status: ('A' for Active; 'I' for Inactive)
REMARK    1  A    between atoms: N_2  and  C_29
REMARK    2  A    between atoms: C_10  and  C_12
REMARK    3  A    between atoms: C_13  and  C_16
REMARK    4  A    between atoms: N_15  and  C_18
REMARK    5  A    between atoms: C_18  and  C_20
REMARK    6  A    between atoms: C_29  and  O_30
REMARK    7  A    between atoms: O_30  and  P_31
REMARK    8  A    between atoms: P_31  and  O_33
REMARK    9  A    between atoms: P_31  and  O_35
REMARK                            x       y       z     vdW  Elec       q    Type
REMARK                         _______ _______ _______ _____ _____    ______ ____
ROOT
ATOM      1  O   UNL     1      30.443 -25.708 -13.031  0.00  0.00    -0.274 OA
ATOM      2  N   UNL     1      31.184 -24.680 -14.987  0.00  0.00    -0.217 N 
ATOM      3  N   UNL     1      32.000 -23.524 -16.932  0.00  0.00    -0.229 NA
ATOM      4  C   UNL     1      33.761 -24.588 -13.772  0.00  0.00    +0.039 C 
ATOM      5  C   UNL     1      33.502 -23.941 -15.096  0.00  0.00    +0.010 C 
ATOM      6  C   UNL     1      32.511 -24.534 -12.918  0.00  0.00    +0.090 C 
ATOM      7  C   UNL     1      32.241 -24.022 -15.692  0.00  0.00    +0.135 C 
ATOM      8  C   UNL     1      31.294 -25.064 -13.648  0.00  0.00    +0.233 C 
ATOM      9  C   UNL     1      34.537 -23.324 -15.805  0.00  0.00    +0.000 C 
ATOM     10  C   UNL     1      34.297 -22.795 -17.066  0.00  0.00    +0.019 C 
ATOM     11  C   UNL     1      33.022 -22.921 -17.581  0.00  0.00    +0.100 C 
ENDROOT
BRANCH  10  12
ATOM     12  C   UNL     1      35.345 -22.122 -17.811  0.00  0.00    +0.006 C 
ATOM     13  C   UNL     1      35.230 -21.659 -19.078  0.00  0.00    +0.058 C 
BRANCH  13  16
ATOM     14  O   UNL     1      37.541 -21.341 -19.442  0.00  0.00    -0.270 OA
ATOM     15  N   UNL     1      36.089 -20.065 -20.733  0.00  0.00    -0.267 N 
ATOM     16  C   UNL     1      36.394 -21.011 -19.751  0.00  0.00    +0.250 C 
ATOM     17  C   UNL     1      37.171 -19.410 -21.457  0.00  0.00    +0.116 C 
BRANCH  15  18
ATOM     18  C   UNL     1      34.738 -19.683 -21.141  0.00  0.00    +0.158 C 
BRANCH  18  20
ATOM     19  O   UNL     1      34.712 -17.306 -20.650  0.00  0.00    -0.456 OA
ATOM     20  C   UNL     1      34.678 -18.259 -21.618  0.00  0.00    +0.139 A 
ATOM     21  C   UNL     1      34.593 -17.685 -22.864  0.00  0.00    +0.013 A 
ATOM     22  C   UNL     1      34.573 -16.280 -22.658  0.00  0.00    +0.033 A 
ATOM     23  C   UNL     1      34.647 -16.100 -21.281  0.00  0.00    +0.145 A 
ATOM     24  C   UNL     1      34.536 -18.392 -24.158  0.00  0.00    +0.034 C 
ATOM     25  C   UNL     1      34.499 -15.144 -23.481  0.00  0.00    +0.003 C 
ATOM     26  C   UNL     1      34.654 -14.855 -20.655  0.00  0.00    +0.037 C 
ATOM     27  C   UNL     1      34.504 -13.877 -22.881  0.00  0.00    +0.000 C 
ATOM     28  C   UNL     1      34.579 -13.738 -21.493  0.00  0.00    +0.003 C 
ENDBRANCH  18  20
ENDBRANCH  15  18
ENDBRANCH  13  16
ENDBRANCH  10  12
BRANCH   2  29
ATOM     29  C   UNL     1      29.956 -24.951 -15.728  0.00  0.00    +0.257 C 
BRANCH  29  30
ATOM     30  O   UNL     1      28.889 -24.250 -15.118  0.00  0.00    -0.251 OA
BRANCH  30  31
ATOM     31  P   UNL     1      28.069 -23.172 -16.004  0.00  0.00    +0.475 P 
ATOM     32  O   UNL     1      27.087 -22.325 -15.248  0.00  0.00    -0.227 OA
BRANCH  31  33
ATOM     33  O   UNL     1      27.428 -24.073 -17.184  0.00  0.00    -0.303 OA
ATOM     34  H   UNL     1      26.690 -23.594 -17.592  0.00  0.00    +0.222 HD
ENDBRANCH  31  33
BRANCH  31  35
ATOM     35  O   UNL     1      29.230 -22.344 -16.768  0.00  0.00    -0.303 OA
ATOM     36  H   UNL     1      29.062 -22.356 -17.723  0.00  0.00    +0.222 HD
ENDBRANCH  31  35
ENDBRANCH  30  31
ENDBRANCH  29  30
ENDBRANCH   2  29
TORSDOF 9
ENDMDL
MODEL 8
REMARK VINA RESULT:     -10.0      9.601     14.210
REMARK  Name = 72696796
REMARK  9 active torsions:
REMARK  status: ('A' for Active; 'I' for Inactive)
REMARK    1  A    between atoms: N_2  and  C_29
REMARK    2  A    between atoms: C_10  and  C_12
REMARK    3  A    between atoms: C_13  and  C_16
REMARK    4  A    between atoms: N_15  and  C_18
REMARK    5  A    between atoms: C_18  and  C_20
REMARK    6  A    between atoms: C_29  and  O_30
REMARK    7  A    between atoms: O_30  and  P_31
REMARK    8  A    between atoms: P_31  and  O_33
REMARK    9  A    between atoms: P_31  and  O_35
REMARK                            x       y       z     vdW  Elec       q    Type
REMARK                         _______ _______ _______ _____ _____    ______ ____
ROOT
ATOM      1  O   UNL     1      36.431 -26.137 -10.885  0.00  0.00    -0.274 OA
ATOM      2  N   UNL     1      37.319 -24.996 -12.712  0.00  0.00    -0.217 N 
ATOM      3  N   UNL     1      38.131 -23.852 -14.667  0.00  0.00    -0.229 NA
ATOM      4  C   UNL     1      34.798 -23.680 -12.911  0.00  0.00    +0.039 C 
ATOM      5  C   UNL     1      35.869 -23.468 -13.934  0.00  0.00    +0.010 C 
ATOM      6  C   UNL     1      34.884 -25.089 -12.359  0.00  0.00    +0.090 C 
ATOM      7  C   UNL     1      37.109 -24.096 -13.805  0.00  0.00    +0.135 C 
ATOM      8  C   UNL     1      36.280 -25.434 -11.887  0.00  0.00    +0.233 C 
ATOM      9  C   UNL     1      35.683 -22.567 -14.987  0.00  0.00    +0.000 C 
ATOM     10  C   UNL     1      36.714 -22.324 -15.884  0.00  0.00    +0.019 C 
ATOM     11  C   UNL     1      37.909 -22.986 -15.681  0.00  0.00    +0.100 C 
ENDROOT
BRANCH  10  12
ATOM     12  C   UNL     1      36.539 -21.418 -17.004  0.00  0.00    +0.006 C 
ATOM     13  C   UNL     1      36.970 -21.643 -18.268  0.00  0.00    +0.058 C 
BRANCH  13  16
ATOM     14  O   UNL     1      37.358 -19.541 -19.270  0.00  0.00    -0.270 OA
ATOM     15  N   UNL     1      35.886 -20.969 -20.363  0.00  0.00    -0.267 N 
ATOM     16  C   UNL     1      36.758 -20.616 -19.330  0.00  0.00    +0.250 C 
ATOM     17  C   UNL     1      35.652 -20.031 -21.454  0.00  0.00    +0.116 C 
BRANCH  15  18
ATOM     18  C   UNL     1      35.191 -22.250 -20.475  0.00  0.00    +0.158 C 
BRANCH  18  20
ATOM     19  O   UNL     1      34.474 -23.431 -18.479  0.00  0.00    -0.456 OA
ATOM     20  C   UNL     1      34.192 -22.444 -19.370  0.00  0.00    +0.139 A 
ATOM     21  C   UNL     1      33.010 -21.820 -19.046  0.00  0.00    +0.013 A 
ATOM     22  C   UNL     1      32.525 -22.462 -17.877  0.00  0.00    +0.033 A 
ATOM     23  C   UNL     1      33.460 -23.445 -17.570  0.00  0.00    +0.145 A 
ATOM     24  C   UNL     1      32.375 -20.704 -19.773  0.00  0.00    +0.034 C 
ATOM     25  C   UNL     1      31.399 -22.322 -17.046  0.00  0.00    +0.003 C 
ATOM     26  C   UNL     1      33.356 -24.309 -16.481  0.00  0.00    +0.037 C 
ATOM     27  C   UNL     1      31.267 -23.177 -15.943  0.00  0.00    +0.000 C 
ATOM     28  C   UNL     1      32.230 -24.152 -15.668  0.00  0.00    +0.003 C 
ENDBRANCH  18  20
ENDBRANCH  15  18
ENDBRANCH  13  16
ENDBRANCH  10  12
BRANCH   2  29
ATOM     29  C   UNL     1      38.685 -25.449 -12.473  0.00  0.00    +0.257 C 
BRANCH  29  30
ATOM     30  O   UNL     1      39.042 -26.378 -13.479  0.00  0.00    -0.251 OA
BRANCH  30  31
ATOM     31  P   UNL     1      40.501 -26.248 -14.166  0.00  0.00    +0.475 P 
ATOM     32  O   UNL     1      41.497 -27.302 -13.776  0.00  0.00    -0.227 OA
BRANCH  31  33
ATOM     33  O   UNL     1      40.941 -24.731 -13.818  0.00  0.00    -0.303 OA
ATOM     34  H   UNL     1      41.327 -24.702 -12.929  0.00  0.00    +0.222 HD
ENDBRANCH  31  33
BRANCH  31  35
ATOM     35  O   UNL     1      40.174 -26.179 -15.749  0.00  0.00    -0.303 OA
ATOM     36  H   UNL     1      40.795 -26.745 -16.233  0.00  0.00    +0.222 HD
ENDBRANCH  31  35
ENDBRANCH  30  31
ENDBRANCH  29  30
ENDBRANCH   2  29
TORSDOF 9
ENDMDL
MODEL 9
REMARK VINA RESULT:      -9.7      7.424     13.881
REMARK  Name = 72696796
REMARK  9 active torsions:
REMARK  status: ('A' for Active; 'I' for Inactive)
REMARK    1  A    between atoms: N_2  and  C_29
REMARK    2  A    between atoms: C_10  and  C_12
REMARK    3  A    between atoms: C_13  and  C_16
REMARK    4  A    between atoms: N_15  and  C_18
REMARK    5  A    between atoms: C_18  and  C_20
REMARK    6  A    between atoms: C_29  and  O_30
REMARK    7  A    between atoms: O_30  and  P_31
REMARK    8  A    between atoms: P_31  and  O_33
REMARK    9  A    between atoms: P_31  and  O_35
REMARK                            x       y       z     vdW  Elec       q    Type
REMARK                         _______ _______ _______ _____ _____    ______ ____
ROOT
ATOM      1  O   UNL     1      37.452 -24.805 -10.590  0.00  0.00    -0.274 OA
ATOM      2  N   UNL     1      37.306 -24.110 -12.809  0.00  0.00    -0.217 N 
ATOM      3  N   UNL     1      37.067 -23.487 -15.121  0.00  0.00    -0.229 NA
ATOM      4  C   UNL     1      34.484 -24.013 -12.425  0.00  0.00    +0.039 C 
ATOM      5  C   UNL     1      35.094 -23.771 -13.769  0.00  0.00    +0.010 C 
ATOM      6  C   UNL     1      35.327 -25.000 -11.645  0.00  0.00    +0.090 C 
ATOM      7  C   UNL     1      36.481 -23.792 -13.934  0.00  0.00    +0.135 C 
ATOM      8  C   UNL     1      36.788 -24.602 -11.609  0.00  0.00    +0.233 C 
ATOM      9  C   UNL     1      34.297 -23.429 -14.866  0.00  0.00    +0.000 C 
ATOM     10  C   UNL     1      34.885 -23.133 -16.088  0.00  0.00    +0.019 C 
ATOM     11  C   UNL     1      36.263 -23.175 -16.162  0.00  0.00    +0.100 C 
ENDROOT
BRANCH  10  12
ATOM     12  C   UNL     1      34.080 -22.805 -17.250  0.00  0.00    +0.006 C 
ATOM     13  C   UNL     1      34.488 -22.047 -18.295  0.00  0.00    +0.058 C 
BRANCH  13  16
ATOM     14  O   UNL     1      32.492 -22.372 -19.514  0.00  0.00    -0.270 OA
ATOM     15  N   UNL     1      33.949 -20.742 -20.302  0.00  0.00    -0.267 N 
ATOM     16  C   UNL     1      33.553 -21.752 -19.421  0.00  0.00    +0.250 C 
ATOM     17  C   UNL     1      33.076 -20.375 -21.410  0.00  0.00    +0.116 C 
BRANCH  15  18
ATOM     18  C   UNL     1      35.185 -19.969 -20.193  0.00  0.00    +0.158 C 
BRANCH  18  20
ATOM     19  O   UNL     1      34.830 -17.569 -20.223  0.00  0.00    -0.456 OA
ATOM     20  C   UNL     1      35.108 -18.678 -20.957  0.00  0.00    +0.139 A 
ATOM     21  C   UNL     1      35.263 -18.357 -22.285  0.00  0.00    +0.013 A 
ATOM     22  C   UNL     1      35.068 -16.954 -22.384  0.00  0.00    +0.033 A 
ATOM     23  C   UNL     1      34.803 -16.518 -21.090  0.00  0.00    +0.145 A 
ATOM     24  C   UNL     1      35.573 -19.289 -23.386  0.00  0.00    +0.034 C 
ATOM     25  C   UNL     1      35.084 -16.007 -23.422  0.00  0.00    +0.003 C 
ATOM     26  C   UNL     1      34.552 -15.190 -20.750  0.00  0.00    +0.037 C 
ATOM     27  C   UNL     1      34.835 -14.663 -23.111  0.00  0.00    +0.000 C 
ATOM     28  C   UNL     1      34.573 -14.265 -21.798  0.00  0.00    +0.003 C 
ENDBRANCH  18  20
ENDBRANCH  15  18
ENDBRANCH  13  16
ENDBRANCH  10  12
BRANCH   2  29
ATOM     29  C   UNL     1      38.742 -23.895 -12.954  0.00  0.00    +0.257 C 
BRANCH  29  30
ATOM     30  O   UNL     1      39.388 -25.152 -13.032  0.00  0.00    -0.251 OA
BRANCH  30  31
ATOM     31  P   UNL     1      39.769 -25.732 -14.494  0.00  0.00    +0.475 P 
ATOM     32  O   UNL     1      41.002 -26.587 -14.550  0.00  0.00    -0.227 OA
BRANCH  31  33
ATOM     33  O   UNL     1      39.814 -24.406 -15.419  0.00  0.00    -0.303 OA
ATOM     34  H   UNL     1      39.067 -24.418 -16.038  0.00  0.00    +0.222 HD
ENDBRANCH  31  33
BRANCH  31  35
ATOM     35  O   UNL     1      38.412 -26.469 -14.978  0.00  0.00    -0.303 OA
ATOM     36  H   UNL     1      38.616 -27.377 -15.250  0.00  0.00    +0.222 HD
ENDBRANCH  31  35
ENDBRANCH  30  31
ENDBRANCH  29  30
ENDBRANCH   2  29
TORSDOF 9
ENDMDL
