MODEL 1
REMARK VINA RESULT:     -12.2      0.000      0.000
REMARK  Name = 3151
REMARK  5 active torsions:
REMARK  status: ('A' for Active; 'I' for Inactive)
REMARK    1  A    between atoms: N_1  and  C_20
REMARK    2  A    between atoms: C_2  and  N_10
REMARK    3  A    between atoms: C_20  and  C_21
REMARK    4  A    between atoms: C_21  and  C_22
REMARK    5  A    between atoms: C_22  and  N_24
REMARK                            x       y       z     vdW  Elec       q    Type
REMARK                         _______ _______ _______ _____ _____    ______ ____
ROOT
ATOM      1  N   UNL     1      35.128 -16.059 -23.316  0.00  0.00    +0.387 N 
ATOM      2  C   UNL     1      34.865 -18.389 -21.568  0.00  0.00    +0.086 C 
ATOM      3  C   UNL     1      35.227 -17.004 -21.032  0.00  0.00    -0.000 C 
ATOM      4  C   UNL     1      35.274 -18.512 -23.035  0.00  0.00    -0.000 C 
ATOM      5  C   UNL     1      34.668 -15.899 -21.929  0.00  0.00    -0.075 C 
ATOM      6  C   UNL     1      34.713 -17.357 -23.866  0.00  0.00    -0.075 C 
ATOM      7  H   UNL     1      36.146 -16.029 -23.316  0.00  0.00    -0.080 HD
ENDROOT
BRANCH   2  10
ATOM      8 CL   UNL     1      33.388 -23.916 -17.649  0.00  0.00    -0.082 Cl
ATOM      9  O   UNL     1      37.793 -18.929 -20.963  0.00  0.00    -0.247 OA
ATOM     10  N   UNL     1      35.476 -19.424 -20.770  0.00  0.00    -0.282 N 
ATOM     11  N   UNL     1      36.969 -20.749 -19.697  0.00  0.00    -0.305 N 
ATOM     12  C   UNL     1      34.763 -20.423 -20.094  0.00  0.00    +0.079 A 
ATOM     13  C   UNL     1      36.866 -19.605 -20.538  0.00  0.00    +0.328 A 
ATOM     14  C   UNL     1      35.687 -21.233 -19.437  0.00  0.00    +0.077 A 
ATOM     15  C   UNL     1      33.407 -20.665 -20.016  0.00  0.00    +0.020 C 
ATOM     16  C   UNL     1      35.309 -22.317 -18.675  0.00  0.00    +0.030 C 
ATOM     17  C   UNL     1      32.998 -21.760 -19.247  0.00  0.00    +0.013 C 
ATOM     18  C   UNL     1      33.939 -22.576 -18.585  0.00  0.00    +0.059 C 
ATOM     19  H   UNL     1      37.807 -21.135 -19.356  0.00  0.00    +0.170 HD
ENDBRANCH   2  10
BRANCH   1  20
ATOM     20  C   UNL     1      34.625 -14.966 -24.150  0.00  0.00    -0.075 C 
BRANCH  20  21
ATOM     21  C   UNL     1      34.226 -13.747 -23.315  0.00  0.00    +0.002 C 
BRANCH  21  22
ATOM     22  C   UNL     1      32.727 -13.455 -23.301  0.00  0.00    +0.108 C 
BRANCH  22  24
ATOM     23  O   UNL     1      32.028 -14.108 -20.438  0.00  0.00    -0.247 OA
ATOM     24  N   UNL     1      32.346 -12.575 -22.230  0.00  0.00    -0.280 N 
ATOM     25  N   UNL     1      31.716 -11.777 -20.197  0.00  0.00    -0.305 N 
ATOM     26  C   UNL     1      32.223 -11.178 -22.321  0.00  0.00    +0.079 A 
ATOM     27  C   UNL     1      32.031 -12.975 -20.898  0.00  0.00    +0.328 A 
ATOM     28  C   UNL     1      31.837 -10.696 -21.072  0.00  0.00    +0.076 A 
ATOM     29  C   UNL     1      32.421 -10.330 -23.391  0.00  0.00    +0.019 C 
ATOM     30  C   UNL     1      31.630  -9.357 -20.828  0.00  0.00    +0.019 C 
ATOM     31  C   UNL     1      32.217  -8.965 -23.169  0.00  0.00    +0.002 C 
ATOM     32  C   UNL     1      31.827  -8.483 -21.901  0.00  0.00    +0.002 C 
ATOM     33  H   UNL     1      31.455 -11.719 -19.249  0.00  0.00    +0.170 HD
ENDBRANCH  22  24
ENDBRANCH  21  22
ENDBRANCH  20  21
ENDBRANCH   1  20
TORSDOF 5
ENDMDL
MODEL 2
REMARK VINA RESULT:     -11.6      3.711      6.321
REMARK  Name = 3151
REMARK  5 active torsions:
REMARK  status: ('A' for Active; 'I' for Inactive)
REMARK    1  A    between atoms: N_1  and  C_20
REMARK    2  A    between atoms: C_2  and  N_10
REMARK    3  A    between atoms: C_20  and  C_21
REMARK    4  A    between atoms: C_21  and  C_22
REMARK    5  A    between atoms: C_22  and  N_24
REMARK                            x       y       z     vdW  Elec       q    Type
REMARK                         _______ _______ _______ _____ _____    ______ ____
ROOT
ATOM      1  N   UNL     1      31.726 -10.594 -22.529  0.00  0.00    +0.387 N 
ATOM      2  C   UNL     1      33.407 -12.980 -22.728  0.00  0.00    +0.086 C 
ATOM      3  C   UNL     1      33.520 -11.818 -23.715  0.00  0.00    -0.000 C 
ATOM      4  C   UNL     1      32.009 -13.015 -22.110  0.00  0.00    -0.000 C 
ATOM      5  C   UNL     1      33.089 -10.499 -23.071  0.00  0.00    -0.075 C 
ATOM      6  C   UNL     1      31.630 -11.657 -21.518  0.00  0.00    -0.075 C 
ATOM      7  H   UNL     1      31.098 -10.831 -23.295  0.00  0.00    -0.080 HD
ENDROOT
BRANCH   2  10
ATOM      8 CL   UNL     1      36.010 -19.291 -21.513  0.00  0.00    -0.082 Cl
ATOM      9  O   UNL     1      33.067 -13.840 -25.622  0.00  0.00    -0.247 OA
ATOM     10  N   UNL     1      33.723 -14.231 -23.370  0.00  0.00    -0.282 N 
ATOM     11  N   UNL     1      33.989 -15.891 -24.891  0.00  0.00    -0.305 N 
ATOM     12  C   UNL     1      34.280 -15.337 -22.714  0.00  0.00    +0.079 A 
ATOM     13  C   UNL     1      33.529 -14.552 -24.741  0.00  0.00    +0.328 A 
ATOM     14  C   UNL     1      34.441 -16.353 -23.654  0.00  0.00    +0.077 A 
ATOM     15  C   UNL     1      34.643 -15.511 -21.394  0.00  0.00    +0.020 C 
ATOM     16  C   UNL     1      34.968 -17.583 -23.329  0.00  0.00    +0.030 C 
ATOM     17  C   UNL     1      35.182 -16.752 -21.040  0.00  0.00    +0.013 C 
ATOM     18  C   UNL     1      35.342 -17.776 -21.997  0.00  0.00    +0.059 C 
ATOM     19  H   UNL     1      33.988 -16.407 -25.729  0.00  0.00    +0.170 HD
ENDBRANCH   2  10
BRANCH   1  20
ATOM     20  C   UNL     1      31.311  -9.310 -21.961  0.00  0.00    -0.075 C 
BRANCH  20  21
ATOM     21  C   UNL     1      32.051  -8.996 -20.657  0.00  0.00    +0.002 C 
BRANCH  21  22
ATOM     22  C   UNL     1      32.194  -7.506 -20.356  0.00  0.00    +0.108 C 
BRANCH  22  24
ATOM     23  O   UNL     1      30.181  -5.567 -21.497  0.00  0.00    -0.247 OA
ATOM     24  N   UNL     1      32.269  -6.707 -21.549  0.00  0.00    -0.280 N 
ATOM     25  N   UNL     1      31.769  -5.248 -23.219  0.00  0.00    -0.305 N 
ATOM     26  C   UNL     1      33.346  -6.679 -22.450  0.00  0.00    +0.079 A 
ATOM     27  C   UNL     1      31.262  -5.812 -22.015  0.00  0.00    +0.328 A 
ATOM     28  C   UNL     1      33.033  -5.784 -23.471  0.00  0.00    +0.076 A 
ATOM     29  C   UNL     1      34.544  -7.364 -22.434  0.00  0.00    +0.019 C 
ATOM     30  C   UNL     1      33.890  -5.528 -24.518  0.00  0.00    +0.019 C 
ATOM     31  C   UNL     1      35.431  -7.121 -23.488  0.00  0.00    +0.002 C 
ATOM     32  C   UNL     1      35.108  -6.212 -24.518  0.00  0.00    +0.002 C 
ATOM     33  H   UNL     1      31.304  -4.589 -23.784  0.00  0.00    +0.170 HD
ENDBRANCH  22  24
ENDBRANCH  21  22
ENDBRANCH  20  21
ENDBRANCH   1  20
TORSDOF 5
ENDMDL
MODEL 3
REMARK VINA RESULT:     -11.6      2.920      4.810
REMARK  Name = 3151
REMARK  5 active torsions:
REMARK  status: ('A' for Active; 'I' for Inactive)
REMARK    1  A    between atoms: N_1  and  C_20
REMARK    2  A    between atoms: C_2  and  N_10
REMARK    3  A    between atoms: C_20  and  C_21
REMARK    4  A    between atoms: C_21  and  C_22
REMARK    5  A    between atoms: C_22  and  N_24
REMARK                            x       y       z     vdW  Elec       q    Type
REMARK                         _______ _______ _______ _____ _____    ______ ____
ROOT
ATOM      1  N   UNL     1      35.687 -19.312 -20.846  0.00  0.00    +0.387 N 
ATOM      2  C   UNL     1      35.147 -21.748 -19.320  0.00  0.00    +0.086 C 
ATOM      3  C   UNL     1      34.027 -20.883 -19.900  0.00  0.00    -0.000 C 
ATOM      4  C   UNL     1      36.402 -20.905 -19.096  0.00  0.00    -0.000 C 
ATOM      5  C   UNL     1      34.499 -20.125 -21.142  0.00  0.00    -0.075 C 
ATOM      6  C   UNL     1      36.796 -20.147 -20.365  0.00  0.00    -0.075 C 
ATOM      7  H   UNL     1      35.444 -18.655 -20.106  0.00  0.00    -0.080 HD
ENDROOT
BRANCH   2  10
ATOM      8 CL   UNL     1      37.432 -23.811 -13.107  0.00  0.00    -0.082 Cl
ATOM      9  O   UNL     1      32.420 -22.812 -18.504  0.00  0.00    -0.247 OA
ATOM     10  N   UNL     1      34.723 -22.383 -18.097  0.00  0.00    -0.282 N 
ATOM     11  N   UNL     1      33.497 -23.396 -16.482  0.00  0.00    -0.305 N 
ATOM     12  C   UNL     1      35.564 -22.631 -17.004  0.00  0.00    +0.079 A 
ATOM     13  C   UNL     1      33.416 -22.854 -17.796  0.00  0.00    +0.328 A 
ATOM     14  C   UNL     1      34.804 -23.254 -16.016  0.00  0.00    +0.077 A 
ATOM     15  C   UNL     1      36.903 -22.358 -16.819  0.00  0.00    +0.020 C 
ATOM     16  C   UNL     1      35.337 -23.633 -14.804  0.00  0.00    +0.030 C 
ATOM     17  C   UNL     1      37.468 -22.735 -15.596  0.00  0.00    +0.013 C 
ATOM     18  C   UNL     1      36.693 -23.365 -14.600  0.00  0.00    +0.059 C 
ATOM     19  H   UNL     1      32.752 -23.804 -15.984  0.00  0.00    +0.170 HD
ENDBRANCH   2  10
BRANCH   1  20
ATOM     20  C   UNL     1      36.096 -18.555 -22.031  0.00  0.00    -0.075 C 
BRANCH  20  21
ATOM     21  C   UNL     1      34.923 -17.792 -22.654  0.00  0.00    +0.002 C 
BRANCH  21  22
ATOM     22  C   UNL     1      35.331 -16.586 -23.498  0.00  0.00    +0.108 C 
BRANCH  22  24
ATOM     23  O   UNL     1      33.746 -15.583 -25.863  0.00  0.00    -0.247 OA
ATOM     24  N   UNL     1      34.307 -15.578 -23.551  0.00  0.00    -0.280 N 
ATOM     25  N   UNL     1      32.699 -14.156 -24.295  0.00  0.00    -0.305 N 
ATOM     26  C   UNL     1      33.831 -14.837 -22.457  0.00  0.00    +0.079 A 
ATOM     27  C   UNL     1      33.607 -15.165 -24.722  0.00  0.00    +0.328 A 
ATOM     28  C   UNL     1      32.846 -13.967 -22.920  0.00  0.00    +0.076 A 
ATOM     29  C   UNL     1      34.192 -14.873 -21.125  0.00  0.00    +0.019 C 
ATOM     30  C   UNL     1      32.177 -13.098 -22.089  0.00  0.00    +0.019 C 
ATOM     31  C   UNL     1      33.526 -13.998 -20.261  0.00  0.00    +0.002 C 
ATOM     32  C   UNL     1      32.529 -13.120 -20.737  0.00  0.00    +0.002 C 
ATOM     33  H   UNL     1      32.069 -13.669 -24.876  0.00  0.00    +0.170 HD
ENDBRANCH  22  24
ENDBRANCH  21  22
ENDBRANCH  20  21
ENDBRANCH   1  20
TORSDOF 5
ENDMDL
MODEL 4
REMARK VINA RESULT:     -11.3      4.938     11.432
REMARK  Name = 3151
REMARK  5 active torsions:
REMARK  status: ('A' for Active; 'I' for Inactive)
REMARK    1  A    between atoms: N_1  and  C_20
REMARK    2  A    between atoms: C_2  and  N_10
REMARK    3  A    between atoms: C_20  and  C_21
REMARK    4  A    between atoms: C_21  and  C_22
REMARK    5  A    between atoms: C_22  and  N_24
REMARK                            x       y       z     vdW  Elec       q    Type
REMARK                         _______ _______ _______ _____ _____    ______ ____
ROOT
ATOM      1  N   UNL     1      32.721 -12.114 -22.350  0.00  0.00    +0.387 N 
ATOM      2  C   UNL     1      31.944  -9.295 -22.262  0.00  0.00    +0.086 C 
ATOM      3  C   UNL     1      33.195  -9.774 -22.999  0.00  0.00    -0.000 C 
ATOM      4  C   UNL     1      31.576 -10.279 -21.151  0.00  0.00    -0.000 C 
ATOM      5  C   UNL     1      33.041 -11.220 -23.472  0.00  0.00    -0.075 C 
ATOM      6  C   UNL     1      31.475 -11.709 -21.687  0.00  0.00    -0.075 C 
ATOM      7  H   UNL     1      33.477 -12.047 -21.669  0.00  0.00    -0.080 HD
ENDROOT
BRANCH   2  10
ATOM      8 CL   UNL     1      31.354  -2.586 -23.909  0.00  0.00    -0.082 Cl
ATOM      9  O   UNL     1      32.929  -8.386 -19.535  0.00  0.00    -0.247 OA
ATOM     10  N   UNL     1      32.135  -7.967 -21.736  0.00  0.00    -0.282 N 
ATOM     11  N   UNL     1      32.620  -6.205 -20.395  0.00  0.00    -0.305 N 
ATOM     12  C   UNL     1      31.877  -6.790 -22.453  0.00  0.00    +0.079 A 
ATOM     13  C   UNL     1      32.604  -7.628 -20.438  0.00  0.00    +0.328 A 
ATOM     14  C   UNL     1      32.178  -5.712 -21.623  0.00  0.00    +0.077 A 
ATOM     15  C   UNL     1      31.412  -6.603 -23.738  0.00  0.00    +0.020 C 
ATOM     16  C   UNL     1      32.031  -4.405 -22.029  0.00  0.00    +0.030 C 
ATOM     17  C   UNL     1      31.256  -5.283 -24.174  0.00  0.00    +0.013 C 
ATOM     18  C   UNL     1      31.562  -4.196 -23.328  0.00  0.00    +0.059 C 
ATOM     19  H   UNL     1      32.898  -5.659 -19.625  0.00  0.00    +0.170 HD
ENDBRANCH   2  10
BRANCH   1  20
ATOM     20  C   UNL     1      32.627 -13.500 -22.812  0.00  0.00    -0.075 C 
BRANCH  20  21
ATOM     21  C   UNL     1      33.626 -14.411 -22.094  0.00  0.00    +0.002 C 
BRANCH  21  22
ATOM     22  C   UNL     1      34.782 -14.894 -22.969  0.00  0.00    +0.108 C 
BRANCH  22  24
ATOM     23  O   UNL     1      33.650 -15.854 -25.598  0.00  0.00    -0.247 OA
ATOM     24  N   UNL     1      34.588 -16.237 -23.445  0.00  0.00    -0.280 N 
ATOM     25  N   UNL     1      34.044 -18.022 -24.741  0.00  0.00    -0.305 N 
ATOM     26  C   UNL     1      34.906 -17.410 -22.740  0.00  0.00    +0.079 A 
ATOM     27  C   UNL     1      34.042 -16.599 -24.711  0.00  0.00    +0.328 A 
ATOM     28  C   UNL     1      34.570 -18.499 -23.540  0.00  0.00    +0.076 A 
ATOM     29  C   UNL     1      35.453 -17.579 -21.484  0.00  0.00    +0.019 C 
ATOM     30  C   UNL     1      34.759 -19.801 -23.134  0.00  0.00    +0.019 C 
ATOM     31  C   UNL     1      35.656 -18.893 -21.049  0.00  0.00    +0.002 C 
ATOM     32  C   UNL     1      35.313 -19.992 -21.865  0.00  0.00    +0.002 C 
ATOM     33  H   UNL     1      33.724 -18.580 -25.488  0.00  0.00    +0.170 HD
ENDBRANCH  22  24
ENDBRANCH  21  22
ENDBRANCH  20  21
ENDBRANCH   1  20
TORSDOF 5
ENDMDL
MODEL 5
REMARK VINA RESULT:     -11.3      4.095     10.218
REMARK  Name = 3151
REMARK  5 active torsions:
REMARK  status: ('A' for Active; 'I' for Inactive)
REMARK    1  A    between atoms: N_1  and  C_20
REMARK    2  A    between atoms: C_2  and  N_10
REMARK    3  A    between atoms: C_20  and  C_21
REMARK    4  A    between atoms: C_21  and  C_22
REMARK    5  A    between atoms: C_22  and  N_24
REMARK                            x       y       z     vdW  Elec       q    Type
REMARK                         _______ _______ _______ _____ _____    ______ ____
ROOT
ATOM      1  N   UNL     1      35.706 -21.151 -20.120  0.00  0.00    +0.387 N 
ATOM      2  C   UNL     1      35.004 -18.580 -21.327  0.00  0.00    +0.086 C 
ATOM      3  C   UNL     1      34.017 -19.746 -21.259  0.00  0.00    -0.000 C 
ATOM      4  C   UNL     1      36.441 -19.102 -21.294  0.00  0.00    -0.000 C 
ATOM      5  C   UNL     1      34.321 -20.661 -20.071  0.00  0.00    -0.075 C 
ATOM      6  C   UNL     1      36.664 -20.037 -20.104  0.00  0.00    -0.075 C 
ATOM      7  H   UNL     1      35.829 -21.659 -20.995  0.00  0.00    -0.080 HD
ENDROOT
BRANCH   2  10
ATOM      8 CL   UNL     1      34.004 -12.048 -23.426  0.00  0.00    -0.082 Cl
ATOM      9  O   UNL     1      34.743 -19.399 -24.242  0.00  0.00    -0.247 OA
ATOM     10  N   UNL     1      34.770 -17.779 -22.502  0.00  0.00    -0.282 N 
ATOM     11  N   UNL     1      34.432 -17.088 -24.635  0.00  0.00    -0.305 N 
ATOM     12  C   UNL     1      34.613 -16.386 -22.488  0.00  0.00    +0.079 A 
ATOM     13  C   UNL     1      34.661 -18.247 -23.839  0.00  0.00    +0.328 A 
ATOM     14  C   UNL     1      34.405 -15.969 -23.802  0.00  0.00    +0.077 A 
ATOM     15  C   UNL     1      34.638 -15.487 -21.442  0.00  0.00    +0.020 C 
ATOM     16  C   UNL     1      34.215 -14.647 -24.135  0.00  0.00    +0.030 C 
ATOM     17  C   UNL     1      34.445 -14.138 -21.755  0.00  0.00    +0.013 C 
ATOM     18  C   UNL     1      34.236 -13.723 -23.087  0.00  0.00    +0.059 C 
ATOM     19  H   UNL     1      34.313 -17.078 -25.611  0.00  0.00    +0.170 HD
ENDBRANCH   2  10
BRANCH   1  20
ATOM     20  C   UNL     1      35.965 -22.063 -19.005  0.00  0.00    -0.075 C 
BRANCH  20  21
ATOM     21  C   UNL     1      34.824 -22.057 -17.985  0.00  0.00    +0.002 C 
BRANCH  21  22
ATOM     22  C   UNL     1      34.171 -23.420 -17.759  0.00  0.00    +0.108 C 
BRANCH  22  24
ATOM     23  O   UNL     1      35.993 -24.256 -15.501  0.00  0.00    -0.247 OA
ATOM     24  N   UNL     1      33.862 -23.660 -16.376  0.00  0.00    -0.280 N 
ATOM     25  N   UNL     1      34.042 -24.172 -14.169  0.00  0.00    -0.305 N 
ATOM     26  C   UNL     1      32.590 -23.544 -15.789  0.00  0.00    +0.079 A 
ATOM     27  C   UNL     1      34.793 -24.055 -15.371  0.00  0.00    +0.328 A 
ATOM     28  C   UNL     1      32.708 -23.859 -14.437  0.00  0.00    +0.076 A 
ATOM     29  C   UNL     1      31.377 -23.191 -16.344  0.00  0.00    +0.019 C 
ATOM     30  C   UNL     1      31.633 -23.840 -13.577  0.00  0.00    +0.019 C 
ATOM     31  C   UNL     1      30.269 -23.165 -15.490  0.00  0.00    +0.002 C 
ATOM     32  C   UNL     1      30.396 -23.484 -14.122  0.00  0.00    +0.002 C 
ATOM     33  H   UNL     1      34.403 -24.432 -13.290  0.00  0.00    +0.170 HD
ENDBRANCH  22  24
ENDBRANCH  21  22
ENDBRANCH  20  21
ENDBRANCH   1  20
TORSDOF 5
ENDMDL
MODEL 6
REMARK VINA RESULT:     -11.0      2.987      5.372
REMARK  Name = 3151
REMARK  5 active torsions:
REMARK  status: ('A' for Active; 'I' for Inactive)
REMARK    1  A    between atoms: N_1  and  C_20
REMARK    2  A    between atoms: C_2  and  N_10
REMARK    3  A    between atoms: C_20  and  C_21
REMARK    4  A    between atoms: C_21  and  C_22
REMARK    5  A    between atoms: C_22  and  N_24
REMARK                            x       y       z     vdW  Elec       q    Type
REMARK                         _______ _______ _______ _____ _____    ______ ____
ROOT
ATOM      1  N   UNL     1      34.302 -20.474 -20.263  0.00  0.00    +0.387 N 
ATOM      2  C   UNL     1      34.465 -22.611 -18.272  0.00  0.00    +0.086 C 
ATOM      3  C   UNL     1      33.175 -21.833 -18.529  0.00  0.00    -0.000 C 
ATOM      4  C   UNL     1      35.678 -21.768 -18.667  0.00  0.00    -0.000 C 
ATOM      5  C   UNL     1      33.124 -21.301 -19.963  0.00  0.00    -0.075 C 
ATOM      6  C   UNL     1      35.544 -21.240 -20.097  0.00  0.00    -0.075 C 
ATOM      7  H   UNL     1      34.319 -19.699 -19.603  0.00  0.00    -0.080 HD
ENDROOT
BRANCH   2  10
ATOM      8 CL   UNL     1      30.613 -24.811 -12.943  0.00  0.00    -0.082 Cl
ATOM      9  O   UNL     1      36.872 -22.835 -16.432  0.00  0.00    -0.247 OA
ATOM     10  N   UNL     1      34.548 -23.025 -16.894  0.00  0.00    -0.282 N 
ATOM     11  N   UNL     1      35.297 -23.559 -14.822  0.00  0.00    -0.305 N 
ATOM     12  C   UNL     1      33.447 -23.421 -16.122  0.00  0.00    +0.079 A 
ATOM     13  C   UNL     1      35.725 -23.102 -16.101  0.00  0.00    +0.328 A 
ATOM     14  C   UNL     1      33.915 -23.748 -14.850  0.00  0.00    +0.077 A 
ATOM     15  C   UNL     1      32.109 -23.514 -16.443  0.00  0.00    +0.020 C 
ATOM     16  C   UNL     1      33.080 -24.179 -13.844  0.00  0.00    +0.030 C 
ATOM     17  C   UNL     1      31.240 -23.949 -15.437  0.00  0.00    +0.013 C 
ATOM     18  C   UNL     1      31.721 -24.278 -14.152  0.00  0.00    +0.059 C 
ATOM     19  H   UNL     1      35.882 -23.716 -14.046  0.00  0.00    +0.170 HD
ENDBRANCH   2  10
BRANCH   1  20
ATOM     20  C   UNL     1      34.213 -19.933 -21.621  0.00  0.00    -0.075 C 
BRANCH  20  21
ATOM     21  C   UNL     1      35.411 -19.042 -21.960  0.00  0.00    +0.002 C 
BRANCH  21  22
ATOM     22  C   UNL     1      35.179 -18.092 -23.133  0.00  0.00    +0.108 C 
BRANCH  22  24
ATOM     23  O   UNL     1      35.279 -16.865 -20.377  0.00  0.00    -0.247 OA
ATOM     24  N   UNL     1      34.804 -16.771 -22.706  0.00  0.00    -0.280 N 
ATOM     25  N   UNL     1      34.410 -14.934 -21.428  0.00  0.00    -0.305 N 
ATOM     26  C   UNL     1      34.295 -15.757 -23.534  0.00  0.00    +0.079 A 
ATOM     27  C   UNL     1      34.885 -16.274 -21.373  0.00  0.00    +0.328 A 
ATOM     28  C   UNL     1      34.057 -14.634 -22.745  0.00  0.00    +0.076 A 
ATOM     29  C   UNL     1      34.037 -15.753 -24.890  0.00  0.00    +0.019 C 
ATOM     30  C   UNL     1      33.553 -13.461 -23.261  0.00  0.00    +0.019 C 
ATOM     31  C   UNL     1      33.525 -14.572 -25.438  0.00  0.00    +0.002 C 
ATOM     32  C   UNL     1      33.286 -13.438 -24.633  0.00  0.00    +0.002 C 
ATOM     33  H   UNL     1      34.342 -14.317 -20.663  0.00  0.00    +0.170 HD
ENDBRANCH  22  24
ENDBRANCH  21  22
ENDBRANCH  20  21
ENDBRANCH   1  20
TORSDOF 5
ENDMDL
MODEL 7
REMARK VINA RESULT:     -11.0      2.945      5.151
REMARK  Name = 3151
REMARK  5 active torsions:
REMARK  status: ('A' for Active; 'I' for Inactive)
REMARK    1  A    between atoms: N_1  and  C_20
REMARK    2  A    between atoms: C_2  and  N_10
REMARK    3  A    between atoms: C_20  and  C_21
REMARK    4  A    between atoms: C_21  and  C_22
REMARK    5  A    between atoms: C_22  and  N_24
REMARK                            x       y       z     vdW  Elec       q    Type
REMARK                         _______ _______ _______ _____ _____    ______ ____
ROOT
ATOM      1  N   UNL     1      35.247 -20.235 -20.232  0.00  0.00    +0.387 N 
ATOM      2  C   UNL     1      35.076 -22.442 -18.320  0.00  0.00    +0.086 C 
ATOM      3  C   UNL     1      33.845 -21.656 -18.770  0.00  0.00    -0.000 C 
ATOM      4  C   UNL     1      36.333 -21.585 -18.468  0.00  0.00    -0.000 C 
ATOM      5  C   UNL     1      34.041 -21.073 -20.171  0.00  0.00    -0.075 C 
ATOM      6  C   UNL     1      36.447 -21.005 -19.879  0.00  0.00    -0.075 C 
ATOM      7  H   UNL     1      35.143 -19.484 -19.551  0.00  0.00    -0.080 HD
ENDROOT
BRANCH   2  10
ATOM      8 CL   UNL     1      30.323 -24.545 -13.731  0.00  0.00    -0.082 Cl
ATOM      9  O   UNL     1      37.154 -22.891 -16.149  0.00  0.00    -0.247 OA
ATOM     10  N   UNL     1      34.921 -22.906 -16.964  0.00  0.00    -0.282 N 
ATOM     11  N   UNL     1      35.309 -23.557 -14.827  0.00  0.00    -0.305 N 
ATOM     12  C   UNL     1      33.692 -23.250 -16.384  0.00  0.00    +0.079 A 
ATOM     13  C   UNL     1      35.956 -23.089 -16.007  0.00  0.00    +0.328 A 
ATOM     14  C   UNL     1      33.939 -23.649 -15.072  0.00  0.00    +0.077 A 
ATOM     15  C   UNL     1      32.416 -23.241 -16.907  0.00  0.00    +0.020 C 
ATOM     16  C   UNL     1      32.934 -24.055 -14.222  0.00  0.00    +0.030 C 
ATOM     17  C   UNL     1      31.378 -23.648 -16.062  0.00  0.00    +0.013 C 
ATOM     18  C   UNL     1      31.634 -24.050 -14.735  0.00  0.00    +0.059 C 
ATOM     19  H   UNL     1      35.757 -23.779 -13.980  0.00  0.00    +0.170 HD
ENDBRANCH   2  10
BRANCH   1  20
ATOM     20  C   UNL     1      35.392 -19.645 -21.564  0.00  0.00    -0.075 C 
BRANCH  20  21
ATOM     21  C   UNL     1      34.636 -18.319 -21.687  0.00  0.00    +0.002 C 
BRANCH  21  22
ATOM     22  C   UNL     1      35.478 -17.159 -22.215  0.00  0.00    +0.108 C 
BRANCH  22  24
ATOM     23  O   UNL     1      34.844 -16.739 -25.136  0.00  0.00    -0.247 OA
ATOM     24  N   UNL     1      34.680 -16.139 -22.840  0.00  0.00    -0.280 N 
ATOM     25  N   UNL     1      33.602 -14.872 -24.387  0.00  0.00    -0.305 N 
ATOM     26  C   UNL     1      34.016 -15.096 -22.173  0.00  0.00    +0.079 A 
ATOM     27  C   UNL     1      34.433 -16.017 -24.238  0.00  0.00    +0.328 A 
ATOM     28  C   UNL     1      33.357 -14.324 -23.127  0.00  0.00    +0.076 A 
ATOM     29  C   UNL     1      33.952 -14.790 -20.829  0.00  0.00    +0.019 C 
ATOM     30  C   UNL     1      32.608 -13.218 -22.794  0.00  0.00    +0.019 C 
ATOM     31  C   UNL     1      33.197 -13.670 -20.465  0.00  0.00    +0.002 C 
ATOM     32  C   UNL     1      32.531 -12.893 -21.437  0.00  0.00    +0.002 C 
ATOM     33  H   UNL     1      33.256 -14.521 -25.241  0.00  0.00    +0.170 HD
ENDBRANCH  22  24
ENDBRANCH  21  22
ENDBRANCH  20  21
ENDBRANCH   1  20
TORSDOF 5
ENDMDL
MODEL 8
REMARK VINA RESULT:     -10.9      4.365     11.105
REMARK  Name = 3151
REMARK  5 active torsions:
REMARK  status: ('A' for Active; 'I' for Inactive)
REMARK    1  A    between atoms: N_1  and  C_20
REMARK    2  A    between atoms: C_2  and  N_10
REMARK    3  A    between atoms: C_20  and  C_21
REMARK    4  A    between atoms: C_21  and  C_22
REMARK    5  A    between atoms: C_22  and  N_24
REMARK                            x       y       z     vdW  Elec       q    Type
REMARK                         _______ _______ _______ _____ _____    ______ ____
ROOT
ATOM      1  N   UNL     1      35.412 -21.615 -19.518  0.00  0.00    +0.387 N 
ATOM      2  C   UNL     1      34.958 -19.081 -20.906  0.00  0.00    +0.086 C 
ATOM      3  C   UNL     1      33.880 -20.159 -20.804  0.00  0.00    -0.000 C 
ATOM      4  C   UNL     1      36.347 -19.709 -20.785  0.00  0.00    -0.000 C 
ATOM      5  C   UNL     1      34.070 -21.017 -19.552  0.00  0.00    -0.075 C 
ATOM      6  C   UNL     1      36.455 -20.580 -19.533  0.00  0.00    -0.075 C 
ATOM      7  H   UNL     1      35.524 -22.187 -20.354  0.00  0.00    -0.080 HD
ENDROOT
BRANCH   2  10
ATOM      8 CL   UNL     1      34.248 -12.657 -23.417  0.00  0.00    -0.082 Cl
ATOM      9  O   UNL     1      34.900 -20.052 -23.785  0.00  0.00    -0.247 OA
ATOM     10  N   UNL     1      34.828 -18.340 -22.136  0.00  0.00    -0.282 N 
ATOM     11  N   UNL     1      34.665 -17.761 -24.322  0.00  0.00    -0.305 N 
ATOM     12  C   UNL     1      34.698 -16.947 -22.208  0.00  0.00    +0.079 A 
ATOM     13  C   UNL     1      34.811 -18.878 -23.451  0.00  0.00    +0.328 A 
ATOM     14  C   UNL     1      34.598 -16.598 -23.554  0.00  0.00    +0.077 A 
ATOM     15  C   UNL     1      34.663 -15.993 -21.212  0.00  0.00    +0.020 C 
ATOM     16  C   UNL     1      34.459 -15.293 -23.970  0.00  0.00    +0.030 C 
ATOM     17  C   UNL     1      34.521 -14.660 -21.609  0.00  0.00    +0.013 C 
ATOM     18  C   UNL     1      34.420 -14.314 -22.973  0.00  0.00    +0.059 C 
ATOM     19  H   UNL     1      34.620 -17.802 -25.304  0.00  0.00    +0.170 HD
ENDBRANCH   2  10
BRANCH   1  20
ATOM     20  C   UNL     1      35.560 -22.472 -18.340  0.00  0.00    -0.075 C 
BRANCH  20  21
ATOM     21  C   UNL     1      36.774 -22.077 -17.495  0.00  0.00    +0.002 C 
BRANCH  21  22
ATOM     22  C   UNL     1      36.511 -22.038 -15.991  0.00  0.00    +0.108 C 
BRANCH  22  24
ATOM     23  O   UNL     1      33.824 -23.346 -15.559  0.00  0.00    -0.247 OA
ATOM     24  N   UNL     1      36.202 -23.335 -15.452  0.00  0.00    -0.280 N 
ATOM     25  N   UNL     1      35.076 -25.169 -14.722  0.00  0.00    -0.305 N 
ATOM     26  C   UNL     1      37.139 -24.281 -15.004  0.00  0.00    +0.079 A 
ATOM     27  C   UNL     1      34.893 -23.874 -15.283  0.00  0.00    +0.328 A 
ATOM     28  C   UNL     1      36.442 -25.402 -14.558  0.00  0.00    +0.076 A 
ATOM     29  C   UNL     1      38.517 -24.225 -14.964  0.00  0.00    +0.019 C 
ATOM     30  C   UNL     1      37.077 -26.514 -14.054  0.00  0.00    +0.019 C 
ATOM     31  C   UNL     1      39.185 -25.344 -14.455  0.00  0.00    +0.002 C 
ATOM     32  C   UNL     1      38.474 -26.476 -14.006  0.00  0.00    +0.002 C 
ATOM     33  H   UNL     1      34.356 -25.799 -14.486  0.00  0.00    +0.170 HD
ENDBRANCH  22  24
ENDBRANCH  21  22
ENDBRANCH  20  21
ENDBRANCH   1  20
TORSDOF 5
ENDMDL
MODEL 9
REMARK VINA RESULT:     -10.8      3.454      5.895
REMARK  Name = 3151
REMARK  5 active torsions:
REMARK  status: ('A' for Active; 'I' for Inactive)
REMARK    1  A    between atoms: N_1  and  C_20
REMARK    2  A    between atoms: C_2  and  N_10
REMARK    3  A    between atoms: C_20  and  C_21
REMARK    4  A    between atoms: C_21  and  C_22
REMARK    5  A    between atoms: C_22  and  N_24
REMARK                            x       y       z     vdW  Elec       q    Type
REMARK                         _______ _______ _______ _____ _____    ______ ____
ROOT
ATOM      1  N   UNL     1      35.048 -20.653 -19.907  0.00  0.00    +0.387 N 
ATOM      2  C   UNL     1      34.023 -22.748 -18.141  0.00  0.00    +0.086 C 
ATOM      3  C   UNL     1      33.104 -21.735 -18.824  0.00  0.00    -0.000 C 
ATOM      4  C   UNL     1      35.429 -22.167 -17.989  0.00  0.00    -0.000 C 
ATOM      5  C   UNL     1      33.713 -21.227 -20.132  0.00  0.00    -0.075 C 
ATOM      6  C   UNL     1      35.961 -21.645 -19.325  0.00  0.00    -0.075 C 
ATOM      7  H   UNL     1      34.953 -19.885 -19.244  0.00  0.00    -0.080 HD
ENDROOT
BRANCH   2  10
ATOM      8 CL   UNL     1      35.872 -25.064 -11.873  0.00  0.00    -0.082 Cl
ATOM      9  O   UNL     1      31.146 -22.858 -17.169  0.00  0.00    -0.247 OA
ATOM     10  N   UNL     1      33.486 -23.148 -16.864  0.00  0.00    -0.282 N 
ATOM     11  N   UNL     1      32.091 -23.634 -15.145  0.00  0.00    -0.305 N 
ATOM     12  C   UNL     1      34.265 -23.584 -15.783  0.00  0.00    +0.079 A 
ATOM     13  C   UNL     1      32.116 -23.169 -16.491  0.00  0.00    +0.328 A 
ATOM     14  C   UNL     1      33.401 -23.881 -14.731  0.00  0.00    +0.077 A 
ATOM     15  C   UNL     1      35.630 -23.733 -15.659  0.00  0.00    +0.020 C 
ATOM     16  C   UNL     1      33.851 -24.338 -13.512  0.00  0.00    +0.030 C 
ATOM     17  C   UNL     1      36.112 -24.197 -14.431  0.00  0.00    +0.013 C 
ATOM     18  C   UNL     1      35.232 -24.496 -13.370  0.00  0.00    +0.059 C 
ATOM     19  H   UNL     1      31.284 -23.760 -14.597  0.00  0.00    +0.170 HD
ENDBRANCH   2  10
BRANCH   1  20
ATOM     20  C   UNL     1      35.595 -20.127 -21.159  0.00  0.00    -0.075 C 
BRANCH  20  21
ATOM     21  C   UNL     1      34.560 -19.307 -21.935  0.00  0.00    +0.002 C 
BRANCH  21  22
ATOM     22  C   UNL     1      35.159 -18.292 -22.906  0.00  0.00    +0.108 C 
BRANCH  22  24
ATOM     23  O   UNL     1      35.322 -16.882 -20.242  0.00  0.00    -0.247 OA
ATOM     24  N   UNL     1      34.819 -16.937 -22.567  0.00  0.00    -0.280 N 
ATOM     25  N   UNL     1      34.484 -15.007 -21.414  0.00  0.00    -0.305 N 
ATOM     26  C   UNL     1      34.323 -15.970 -23.457  0.00  0.00    +0.079 A 
ATOM     27  C   UNL     1      34.928 -16.352 -21.272  0.00  0.00    +0.328 A 
ATOM     28  C   UNL     1      34.120 -14.790 -22.744  0.00  0.00    +0.076 A 
ATOM     29  C   UNL     1      34.047 -16.052 -24.807  0.00  0.00    +0.019 C 
ATOM     30  C   UNL     1      33.636 -13.644 -23.333  0.00  0.00    +0.019 C 
ATOM     31  C   UNL     1      33.554 -14.900 -25.428  0.00  0.00    +0.002 C 
ATOM     32  C   UNL     1      33.352 -13.709 -24.700  0.00  0.00    +0.002 C 
ATOM     33  H   UNL     1      34.439 -14.338 -20.692  0.00  0.00    +0.170 HD
ENDBRANCH  22  24
ENDBRANCH  21  22
ENDBRANCH  20  21
ENDBRANCH   1  20
TORSDOF 5
ENDMDL
