MODEL 1
REMARK VINA RESULT:     -11.9      0.000      0.000
REMARK  Name = 11538455
REMARK  6 active torsions:
REMARK  status: ('A' for Active; 'I' for Inactive)
REMARK    1  A    between atoms: C_4  and  C_19
REMARK    2  A    between atoms: C_12  and  C_15
REMARK    3  A    between atoms: N_14  and  O_17
REMARK    4  A    between atoms: C_19  and  N_20
REMARK    5  A    between atoms: N_20  and  C_23
REMARK    6  A    between atoms: C_23  and  C_25
REMARK                            x       y       z     vdW  Elec       q    Type
REMARK                         _______ _______ _______ _____ _____    ______ ____
ROOT
ATOM      1  N   UNL     1      35.418 -22.048 -17.993  0.00  0.00    -0.253 N 
ATOM      2  N   UNL     1      37.099 -22.797 -16.515  0.00  0.00    -0.203 NA
ATOM      3  N   UNL     1      34.769 -23.079 -15.971  0.00  0.00    -0.180 NA
ATOM      4  C   UNL     1      34.666 -20.910 -20.547  0.00  0.00    -0.018 C 
ATOM      5  C   UNL     1      35.939 -20.475 -19.815  0.00  0.00    +0.020 C 
ATOM      6  C   UNL     1      33.616 -21.357 -19.524  0.00  0.00    +0.020 C 
ATOM      7  C   UNL     1      36.470 -21.581 -18.902  0.00  0.00    +0.101 C 
ATOM      8  C   UNL     1      34.154 -22.463 -18.617  0.00  0.00    +0.101 C 
ATOM      9  C   UNL     1      35.773 -22.663 -16.786  0.00  0.00    +0.090 C 
ATOM     10  C   UNL     1      37.406 -23.391 -15.343  0.00  0.00    +0.170 C 
ATOM     11  C   UNL     1      35.146 -23.664 -14.816  0.00  0.00    +0.113 C 
ATOM     12  C   UNL     1      36.463 -23.849 -14.446  0.00  0.00    +0.078 C 
ENDROOT
BRANCH  12  15
ATOM     13  O   UNL     1      37.834 -24.108 -12.557  0.00  0.00    -0.268 OA
ATOM     14  N   UNL     1      36.030 -25.529 -12.751  0.00  0.00    -0.194 N 
ATOM     15  C   UNL     1      36.831 -24.484 -13.195  0.00  0.00    +0.267 C 
ATOM     16  H   UNL     1      35.238 -25.822 -13.259  0.00  0.00    +0.183 HD
BRANCH  14  17
ATOM     17  O   UNL     1      36.399 -26.147 -11.548  0.00  0.00    -0.295 OA
ATOM     18  H   UNL     1      36.851 -25.504 -10.979  0.00  0.00    +0.241 HD
ENDBRANCH  14  17
ENDBRANCH  12  15
BRANCH   4  19
ATOM     19  C   UNL     1      34.127 -19.780 -21.420  0.00  0.00    -0.081 C 
BRANCH  19  20
ATOM     20  N   UNL     1      34.762 -19.788 -22.729  0.00  0.00    +0.386 N 
ATOM     21  H   UNL     1      34.048 -19.660 -23.447  0.00  0.00    -0.084 HD
ATOM     22  H   UNL     1      35.238 -20.682 -22.855  0.00  0.00    -0.084 HD
BRANCH  20  23
ATOM     23  C   UNL     1      35.746 -18.719 -22.840  0.00  0.00    -0.053 C 
BRANCH  23  25
ATOM     24  N   UNL     1      34.114 -15.784 -24.274  0.00  0.00    -0.284 N 
ATOM     25  C   UNL     1      35.072 -17.413 -23.160  0.00  0.00    -0.028 C 
ATOM     26  C   UNL     1      34.749 -16.408 -22.229  0.00  0.00    +0.009 C 
ATOM     27  C   UNL     1      34.681 -17.023 -24.403  0.00  0.00    +0.059 C 
ATOM     28  C   UNL     1      34.142 -15.383 -22.958  0.00  0.00    +0.051 C 
ATOM     29  C   UNL     1      34.905 -16.251 -20.838  0.00  0.00    +0.001 C 
ATOM     30  C   UNL     1      33.680 -14.203 -22.362  0.00  0.00    +0.015 C 
ATOM     31  C   UNL     1      33.566 -15.019 -25.374  0.00  0.00    +0.117 C 
ATOM     32  C   UNL     1      34.448 -15.076 -20.227  0.00  0.00    +0.000 C 
ATOM     33  C   UNL     1      33.845 -14.070 -20.980  0.00  0.00    +0.001 C 
ENDBRANCH  23  25
ENDBRANCH  20  23
ENDBRANCH  19  20
ENDBRANCH   4  19
TORSDOF 6
ENDMDL
MODEL 2
REMARK VINA RESULT:     -11.9      1.146      2.182
REMARK  Name = 11538455
REMARK  6 active torsions:
REMARK  status: ('A' for Active; 'I' for Inactive)
REMARK    1  A    between atoms: C_4  and  C_19
REMARK    2  A    between atoms: C_12  and  C_15
REMARK    3  A    between atoms: N_14  and  O_17
REMARK    4  A    between atoms: C_19  and  N_20
REMARK    5  A    between atoms: N_20  and  C_23
REMARK    6  A    between atoms: C_23  and  C_25
REMARK                            x       y       z     vdW  Elec       q    Type
REMARK                         _______ _______ _______ _____ _____    ______ ____
ROOT
ATOM      1  N   UNL     1      34.998 -22.331 -17.760  0.00  0.00    -0.253 N 
ATOM      2  N   UNL     1      36.325 -23.327 -16.082  0.00  0.00    -0.203 NA
ATOM      3  N   UNL     1      33.925 -23.265 -15.876  0.00  0.00    -0.180 NA
ATOM      4  C   UNL     1      34.788 -21.081 -20.363  0.00  0.00    -0.018 C 
ATOM      5  C   UNL     1      35.994 -20.843 -19.450  0.00  0.00    +0.020 C 
ATOM      6  C   UNL     1      33.551 -21.374 -19.509  0.00  0.00    +0.020 C 
ATOM      7  C   UNL     1      36.224 -22.019 -18.501  0.00  0.00    +0.101 C 
ATOM      8  C   UNL     1      33.788 -22.551 -18.565  0.00  0.00    +0.101 C 
ATOM      9  C   UNL     1      35.085 -22.997 -16.531  0.00  0.00    +0.090 C 
ATOM     10  C   UNL     1      36.374 -23.965 -14.894  0.00  0.00    +0.170 C 
ATOM     11  C   UNL     1      34.046 -23.906 -14.695  0.00  0.00    +0.113 C 
ATOM     12  C   UNL     1      35.256 -24.285 -14.150  0.00  0.00    +0.078 C 
ENDROOT
BRANCH  12  15
ATOM     13  O   UNL     1      34.505 -24.774 -11.979  0.00  0.00    -0.268 OA
ATOM     14  N   UNL     1      36.412 -25.848 -12.700  0.00  0.00    -0.194 N 
ATOM     15  C   UNL     1      35.347 -24.973 -12.877  0.00  0.00    +0.267 C 
ATOM     16  H   UNL     1      37.074 -26.003 -13.413  0.00  0.00    +0.183 HD
BRANCH  14  17
ATOM     17  O   UNL     1      36.500 -26.501 -11.462  0.00  0.00    -0.295 OA
ATOM     18  H   UNL     1      35.627 -26.840 -11.212  0.00  0.00    +0.241 HD
ENDBRANCH  14  17
ENDBRANCH  12  15
BRANCH   4  19
ATOM     19  C   UNL     1      34.548 -19.879 -21.274  0.00  0.00    -0.081 C 
BRANCH  19  20
ATOM     20  N   UNL     1      35.583 -18.874 -21.088  0.00  0.00    +0.386 N 
ATOM     21  H   UNL     1      36.461 -19.337 -20.854  0.00  0.00    -0.084 HD
ATOM     22  H   UNL     1      35.297 -18.249 -20.334  0.00  0.00    -0.084 HD
BRANCH  20  23
ATOM     23  C   UNL     1      35.768 -18.084 -22.299  0.00  0.00    -0.053 C 
BRANCH  23  25
ATOM     24  N   UNL     1      34.157 -14.951 -21.341  0.00  0.00    -0.284 N 
ATOM     25  C   UNL     1      35.052 -16.767 -22.186  0.00  0.00    -0.028 C 
ATOM     26  C   UNL     1      34.505 -16.037 -23.258  0.00  0.00    +0.009 C 
ATOM     27  C   UNL     1      34.835 -16.097 -21.022  0.00  0.00    +0.059 C 
ATOM     28  C   UNL     1      33.942 -14.888 -22.699  0.00  0.00    +0.051 C 
ATOM     29  C   UNL     1      34.424 -16.223 -24.651  0.00  0.00    +0.001 C 
ATOM     30  C   UNL     1      33.298 -13.911 -23.468  0.00  0.00    +0.015 C 
ATOM     31  C   UNL     1      33.736 -13.958 -20.376  0.00  0.00    +0.117 C 
ATOM     32  C   UNL     1      33.783 -15.255 -25.434  0.00  0.00    +0.000 C 
ATOM     33  C   UNL     1      33.230 -14.117 -24.849  0.00  0.00    +0.001 C 
ENDBRANCH  23  25
ENDBRANCH  20  23
ENDBRANCH  19  20
ENDBRANCH   4  19
TORSDOF 6
ENDMDL
MODEL 3
REMARK VINA RESULT:     -11.0      6.443     10.415
REMARK  Name = 11538455
REMARK  6 active torsions:
REMARK  status: ('A' for Active; 'I' for Inactive)
REMARK    1  A    between atoms: C_4  and  C_19
REMARK    2  A    between atoms: C_12  and  C_15
REMARK    3  A    between atoms: N_14  and  O_17
REMARK    4  A    between atoms: C_19  and  N_20
REMARK    5  A    between atoms: N_20  and  C_23
REMARK    6  A    between atoms: C_23  and  C_25
REMARK                            x       y       z     vdW  Elec       q    Type
REMARK                         _______ _______ _______ _____ _____    ______ ____
ROOT
ATOM      1  N   UNL     1      33.090 -13.226 -21.851  0.00  0.00    -0.253 N 
ATOM      2  N   UNL     1      34.211 -14.955 -23.000  0.00  0.00    -0.203 NA
ATOM      3  N   UNL     1      33.989 -15.015 -20.602  0.00  0.00    -0.180 NA
ATOM      4  C   UNL     1      31.524 -10.791 -21.916  0.00  0.00    -0.018 C 
ATOM      5  C   UNL     1      32.626 -11.068 -22.944  0.00  0.00    +0.020 C 
ATOM      6  C   UNL     1      31.867 -11.492 -20.598  0.00  0.00    +0.020 C 
ATOM      7  C   UNL     1      32.850 -12.568 -23.139  0.00  0.00    +0.101 C 
ATOM      8  C   UNL     1      32.088 -12.990 -20.802  0.00  0.00    +0.101 C 
ATOM      9  C   UNL     1      33.786 -14.440 -21.816  0.00  0.00    +0.090 C 
ATOM     10  C   UNL     1      34.882 -16.124 -22.930  0.00  0.00    +0.170 C 
ATOM     11  C   UNL     1      34.666 -16.182 -20.605  0.00  0.00    +0.113 C 
ATOM     12  C   UNL     1      35.140 -16.790 -21.750  0.00  0.00    +0.078 C 
ENDROOT
BRANCH  12  15
ATOM     13  O   UNL     1      36.082 -18.690 -22.759  0.00  0.00    -0.268 OA
ATOM     14  N   UNL     1      36.285 -18.503 -20.471  0.00  0.00    -0.194 N 
ATOM     15  C   UNL     1      35.863 -18.046 -21.713  0.00  0.00    +0.267 C 
ATOM     16  H   UNL     1      36.111 -17.990 -19.648  0.00  0.00    +0.183 HD
BRANCH  14  17
ATOM     17  O   UNL     1      36.973 -19.725 -20.442  0.00  0.00    -0.295 OA
ATOM     18  H   UNL     1      36.575 -20.335 -21.082  0.00  0.00    +0.241 HD
ENDBRANCH  14  17
ENDBRANCH  12  15
BRANCH   4  19
ATOM     19  C   UNL     1      31.344  -9.290 -21.703  0.00  0.00    -0.081 C 
BRANCH  19  20
ATOM     20  N   UNL     1      32.259  -8.797 -20.685  0.00  0.00    +0.386 N 
ATOM     21  H   UNL     1      33.218  -8.921 -21.010  0.00  0.00    -0.084 HD
ATOM     22  H   UNL     1      32.103  -9.323 -19.825  0.00  0.00    -0.084 HD
BRANCH  20  23
ATOM     23  C   UNL     1      32.026  -7.384 -20.413  0.00  0.00    -0.053 C 
BRANCH  23  25
ATOM     24  N   UNL     1      31.882  -5.128 -23.280  0.00  0.00    -0.284 N 
ATOM     25  C   UNL     1      32.223  -6.567 -21.659  0.00  0.00    -0.028 C 
ATOM     26  C   UNL     1      33.342  -6.628 -22.511  0.00  0.00    +0.009 C 
ATOM     27  C   UNL     1      31.339  -5.650 -22.137  0.00  0.00    +0.059 C 
ATOM     28  C   UNL     1      33.105  -5.706 -23.533  0.00  0.00    +0.051 C 
ATOM     29  C   UNL     1      34.541  -7.367 -22.529  0.00  0.00    +0.001 C 
ATOM     30  C   UNL     1      34.010  -5.487 -24.578  0.00  0.00    +0.015 C 
ATOM     31  C   UNL     1      31.247  -4.113 -24.094  0.00  0.00    +0.117 C 
ATOM     32  C   UNL     1      35.457  -7.158 -23.568  0.00  0.00    +0.000 C 
ATOM     33  C   UNL     1      35.193  -6.232 -24.575  0.00  0.00    +0.001 C 
ENDBRANCH  23  25
ENDBRANCH  20  23
ENDBRANCH  19  20
ENDBRANCH   4  19
TORSDOF 6
ENDMDL
MODEL 4
REMARK VINA RESULT:     -10.7      5.504     11.194
REMARK  Name = 11538455
REMARK  6 active torsions:
REMARK  status: ('A' for Active; 'I' for Inactive)
REMARK    1  A    between atoms: C_4  and  C_19
REMARK    2  A    between atoms: C_12  and  C_15
REMARK    3  A    between atoms: N_14  and  O_17
REMARK    4  A    between atoms: C_19  and  N_20
REMARK    5  A    between atoms: N_20  and  C_23
REMARK    6  A    between atoms: C_23  and  C_25
REMARK                            x       y       z     vdW  Elec       q    Type
REMARK                         _______ _______ _______ _____ _____    ______ ____
ROOT
ATOM      1  N   UNL     1      34.321 -15.409 -22.248  0.00  0.00    -0.253 N 
ATOM      2  N   UNL     1      33.826 -13.507 -23.556  0.00  0.00    -0.203 NA
ATOM      3  N   UNL     1      33.050 -13.671 -21.280  0.00  0.00    -0.180 NA
ATOM      4  C   UNL     1      35.694 -17.939 -21.942  0.00  0.00    -0.018 C 
ATOM      5  C   UNL     1      35.119 -17.493 -23.289  0.00  0.00    +0.020 C 
ATOM      6  C   UNL     1      34.866 -17.330 -20.806  0.00  0.00    +0.020 C 
ATOM      7  C   UNL     1      35.045 -15.970 -23.394  0.00  0.00    +0.101 C 
ATOM      8  C   UNL     1      34.799 -15.808 -20.917  0.00  0.00    +0.101 C 
ATOM      9  C   UNL     1      33.712 -14.153 -22.364  0.00  0.00    +0.090 C 
ATOM     10  C   UNL     1      33.226 -12.302 -23.635  0.00  0.00    +0.170 C 
ATOM     11  C   UNL     1      32.474 -12.460 -21.429  0.00  0.00    +0.113 C 
ATOM     12  C   UNL     1      32.529 -11.723 -22.594  0.00  0.00    +0.078 C 
ENDROOT
BRANCH  12  15
ATOM     13  O   UNL     1      30.842 -10.165 -22.103  0.00  0.00    -0.268 OA
ATOM     14  N   UNL     1      32.509  -9.493 -23.546  0.00  0.00    -0.194 N 
ATOM     15  C   UNL     1      31.898 -10.424 -22.715  0.00  0.00    +0.267 C 
ATOM     16  H   UNL     1      33.343  -9.701 -24.026  0.00  0.00    +0.183 HD
BRANCH  14  17
ATOM     17  O   UNL     1      31.885  -8.243 -23.669  0.00  0.00    -0.295 OA
ATOM     18  H   UNL     1      30.956  -8.317 -23.399  0.00  0.00    +0.241 HD
ENDBRANCH  14  17
ENDBRANCH  12  15
BRANCH   4  19
ATOM     19  C   UNL     1      35.721 -19.462 -21.839  0.00  0.00    -0.081 C 
BRANCH  19  20
ATOM     20  N   UNL     1      35.807 -19.888 -20.451  0.00  0.00    +0.386 N 
ATOM     21  H   UNL     1      35.423 -19.155 -19.853  0.00  0.00    -0.084 HD
ATOM     22  H   UNL     1      36.786 -20.057 -20.222  0.00  0.00    -0.084 HD
BRANCH  20  23
ATOM     23  C   UNL     1      35.059 -21.120 -20.234  0.00  0.00    -0.053 C 
BRANCH  23  25
ATOM     24  N   UNL     1      36.485 -22.305 -17.088  0.00  0.00    -0.284 N 
ATOM     25  C   UNL     1      35.380 -21.702 -18.885  0.00  0.00    -0.028 C 
ATOM     26  C   UNL     1      34.466 -22.351 -18.034  0.00  0.00    +0.009 C 
ATOM     27  C   UNL     1      36.608 -21.679 -18.299  0.00  0.00    +0.059 C 
ATOM     28  C   UNL     1      35.189 -22.726 -16.900  0.00  0.00    +0.051 C 
ATOM     29  C   UNL     1      33.095 -22.665 -18.100  0.00  0.00    +0.001 C 
ATOM     30  C   UNL     1      34.605 -23.403 -15.823  0.00  0.00    +0.015 C 
ATOM     31  C   UNL     1      37.574 -22.489 -16.152  0.00  0.00    +0.117 C 
ATOM     32  C   UNL     1      32.497 -23.343 -17.030  0.00  0.00    +0.000 C 
ATOM     33  C   UNL     1      33.243 -23.705 -15.909  0.00  0.00    +0.001 C 
ENDBRANCH  23  25
ENDBRANCH  20  23
ENDBRANCH  19  20
ENDBRANCH   4  19
TORSDOF 6
ENDMDL
MODEL 5
REMARK VINA RESULT:     -10.3      7.830     12.355
REMARK  Name = 11538455
REMARK  6 active torsions:
REMARK  status: ('A' for Active; 'I' for Inactive)
REMARK    1  A    between atoms: C_4  and  C_19
REMARK    2  A    between atoms: C_12  and  C_15
REMARK    3  A    between atoms: N_14  and  O_17
REMARK    4  A    between atoms: C_19  and  N_20
REMARK    5  A    between atoms: N_20  and  C_23
REMARK    6  A    between atoms: C_23  and  C_25
REMARK                            x       y       z     vdW  Elec       q    Type
REMARK                         _______ _______ _______ _____ _____    ______ ____
ROOT
ATOM      1  N   UNL     1      32.662 -11.389 -22.460  0.00  0.00    -0.253 N 
ATOM      2  N   UNL     1      33.397 -12.900 -24.117  0.00  0.00    -0.203 NA
ATOM      3  N   UNL     1      33.444 -13.512 -21.787  0.00  0.00    -0.180 NA
ATOM      4  C   UNL     1      31.448  -8.857 -21.752  0.00  0.00    -0.018 C 
ATOM      5  C   UNL     1      32.377  -8.995 -22.963  0.00  0.00    +0.020 C 
ATOM      6  C   UNL     1      31.840  -9.888 -20.688  0.00  0.00    +0.020 C 
ATOM      7  C   UNL     1      32.369 -10.418 -23.520  0.00  0.00    +0.101 C 
ATOM      8  C   UNL     1      31.828 -11.307 -21.253  0.00  0.00    +0.101 C 
ATOM      9  C   UNL     1      33.185 -12.643 -22.799  0.00  0.00    +0.090 C 
ATOM     10  C   UNL     1      33.904 -14.116 -24.408  0.00  0.00    +0.170 C 
ATOM     11  C   UNL     1      33.950 -14.709 -22.149  0.00  0.00    +0.113 C 
ATOM     12  C   UNL     1      34.202 -15.070 -23.457  0.00  0.00    +0.078 C 
ENDROOT
BRANCH  12  15
ATOM     13  O   UNL     1      34.696 -16.787 -24.981  0.00  0.00    -0.268 OA
ATOM     14  N   UNL     1      35.306 -17.122 -22.783  0.00  0.00    -0.194 N 
ATOM     15  C   UNL     1      34.745 -16.368 -23.807  0.00  0.00    +0.267 C 
ATOM     16  H   UNL     1      35.344 -16.786 -21.858  0.00  0.00    +0.183 HD
BRANCH  14  17
ATOM     17  O   UNL     1      35.818 -18.381 -23.128  0.00  0.00    -0.295 OA
ATOM     18  H   UNL     1      36.445 -18.286 -23.862  0.00  0.00    +0.241 HD
ENDBRANCH  14  17
ENDBRANCH  12  15
BRANCH   4  19
ATOM     19  C   UNL     1      31.501  -7.441 -21.184  0.00  0.00    -0.081 C 
BRANCH  19  20
ATOM     20  N   UNL     1      30.818  -6.504 -22.062  0.00  0.00    +0.386 N 
ATOM     21  H   UNL     1      29.837  -6.445 -21.789  0.00  0.00    -0.084 HD
ATOM     22  H   UNL     1      30.902  -6.837 -23.022  0.00  0.00    -0.084 HD
BRANCH  20  23
ATOM     23  C   UNL     1      31.417  -5.177 -21.977  0.00  0.00    -0.053 C 
BRANCH  23  25
ATOM     24  N   UNL     1      32.240  -3.773 -25.246  0.00  0.00    -0.284 N 
ATOM     25  C   UNL     1      31.987  -4.769 -23.307  0.00  0.00    -0.028 C 
ATOM     26  C   UNL     1      33.182  -5.255 -23.870  0.00  0.00    +0.009 C 
ATOM     27  C   UNL     1      31.421  -3.866 -24.153  0.00  0.00    +0.059 C 
ATOM     28  C   UNL     1      33.323  -4.610 -25.100  0.00  0.00    +0.051 C 
ATOM     29  C   UNL     1      34.168  -6.177 -23.471  0.00  0.00    +0.001 C 
ATOM     30  C   UNL     1      34.406  -4.842 -25.956  0.00  0.00    +0.015 C 
ATOM     31  C   UNL     1      31.988  -2.912 -26.381  0.00  0.00    +0.117 C 
ATOM     32  C   UNL     1      35.258  -6.421 -24.316  0.00  0.00    +0.000 C 
ATOM     33  C   UNL     1      35.373  -5.762 -25.539  0.00  0.00    +0.001 C 
ENDBRANCH  23  25
ENDBRANCH  20  23
ENDBRANCH  19  20
ENDBRANCH   4  19
TORSDOF 6
ENDMDL
MODEL 6
REMARK VINA RESULT:     -10.2      5.499     11.065
REMARK  Name = 11538455
REMARK  6 active torsions:
REMARK  status: ('A' for Active; 'I' for Inactive)
REMARK    1  A    between atoms: C_4  and  C_19
REMARK    2  A    between atoms: C_12  and  C_15
REMARK    3  A    between atoms: N_14  and  O_17
REMARK    4  A    between atoms: C_19  and  N_20
REMARK    5  A    between atoms: N_20  and  C_23
REMARK    6  A    between atoms: C_23  and  C_25
REMARK                            x       y       z     vdW  Elec       q    Type
REMARK                         _______ _______ _______ _____ _____    ______ ____
ROOT
ATOM      1  N   UNL     1      34.381 -15.761 -22.375  0.00  0.00    -0.253 N 
ATOM      2  N   UNL     1      33.983 -13.915 -23.791  0.00  0.00    -0.203 NA
ATOM      3  N   UNL     1      33.401 -13.820 -21.455  0.00  0.00    -0.180 NA
ATOM      4  C   UNL     1      35.490 -18.405 -21.973  0.00  0.00    -0.018 C 
ATOM      5  C   UNL     1      34.849 -17.994 -23.301  0.00  0.00    +0.020 C 
ATOM      6  C   UNL     1      34.839 -17.622 -20.828  0.00  0.00    +0.020 C 
ATOM      7  C   UNL     1      34.933 -16.484 -23.525  0.00  0.00    +0.101 C 
ATOM      8  C   UNL     1      34.930 -16.115 -21.058  0.00  0.00    +0.101 C 
ATOM      9  C   UNL     1      33.906 -14.455 -22.545  0.00  0.00    +0.090 C 
ATOM     10  C   UNL     1      33.513 -12.657 -23.921  0.00  0.00    +0.170 C 
ATOM     11  C   UNL     1      32.950 -12.565 -21.655  0.00  0.00    +0.113 C 
ATOM     12  C   UNL     1      32.981 -11.926 -22.878  0.00  0.00    +0.078 C 
ENDROOT
BRANCH  12  15
ATOM     13  O   UNL     1      33.183  -9.707 -23.621  0.00  0.00    -0.268 OA
ATOM     14  N   UNL     1      31.221 -10.288 -22.559  0.00  0.00    -0.194 N 
ATOM     15  C   UNL     1      32.487 -10.575 -23.055  0.00  0.00    +0.267 C 
ATOM     16  H   UNL     1      30.675 -10.977 -22.113  0.00  0.00    +0.183 HD
BRANCH  14  17
ATOM     17  O   UNL     1      30.756  -8.976 -22.722  0.00  0.00    -0.295 OA
ATOM     18  H   UNL     1      31.467  -8.351 -22.512  0.00  0.00    +0.241 HD
ENDBRANCH  14  17
ENDBRANCH  12  15
BRANCH   4  19
ATOM     19  C   UNL     1      35.359 -19.909 -21.747  0.00  0.00    -0.081 C 
BRANCH  19  20
ATOM     20  N   UNL     1      35.218 -20.211 -20.331  0.00  0.00    +0.386 N 
ATOM     21  H   UNL     1      34.228 -20.202 -20.085  0.00  0.00    -0.084 HD
ATOM     22  H   UNL     1      35.725 -19.506 -19.796  0.00  0.00    -0.084 HD
BRANCH  20  23
ATOM     23  C   UNL     1      35.775 -21.521 -20.018  0.00  0.00    -0.053 C 
BRANCH  23  25
ATOM     24  N   UNL     1      33.605 -22.927 -17.440  0.00  0.00    -0.284 N 
ATOM     25  C   UNL     1      35.118 -22.095 -18.793  0.00  0.00    -0.028 C 
ATOM     26  C   UNL     1      35.755 -22.349 -17.565  0.00  0.00    +0.009 C 
ATOM     27  C   UNL     1      33.808 -22.451 -18.707  0.00  0.00    +0.059 C 
ATOM     28  C   UNL     1      34.777 -22.876 -16.720  0.00  0.00    +0.051 C 
ATOM     29  C   UNL     1      37.065 -22.189 -17.070  0.00  0.00    +0.001 C 
ATOM     30  C   UNL     1      35.043 -23.253 -15.398  0.00  0.00    +0.015 C 
ATOM     31  C   UNL     1      32.334 -23.411 -16.945  0.00  0.00    +0.117 C 
ATOM     32  C   UNL     1      37.346 -22.562 -15.749  0.00  0.00    +0.000 C 
ATOM     33  C   UNL     1      36.348 -23.086 -14.928  0.00  0.00    +0.001 C 
ENDBRANCH  23  25
ENDBRANCH  20  23
ENDBRANCH  19  20
ENDBRANCH   4  19
TORSDOF 6
ENDMDL
MODEL 7
REMARK VINA RESULT:     -10.2      6.590     10.604
REMARK  Name = 11538455
REMARK  6 active torsions:
REMARK  status: ('A' for Active; 'I' for Inactive)
REMARK    1  A    between atoms: C_4  and  C_19
REMARK    2  A    between atoms: C_12  and  C_15
REMARK    3  A    between atoms: N_14  and  O_17
REMARK    4  A    between atoms: C_19  and  N_20
REMARK    5  A    between atoms: N_20  and  C_23
REMARK    6  A    between atoms: C_23  and  C_25
REMARK                            x       y       z     vdW  Elec       q    Type
REMARK                         _______ _______ _______ _____ _____    ______ ____
ROOT
ATOM      1  N   UNL     1      33.152 -12.961 -22.031  0.00  0.00    -0.253 N 
ATOM      2  N   UNL     1      34.230 -14.740 -23.147  0.00  0.00    -0.203 NA
ATOM      3  N   UNL     1      33.942 -14.782 -20.755  0.00  0.00    -0.180 NA
ATOM      4  C   UNL     1      31.692 -10.463 -22.144  0.00  0.00    -0.018 C 
ATOM      5  C   UNL     1      32.808 -10.789 -23.141  0.00  0.00    +0.020 C 
ATOM      6  C   UNL     1      31.970 -11.173 -20.816  0.00  0.00    +0.020 C 
ATOM      7  C   UNL     1      32.974 -12.298 -23.327  0.00  0.00    +0.101 C 
ATOM      8  C   UNL     1      32.133 -12.680 -21.011  0.00  0.00    +0.101 C 
ATOM      9  C   UNL     1      33.796 -14.203 -21.975  0.00  0.00    +0.090 C 
ATOM     10  C   UNL     1      34.849 -15.935 -23.056  0.00  0.00    +0.170 C 
ATOM     11  C   UNL     1      34.569 -15.976 -20.737  0.00  0.00    +0.113 C 
ATOM     12  C   UNL     1      35.047 -16.607 -21.867  0.00  0.00    +0.078 C 
ENDROOT
BRANCH  12  15
ATOM     13  O   UNL     1      35.878 -18.577 -22.838  0.00  0.00    -0.268 OA
ATOM     14  N   UNL     1      36.152 -18.328 -20.563  0.00  0.00    -0.194 N 
ATOM     15  C   UNL     1      35.716 -17.892 -21.809  0.00  0.00    +0.267 C 
ATOM     16  H   UNL     1      36.022 -17.783 -19.753  0.00  0.00    +0.183 HD
BRANCH  14  17
ATOM     17  O   UNL     1      36.786 -19.578 -20.513  0.00  0.00    -0.295 OA
ATOM     18  H   UNL     1      37.070 -19.833 -21.404  0.00  0.00    +0.241 HD
ENDBRANCH  14  17
ENDBRANCH  12  15
BRANCH   4  19
ATOM     19  C   UNL     1      31.569  -8.955 -21.939  0.00  0.00    -0.081 C 
BRANCH  19  20
ATOM     20  N   UNL     1      31.836  -8.596 -20.555  0.00  0.00    +0.386 N 
ATOM     21  H   UNL     1      31.930  -9.448 -20.002  0.00  0.00    -0.084 HD
ATOM     22  H   UNL     1      31.061  -8.029 -20.210  0.00  0.00    -0.084 HD
BRANCH  20  23
ATOM     23  C   UNL     1      33.065  -7.819 -20.444  0.00  0.00    -0.053 C 
BRANCH  23  25
ATOM     24  N   UNL     1      34.249  -6.567 -23.663  0.00  0.00    -0.284 N 
ATOM     25  C   UNL     1      33.353  -7.100 -21.733  0.00  0.00    -0.028 C 
ATOM     26  C   UNL     1      32.690  -5.948 -22.194  0.00  0.00    +0.009 C 
ATOM     27  C   UNL     1      34.301  -7.470 -22.636  0.00  0.00    +0.059 C 
ATOM     28  C   UNL     1      33.275  -5.626 -23.421  0.00  0.00    +0.051 C 
ATOM     29  C   UNL     1      31.650  -5.133 -21.704  0.00  0.00    +0.001 C 
ATOM     30  C   UNL     1      32.870  -4.526 -24.185  0.00  0.00    +0.015 C 
ATOM     31  C   UNL     1      35.103  -6.612 -24.831  0.00  0.00    +0.117 C 
ATOM     32  C   UNL     1      31.234  -4.029 -22.458  0.00  0.00    +0.000 C 
ATOM     33  C   UNL     1      31.836  -3.732 -23.680  0.00  0.00    +0.001 C 
ENDBRANCH  23  25
ENDBRANCH  20  23
ENDBRANCH  19  20
ENDBRANCH   4  19
TORSDOF 6
ENDMDL
MODEL 8
REMARK VINA RESULT:      -9.9      7.240     11.137
REMARK  Name = 11538455
REMARK  6 active torsions:
REMARK  status: ('A' for Active; 'I' for Inactive)
REMARK    1  A    between atoms: C_4  and  C_19
REMARK    2  A    between atoms: C_12  and  C_15
REMARK    3  A    between atoms: N_14  and  O_17
REMARK    4  A    between atoms: C_19  and  N_20
REMARK    5  A    between atoms: N_20  and  C_23
REMARK    6  A    between atoms: C_23  and  C_25
REMARK                            x       y       z     vdW  Elec       q    Type
REMARK                         _______ _______ _______ _____ _____    ______ ____
ROOT
ATOM      1  N   UNL     1      33.160 -13.025 -22.092  0.00  0.00    -0.253 N 
ATOM      2  N   UNL     1      34.266 -14.807 -23.174  0.00  0.00    -0.203 NA
ATOM      3  N   UNL     1      33.952 -14.824 -20.785  0.00  0.00    -0.180 NA
ATOM      4  C   UNL     1      31.679 -10.542 -22.251  0.00  0.00    -0.018 C 
ATOM      5  C   UNL     1      32.809 -10.870 -23.232  0.00  0.00    +0.020 C 
ATOM      6  C   UNL     1      31.949 -11.234 -20.911  0.00  0.00    +0.020 C 
ATOM      7  C   UNL     1      32.990 -12.379 -23.398  0.00  0.00    +0.101 C 
ATOM      8  C   UNL     1      32.127 -12.741 -21.086  0.00  0.00    +0.101 C 
ATOM      9  C   UNL     1      33.814 -14.260 -22.014  0.00  0.00    +0.090 C 
ATOM     10  C   UNL     1      34.894 -15.996 -23.062  0.00  0.00    +0.170 C 
ATOM     11  C   UNL     1      34.589 -16.012 -20.746  0.00  0.00    +0.113 C 
ATOM     12  C   UNL     1      35.085 -16.652 -21.863  0.00  0.00    +0.078 C 
ENDROOT
BRANCH  12  15
ATOM     13  O   UNL     1      35.975 -18.610 -22.806  0.00  0.00    -0.268 OA
ATOM     14  N   UNL     1      36.154 -18.366 -20.521  0.00  0.00    -0.194 N 
ATOM     15  C   UNL     1      35.764 -17.930 -21.782  0.00  0.00    +0.267 C 
ATOM     16  H   UNL     1      35.987 -17.825 -19.715  0.00  0.00    +0.183 HD
BRANCH  14  17
ATOM     17  O   UNL     1      36.799 -19.609 -20.449  0.00  0.00    -0.295 OA
ATOM     18  H   UNL     1      37.689 -19.491 -20.082  0.00  0.00    +0.241 HD
ENDBRANCH  14  17
ENDBRANCH  12  15
BRANCH   4  19
ATOM     19  C   UNL     1      31.541  -9.033 -22.066  0.00  0.00    -0.081 C 
BRANCH  19  20
ATOM     20  N   UNL     1      32.574  -8.323 -22.805  0.00  0.00    +0.386 N 
ATOM     21  H   UNL     1      32.153  -7.877 -23.621  0.00  0.00    -0.084 HD
ATOM     22  H   UNL     1      33.288  -8.992 -23.092  0.00  0.00    -0.084 HD
BRANCH  20  23
ATOM     23  C   UNL     1      33.202  -7.302 -21.975  0.00  0.00    -0.053 C 
BRANCH  23  25
ATOM     24  N   UNL     1      31.638  -4.011 -22.222  0.00  0.00    -0.284 N 
ATOM     25  C   UNL     1      32.684  -5.937 -22.335  0.00  0.00    -0.028 C 
ATOM     26  C   UNL     1      32.944  -5.252 -23.536  0.00  0.00    +0.009 C 
ATOM     27  C   UNL     1      31.887  -5.172 -21.540  0.00  0.00    +0.059 C 
ATOM     28  C   UNL     1      32.271  -4.032 -23.444  0.00  0.00    +0.051 C 
ATOM     29  C   UNL     1      33.683  -5.532 -24.703  0.00  0.00    +0.001 C 
ATOM     30  C   UNL     1      32.299  -3.074 -24.464  0.00  0.00    +0.015 C 
ATOM     31  C   UNL     1      30.824  -2.927 -21.715  0.00  0.00    +0.117 C 
ATOM     32  C   UNL     1      33.720  -4.584 -25.733  0.00  0.00    +0.000 C 
ATOM     33  C   UNL     1      33.038  -3.374 -25.612  0.00  0.00    +0.001 C 
ENDBRANCH  23  25
ENDBRANCH  20  23
ENDBRANCH  19  20
ENDBRANCH   4  19
TORSDOF 6
ENDMDL
MODEL 9
REMARK VINA RESULT:      -9.9      7.268     11.073
REMARK  Name = 11538455
REMARK  6 active torsions:
REMARK  status: ('A' for Active; 'I' for Inactive)
REMARK    1  A    between atoms: C_4  and  C_19
REMARK    2  A    between atoms: C_12  and  C_15
REMARK    3  A    between atoms: N_14  and  O_17
REMARK    4  A    between atoms: C_19  and  N_20
REMARK    5  A    between atoms: N_20  and  C_23
REMARK    6  A    between atoms: C_23  and  C_25
REMARK                            x       y       z     vdW  Elec       q    Type
REMARK                         _______ _______ _______ _____ _____    ______ ____
ROOT
ATOM      1  N   UNL     1      33.138 -12.964 -21.962  0.00  0.00    -0.253 N 
ATOM      2  N   UNL     1      34.288 -14.698 -23.078  0.00  0.00    -0.203 NA
ATOM      3  N   UNL     1      33.870 -14.825 -20.708  0.00  0.00    -0.180 NA
ATOM      4  C   UNL     1      31.669 -10.472 -22.069  0.00  0.00    -0.018 C 
ATOM      5  C   UNL     1      32.840 -10.758 -23.014  0.00  0.00    +0.020 C 
ATOM      6  C   UNL     1      31.879 -11.227 -20.752  0.00  0.00    +0.020 C 
ATOM      7  C   UNL     1      33.026 -12.258 -23.243  0.00  0.00    +0.101 C 
ATOM      8  C   UNL     1      32.063 -12.725 -20.990  0.00  0.00    +0.101 C 
ATOM      9  C   UNL     1      33.787 -14.204 -21.914  0.00  0.00    +0.090 C 
ATOM     10  C   UNL     1      34.909 -15.893 -22.995  0.00  0.00    +0.170 C 
ATOM     11  C   UNL     1      34.504 -16.016 -20.697  0.00  0.00    +0.113 C 
ATOM     12  C   UNL     1      35.048 -16.604 -21.821  0.00  0.00    +0.078 C 
ENDROOT
BRANCH  12  15
ATOM     13  O   UNL     1      35.806 -18.607 -22.785  0.00  0.00    -0.268 OA
ATOM     14  N   UNL     1      36.251 -18.281 -20.547  0.00  0.00    -0.194 N 
ATOM     15  C   UNL     1      35.721 -17.887 -21.770  0.00  0.00    +0.267 C 
ATOM     16  H   UNL     1      36.182 -17.709 -19.748  0.00  0.00    +0.183 HD
BRANCH  14  17
ATOM     17  O   UNL     1      36.890 -19.529 -20.503  0.00  0.00    -0.295 OA
ATOM     18  H   UNL     1      36.697 -20.020 -21.317  0.00  0.00    +0.241 HD
ENDBRANCH  14  17
ENDBRANCH  12  15
BRANCH   4  19
ATOM     19  C   UNL     1      31.524  -8.973 -21.819  0.00  0.00    -0.081 C 
BRANCH  19  20
ATOM     20  N   UNL     1      32.825  -8.352 -21.621  0.00  0.00    +0.386 N 
ATOM     21  H   UNL     1      33.345  -8.380 -22.499  0.00  0.00    -0.084 HD
ATOM     22  H   UNL     1      33.323  -8.865 -20.894  0.00  0.00    -0.084 HD
BRANCH  20  23
ATOM     23  C   UNL     1      32.683  -6.965 -21.196  0.00  0.00    -0.053 C 
BRANCH  23  25
ATOM     24  N   UNL     1      32.884  -5.284 -24.432  0.00  0.00    -0.284 N 
ATOM     25  C   UNL     1      32.656  -6.048 -22.387  0.00  0.00    -0.028 C 
ATOM     26  C   UNL     1      32.201  -4.716 -22.386  0.00  0.00    +0.009 C 
ATOM     27  C   UNL     1      33.069  -6.385 -23.639  0.00  0.00    +0.059 C 
ATOM     28  C   UNL     1      32.355  -4.251 -23.693  0.00  0.00    +0.051 C 
ATOM     29  C   UNL     1      31.672  -3.845 -21.413  0.00  0.00    +0.001 C 
ATOM     30  C   UNL     1      32.005  -2.951 -24.078  0.00  0.00    +0.015 C 
ATOM     31  C   UNL     1      33.202  -5.233 -25.843  0.00  0.00    +0.117 C 
ATOM     32  C   UNL     1      31.317  -2.542 -21.783  0.00  0.00    +0.000 C 
ATOM     33  C   UNL     1      31.481  -2.104 -23.097  0.00  0.00    +0.001 C 
ENDBRANCH  23  25
ENDBRANCH  20  23
ENDBRANCH  19  20
ENDBRANCH   4  19
TORSDOF 6
ENDMDL
