MODEL 1
REMARK VINA RESULT:     -14.1      0.000      0.000
REMARK  Name = 89670174
REMARK  4 active torsions:
REMARK  status: ('A' for Active; 'I' for Inactive)
REMARK    1  A    between atoms: C_3  and  C_13
REMARK    2  A    between atoms: C_9  and  O_26
REMARK    3  A    between atoms: C_18  and  C_25
REMARK    4  A    between atoms: O_26  and  C_30
REMARK                            x       y       z     vdW  Elec       q    Type
REMARK                         _______ _______ _______ _____ _____    ______ ____
ROOT
ATOM      1  O   UNL     1      34.718 -19.638 -23.566  0.00  0.00    -0.479 OA
ATOM      2  C   UNL     1      35.446 -18.801 -21.388  0.00  0.00    +0.072 C 
ATOM      3  C   UNL     1      34.463 -19.903 -21.026  0.00  0.00    +0.085 C 
ATOM      4  C   UNL     1      35.311 -20.034 -22.273  0.00  0.00    +0.174 C 
ATOM      5  C   UNL     1      35.042 -17.711 -22.312  0.00  0.00    +0.018 C 
ATOM      6  C   UNL     1      34.647 -18.254 -23.542  0.00  0.00    +0.135 C 
ATOM      7  C   UNL     1      35.009 -16.336 -22.133  0.00  0.00    +0.036 C 
ATOM      8  C   UNL     1      34.214 -17.479 -24.600  0.00  0.00    +0.040 C 
ATOM      9  C   UNL     1      34.577 -15.530 -23.191  0.00  0.00    +0.145 C 
ATOM     10  C   UNL     1      34.182 -16.097 -24.415  0.00  0.00    +0.041 C 
ENDROOT
BRANCH   3  13
ATOM     11  N   UNL     1      35.945 -20.854 -19.188  0.00  0.00    -0.318 N 
ATOM     12  N   UNL     1      33.848 -21.584 -19.285  0.00  0.00    -0.318 N 
ATOM     13  C   UNL     1      34.739 -20.787 -19.830  0.00  0.00    +0.148 C 
ATOM     14  C   UNL     1      35.823 -21.753 -18.160  0.00  0.00    +0.059 C 
ATOM     15  C   UNL     1      34.505 -22.195 -18.241  0.00  0.00    +0.059 C 
ATOM     16  C   UNL     1      36.725 -22.205 -17.196  0.00  0.00    +0.019 C 
ATOM     17  C   UNL     1      34.042 -23.143 -17.313  0.00  0.00    +0.016 C 
ATOM     18  C   UNL     1      36.247 -23.149 -16.280  0.00  0.00    +0.073 C 
ATOM     19  C   UNL     1      34.930 -23.610 -16.336  0.00  0.00    +0.005 C 
ATOM     20  H   UNL     1      36.756 -20.347 -19.423  0.00  0.00    +0.148 HD
ATOM     21  H   UNL     1      32.912 -21.716 -19.562  0.00  0.00    +0.148 HD
BRANCH  18  25
ATOM     22  F   UNL     1      36.966 -23.092 -14.000  0.00  0.00    -0.166 F 
ATOM     23  F   UNL     1      37.046 -25.011 -15.008  0.00  0.00    -0.166 F 
ATOM     24  F   UNL     1      38.478 -23.457 -15.520  0.00  0.00    -0.166 F 
ATOM     25  C   UNL     1      37.163 -23.668 -15.222  0.00  0.00    +0.419 C 
ENDBRANCH  18  25
ENDBRANCH   3  13
BRANCH   9  26
ATOM     26  O   UNL     1      34.535 -14.156 -23.031  0.00  0.00    -0.454 OA
BRANCH  26  30
ATOM     27  O   UNL     1      31.161  -8.791 -23.002  0.00  0.00    -0.275 OA
ATOM     28  N   UNL     1      31.382 -10.731 -21.794  0.00  0.00    -0.270 N 
ATOM     29  N   UNL     1      31.622 -12.675 -20.466  0.00  0.00    -0.229 NA
ATOM     30  C   UNL     1      33.593 -13.645 -22.189  0.00  0.00    +0.146 C 
ATOM     31  C   UNL     1      32.994 -12.409 -22.438  0.00  0.00    +0.045 C 
ATOM     32  C   UNL     1      33.298 -11.627 -23.679  0.00  0.00    +0.042 C 
ATOM     33  C   UNL     1      33.219 -14.383 -21.072  0.00  0.00    +0.058 C 
ATOM     34  C   UNL     1      32.018 -11.963 -21.549  0.00  0.00    +0.133 C 
ATOM     35  C   UNL     1      33.094 -10.138 -23.444  0.00  0.00    +0.090 C 
ATOM     36  C   UNL     1      31.776  -9.830 -22.762  0.00  0.00    +0.227 C 
ATOM     37  C   UNL     1      32.236 -13.859 -20.252  0.00  0.00    +0.103 C 
ATOM     38  H   UNL     1      30.604 -10.496 -21.237  0.00  0.00    +0.156 HD
ENDBRANCH  26  30
ENDBRANCH   9  26
TORSDOF 4
ENDMDL
MODEL 2
REMARK VINA RESULT:     -13.6      1.952      2.527
REMARK  Name = 89670174
REMARK  4 active torsions:
REMARK  status: ('A' for Active; 'I' for Inactive)
REMARK    1  A    between atoms: C_3  and  C_13
REMARK    2  A    between atoms: C_9  and  O_26
REMARK    3  A    between atoms: C_18  and  C_25
REMARK    4  A    between atoms: O_26  and  C_30
REMARK                            x       y       z     vdW  Elec       q    Type
REMARK                         _______ _______ _______ _____ _____    ______ ____
ROOT
ATOM      1  O   UNL     1      34.750 -19.919 -23.246  0.00  0.00    -0.479 OA
ATOM      2  C   UNL     1      34.953 -19.158 -20.931  0.00  0.00    +0.072 C 
ATOM      3  C   UNL     1      33.810 -20.159 -20.870  0.00  0.00    +0.085 C 
ATOM      4  C   UNL     1      34.940 -20.372 -21.853  0.00  0.00    +0.174 C 
ATOM      5  C   UNL     1      34.912 -18.033 -21.900  0.00  0.00    +0.018 C 
ATOM      6  C   UNL     1      34.806 -18.534 -23.204  0.00  0.00    +0.135 C 
ATOM      7  C   UNL     1      34.962 -16.662 -21.699  0.00  0.00    +0.036 C 
ATOM      8  C   UNL     1      34.742 -17.720 -24.318  0.00  0.00    +0.040 C 
ATOM      9  C   UNL     1      34.903 -15.817 -22.812  0.00  0.00    +0.145 C 
ATOM     10  C   UNL     1      34.794 -16.342 -24.112  0.00  0.00    +0.041 C 
ENDROOT
BRANCH   3  13
ATOM     11  N   UNL     1      32.491 -21.336 -19.038  0.00  0.00    -0.318 N 
ATOM     12  N   UNL     1      34.685 -21.689 -19.101  0.00  0.00    -0.318 N 
ATOM     13  C   UNL     1      33.675 -21.067 -19.666  0.00  0.00    +0.148 C 
ATOM     14  C   UNL     1      32.754 -22.190 -17.998  0.00  0.00    +0.059 C 
ATOM     15  C   UNL     1      34.129 -22.395 -18.057  0.00  0.00    +0.059 C 
ATOM     16  C   UNL     1      31.931 -22.782 -17.038  0.00  0.00    +0.019 C 
ATOM     17  C   UNL     1      34.738 -23.238 -17.112  0.00  0.00    +0.016 C 
ATOM     18  C   UNL     1      32.554 -23.618 -16.105  0.00  0.00    +0.073 C 
ATOM     19  C   UNL     1      33.932 -23.843 -16.140  0.00  0.00    +0.005 C 
ATOM     20  H   UNL     1      31.608 -20.980 -19.288  0.00  0.00    +0.148 HD
ATOM     21  H   UNL     1      35.632 -21.658 -19.365  0.00  0.00    +0.148 HD
BRANCH  18  25
ATOM     22  F   UNL     1      30.713 -25.044 -15.561  0.00  0.00    -0.166 F 
ATOM     23  F   UNL     1      32.439 -25.124 -14.250  0.00  0.00    -0.166 F 
ATOM     24  F   UNL     1      31.131 -23.388 -14.215  0.00  0.00    -0.166 F 
ATOM     25  C   UNL     1      31.727 -24.282 -15.055  0.00  0.00    +0.419 C 
ENDBRANCH  18  25
ENDBRANCH   3  13
BRANCH   9  26
ATOM     26  O   UNL     1      34.950 -14.446 -22.633  0.00  0.00    -0.454 OA
BRANCH  26  30
ATOM     27  O   UNL     1      31.800  -9.040 -23.651  0.00  0.00    -0.275 OA
ATOM     28  N   UNL     1      31.735 -10.877 -22.273  0.00  0.00    -0.270 N 
ATOM     29  N   UNL     1      31.667 -12.706 -20.775  0.00  0.00    -0.229 NA
ATOM     30  C   UNL     1      33.887 -13.850 -22.023  0.00  0.00    +0.146 C 
ATOM     31  C   UNL     1      33.383 -12.629 -22.475  0.00  0.00    +0.045 C 
ATOM     32  C   UNL     1      33.934 -11.959 -23.696  0.00  0.00    +0.042 C 
ATOM     33  C   UNL     1      33.292 -14.486 -20.939  0.00  0.00    +0.058 C 
ATOM     34  C   UNL     1      32.276 -12.094 -21.819  0.00  0.00    +0.133 C 
ATOM     35  C   UNL     1      33.738 -10.453 -23.621  0.00  0.00    +0.090 C 
ATOM     36  C   UNL     1      32.328 -10.066 -23.220  0.00  0.00    +0.227 C 
ATOM     37  C   UNL     1      32.193 -13.879 -20.358  0.00  0.00    +0.103 C 
ATOM     38  H   UNL     1      30.877 -10.583 -21.890  0.00  0.00    +0.156 HD
ENDBRANCH  26  30
ENDBRANCH   9  26
TORSDOF 4
ENDMDL
MODEL 3
REMARK VINA RESULT:     -13.5      0.946      1.516
REMARK  Name = 89670174
REMARK  4 active torsions:
REMARK  status: ('A' for Active; 'I' for Inactive)
REMARK    1  A    between atoms: C_3  and  C_13
REMARK    2  A    between atoms: C_9  and  O_26
REMARK    3  A    between atoms: C_18  and  C_25
REMARK    4  A    between atoms: O_26  and  C_30
REMARK                            x       y       z     vdW  Elec       q    Type
REMARK                         _______ _______ _______ _____ _____    ______ ____
ROOT
ATOM      1  O   UNL     1      34.898 -19.974 -23.205  0.00  0.00    -0.479 OA
ATOM      2  C   UNL     1      35.722 -19.063 -21.092  0.00  0.00    +0.072 C 
ATOM      3  C   UNL     1      34.746 -20.142 -20.648  0.00  0.00    +0.085 C 
ATOM      4  C   UNL     1      35.541 -20.327 -21.923  0.00  0.00    +0.174 C 
ATOM      5  C   UNL     1      35.289 -18.005 -22.039  0.00  0.00    +0.018 C 
ATOM      6  C   UNL     1      34.839 -18.590 -23.230  0.00  0.00    +0.135 C 
ATOM      7  C   UNL     1      35.274 -16.624 -21.910  0.00  0.00    +0.036 C 
ATOM      8  C   UNL     1      34.368 -17.850 -24.297  0.00  0.00    +0.040 C 
ATOM      9  C   UNL     1      34.804 -15.854 -22.979  0.00  0.00    +0.145 C 
ATOM     10  C   UNL     1      34.355 -16.463 -24.164  0.00  0.00    +0.041 C 
ENDROOT
BRANCH   3  13
ATOM     11  N   UNL     1      34.162 -21.799 -18.807  0.00  0.00    -0.318 N 
ATOM     12  N   UNL     1      36.242 -21.016 -18.851  0.00  0.00    -0.318 N 
ATOM     13  C   UNL     1      35.065 -20.984 -19.432  0.00  0.00    +0.148 C 
ATOM     14  C   UNL     1      34.801 -22.398 -17.751  0.00  0.00    +0.059 C 
ATOM     15  C   UNL     1      36.098 -21.894 -17.800  0.00  0.00    +0.059 C 
ATOM     16  C   UNL     1      34.369 -23.310 -16.787  0.00  0.00    +0.019 C 
ATOM     17  C   UNL     1      37.032 -22.313 -16.838  0.00  0.00    +0.016 C 
ATOM     18  C   UNL     1      35.312 -23.716 -15.837  0.00  0.00    +0.073 C 
ATOM     19  C   UNL     1      36.620 -23.228 -15.861  0.00  0.00    +0.005 C 
ATOM     20  H   UNL     1      33.222 -21.932 -19.067  0.00  0.00    +0.148 HD
ATOM     21  H   UNL     1      37.053 -20.522 -19.110  0.00  0.00    +0.148 HD
BRANCH  18  25
ATOM     22  F   UNL     1      35.465 -24.434 -13.561  0.00  0.00    -0.166 F 
ATOM     23  F   UNL     1      33.564 -24.736 -14.560  0.00  0.00    -0.166 F 
ATOM     24  F   UNL     1      35.274 -25.971 -15.088  0.00  0.00    -0.166 F 
ATOM     25  C   UNL     1      34.911 -24.693 -14.782  0.00  0.00    +0.419 C 
ENDBRANCH  18  25
ENDBRANCH   3  13
BRANCH   9  26
ATOM     26  O   UNL     1      34.780 -14.475 -22.869  0.00  0.00    -0.454 OA
BRANCH  26  30
ATOM     27  O   UNL     1      31.477  -9.079 -23.261  0.00  0.00    -0.275 OA
ATOM     28  N   UNL     1      31.607 -10.967 -21.960  0.00  0.00    -0.270 N 
ATOM     29  N   UNL     1      31.748 -12.853 -20.538  0.00  0.00    -0.229 NA
ATOM     30  C   UNL     1      33.799 -13.918 -22.105  0.00  0.00    +0.146 C 
ATOM     31  C   UNL     1      33.231 -12.688 -22.440  0.00  0.00    +0.045 C 
ATOM     32  C   UNL     1      33.613 -11.964 -23.695  0.00  0.00    +0.042 C 
ATOM     33  C   UNL     1      33.354 -14.602 -20.979  0.00  0.00    +0.058 C 
ATOM     34  C   UNL     1      32.212 -12.194 -21.627  0.00  0.00    +0.133 C 
ATOM     35  C   UNL     1      33.415 -10.465 -23.536  0.00  0.00    +0.090 C 
ATOM     36  C   UNL     1      32.065 -10.113 -22.943  0.00  0.00    +0.227 C 
ATOM     37  C   UNL     1      32.334 -14.033 -20.239  0.00  0.00    +0.103 C 
ATOM     38  H   UNL     1      30.802 -10.700 -21.459  0.00  0.00    +0.156 HD
ENDBRANCH  26  30
ENDBRANCH   9  26
TORSDOF 4
ENDMDL
MODEL 4
REMARK VINA RESULT:     -13.1      5.696     11.187
REMARK  Name = 89670174
REMARK  4 active torsions:
REMARK  status: ('A' for Active; 'I' for Inactive)
REMARK    1  A    between atoms: C_3  and  C_13
REMARK    2  A    between atoms: C_9  and  O_26
REMARK    3  A    between atoms: C_18  and  C_25
REMARK    4  A    between atoms: O_26  and  C_30
REMARK                            x       y       z     vdW  Elec       q    Type
REMARK                         _______ _______ _______ _____ _____    ______ ____
ROOT
ATOM      1  O   UNL     1      36.948 -19.147 -21.296  0.00  0.00    -0.479 OA
ATOM      2  C   UNL     1      34.561 -18.618 -21.315  0.00  0.00    +0.072 C 
ATOM      3  C   UNL     1      35.209 -17.295 -20.935  0.00  0.00    +0.085 C 
ATOM      4  C   UNL     1      35.931 -18.242 -21.868  0.00  0.00    +0.174 C 
ATOM      5  C   UNL     1      34.866 -19.850 -20.544  0.00  0.00    +0.018 C 
ATOM      6  C   UNL     1      36.244 -20.103 -20.580  0.00  0.00    +0.135 C 
ATOM      7  C   UNL     1      34.033 -20.713 -19.850  0.00  0.00    +0.036 C 
ATOM      8  C   UNL     1      36.825 -21.183 -19.945  0.00  0.00    +0.040 C 
ATOM      9  C   UNL     1      34.597 -21.817 -19.201  0.00  0.00    +0.145 C 
ATOM     10  C   UNL     1      35.983 -22.049 -19.248  0.00  0.00    +0.041 C 
ENDROOT
BRANCH   3  13
ATOM     11  N   UNL     1      33.802 -15.181 -20.758  0.00  0.00    -0.318 N 
ATOM     12  N   UNL     1      34.875 -15.534 -22.673  0.00  0.00    -0.318 N 
ATOM     13  C   UNL     1      34.634 -16.001 -21.469  0.00  0.00    +0.148 C 
ATOM     14  C   UNL     1      33.486 -14.112 -21.557  0.00  0.00    +0.059 C 
ATOM     15  C   UNL     1      34.167 -14.355 -22.747  0.00  0.00    +0.059 C 
ATOM     16  C   UNL     1      32.686 -12.988 -21.348  0.00  0.00    +0.019 C 
ATOM     17  C   UNL     1      34.056 -13.433 -23.800  0.00  0.00    +0.016 C 
ATOM     18  C   UNL     1      32.586 -12.080 -22.408  0.00  0.00    +0.073 C 
ATOM     19  C   UNL     1      33.259 -12.297 -23.612  0.00  0.00    +0.005 C 
ATOM     20  H   UNL     1      33.487 -15.331 -19.838  0.00  0.00    +0.148 HD
ATOM     21  H   UNL     1      35.439 -15.938 -23.372  0.00  0.00    +0.148 HD
BRANCH  18  25
ATOM     22  F   UNL     1      30.420 -11.124 -22.077  0.00  0.00    -0.166 F 
ATOM     23  F   UNL     1      32.097 -10.095 -21.165  0.00  0.00    -0.166 F 
ATOM     24  F   UNL     1      31.823 -10.023 -23.321  0.00  0.00    -0.166 F 
ATOM     25  C   UNL     1      31.748 -10.856 -22.244  0.00  0.00    +0.419 C 
ENDBRANCH  18  25
ENDBRANCH   3  13
BRANCH   9  26
ATOM     26  O   UNL     1      33.783 -22.689 -18.502  0.00  0.00    -0.454 OA
BRANCH  26  30
ATOM     27  O   UNL     1      30.361 -24.381 -13.442  0.00  0.00    -0.275 OA
ATOM     28  N   UNL     1      32.545 -23.983 -14.031  0.00  0.00    -0.270 N 
ATOM     29  N   UNL     1      34.801 -23.510 -14.559  0.00  0.00    -0.229 NA
ATOM     30  C   UNL     1      34.095 -22.942 -17.200  0.00  0.00    +0.146 C 
ATOM     31  C   UNL     1      33.114 -23.312 -16.278  0.00  0.00    +0.045 C 
ATOM     32  C   UNL     1      31.691 -23.528 -16.694  0.00  0.00    +0.042 C 
ATOM     33  C   UNL     1      35.421 -22.839 -16.795  0.00  0.00    +0.058 C 
ATOM     34  C   UNL     1      33.513 -23.583 -14.971  0.00  0.00    +0.133 C 
ATOM     35  C   UNL     1      30.744 -23.270 -15.532  0.00  0.00    +0.090 C 
ATOM     36  C   UNL     1      31.183 -23.960 -14.256  0.00  0.00    +0.227 C 
ATOM     37  C   UNL     1      35.719 -23.134 -15.477  0.00  0.00    +0.103 C 
ATOM     38  H   UNL     1      32.859 -24.301 -13.153  0.00  0.00    +0.156 HD
ENDBRANCH  26  30
ENDBRANCH   9  26
TORSDOF 4
ENDMDL
MODEL 5
REMARK VINA RESULT:     -12.6      5.046      8.973
REMARK  Name = 89670174
REMARK  4 active torsions:
REMARK  status: ('A' for Active; 'I' for Inactive)
REMARK    1  A    between atoms: C_3  and  C_13
REMARK    2  A    between atoms: C_9  and  O_26
REMARK    3  A    between atoms: C_18  and  C_25
REMARK    4  A    between atoms: O_26  and  C_30
REMARK                            x       y       z     vdW  Elec       q    Type
REMARK                         _______ _______ _______ _____ _____    ______ ____
ROOT
ATOM      1  O   UNL     1      31.388 -10.216 -21.590  0.00  0.00    -0.479 OA
ATOM      2  C   UNL     1      32.974 -10.812 -23.352  0.00  0.00    +0.072 C 
ATOM      3  C   UNL     1      33.281 -11.818 -22.253  0.00  0.00    +0.085 C 
ATOM      4  C   UNL     1      31.863 -11.324 -22.443  0.00  0.00    +0.174 C 
ATOM      5  C   UNL     1      32.970  -9.357 -23.057  0.00  0.00    +0.018 C 
ATOM      6  C   UNL     1      32.036  -9.080 -22.049  0.00  0.00    +0.135 C 
ATOM      7  C   UNL     1      33.710  -8.319 -23.604  0.00  0.00    +0.036 C 
ATOM      8  C   UNL     1      31.815  -7.807 -21.562  0.00  0.00    +0.040 C 
ATOM      9  C   UNL     1      33.501  -7.021 -23.128  0.00  0.00    +0.145 C 
ATOM     10  C   UNL     1      32.560  -6.767 -22.115  0.00  0.00    +0.041 C 
ENDROOT
BRANCH   3  13
ATOM     11  N   UNL     1      34.228 -14.128 -21.763  0.00  0.00    -0.318 N 
ATOM     12  N   UNL     1      33.425 -13.769 -23.804  0.00  0.00    -0.318 N 
ATOM     13  C   UNL     1      33.640 -13.241 -22.621  0.00  0.00    +0.148 C 
ATOM     14  C   UNL     1      34.403 -15.309 -22.438  0.00  0.00    +0.059 C 
ATOM     15  C   UNL     1      33.894 -15.060 -23.709  0.00  0.00    +0.059 C 
ATOM     16  C   UNL     1      34.947 -16.537 -22.057  0.00  0.00    +0.019 C 
ATOM     17  C   UNL     1      33.920 -16.084 -24.671  0.00  0.00    +0.016 C 
ATOM     18  C   UNL     1      34.965 -17.545 -23.027  0.00  0.00    +0.073 C 
ATOM     19  C   UNL     1      34.461 -17.324 -24.311  0.00  0.00    +0.005 C 
ATOM     20  H   UNL     1      34.480 -13.952 -20.828  0.00  0.00    +0.148 HD
ATOM     21  H   UNL     1      33.016 -13.337 -24.588  0.00  0.00    +0.148 HD
BRANCH  18  25
ATOM     22  F   UNL     1      35.246 -19.850 -23.599  0.00  0.00    -0.166 F 
ATOM     23  F   UNL     1      36.892 -18.886 -22.567  0.00  0.00    -0.166 F 
ATOM     24  F   UNL     1      35.062 -19.354 -21.489  0.00  0.00    -0.166 F 
ATOM     25  C   UNL     1      35.532 -18.881 -22.680  0.00  0.00    +0.419 C 
ENDBRANCH  18  25
ENDBRANCH   3  13
BRANCH   9  26
ATOM     26  O   UNL     1      34.230  -5.972 -23.660  0.00  0.00    -0.454 OA
BRANCH  26  30
ATOM     27  O   UNL     1      35.159  -6.233 -29.924  0.00  0.00    -0.275 OA
ATOM     28  N   UNL     1      33.843  -5.145 -28.389  0.00  0.00    -0.270 N 
ATOM     29  N   UNL     1      32.516  -3.935 -26.849  0.00  0.00    -0.229 NA
ATOM     30  C   UNL     1      33.694  -5.299 -24.716  0.00  0.00    +0.146 C 
ATOM     31  C   UNL     1      34.091  -5.574 -26.026  0.00  0.00    +0.045 C 
ATOM     32  C   UNL     1      35.061  -6.673 -26.337  0.00  0.00    +0.042 C 
ATOM     33  C   UNL     1      32.725  -4.332 -24.475  0.00  0.00    +0.058 C 
ATOM     34  C   UNL     1      33.477  -4.866 -27.058  0.00  0.00    +0.133 C 
ATOM     35  C   UNL     1      35.817  -6.379 -27.623  0.00  0.00    +0.090 C 
ATOM     36  C   UNL     1      34.903  -5.951 -28.754  0.00  0.00    +0.227 C 
ATOM     37  C   UNL     1      32.171  -3.688 -25.566  0.00  0.00    +0.103 C 
ATOM     38  H   UNL     1      33.308  -4.737 -29.108  0.00  0.00    +0.156 HD
ENDBRANCH  26  30
ENDBRANCH   9  26
TORSDOF 4
ENDMDL
MODEL 6
REMARK VINA RESULT:     -12.4      2.567      4.405
REMARK  Name = 89670174
REMARK  4 active torsions:
REMARK  status: ('A' for Active; 'I' for Inactive)
REMARK    1  A    between atoms: C_3  and  C_13
REMARK    2  A    between atoms: C_9  and  O_26
REMARK    3  A    between atoms: C_18  and  C_25
REMARK    4  A    between atoms: O_26  and  C_30
REMARK                            x       y       z     vdW  Elec       q    Type
REMARK                         _______ _______ _______ _____ _____    ______ ____
ROOT
ATOM      1  O   UNL     1      33.402 -22.014 -19.588  0.00  0.00    -0.479 OA
ATOM      2  C   UNL     1      35.784 -21.800 -19.083  0.00  0.00    +0.072 C 
ATOM      3  C   UNL     1      35.149 -21.952 -17.709  0.00  0.00    +0.085 C 
ATOM      4  C   UNL     1      34.539 -22.659 -18.900  0.00  0.00    +0.174 C 
ATOM      5  C   UNL     1      35.303 -20.752 -20.019  0.00  0.00    +0.018 C 
ATOM      6  C   UNL     1      33.938 -20.936 -20.275  0.00  0.00    +0.135 C 
ATOM      7  C   UNL     1      35.974 -19.701 -20.624  0.00  0.00    +0.036 C 
ATOM      8  C   UNL     1      33.213 -20.108 -21.109  0.00  0.00    +0.040 C 
ATOM      9  C   UNL     1      35.262 -18.850 -21.476  0.00  0.00    +0.145 C 
ATOM     10  C   UNL     1      33.892 -19.052 -21.717  0.00  0.00    +0.041 C 
ENDROOT
BRANCH   3  13
ATOM     11  N   UNL     1      35.228 -23.556 -15.735  0.00  0.00    -0.318 N 
ATOM     12  N   UNL     1      37.165 -22.754 -16.474  0.00  0.00    -0.318 N 
ATOM     13  C   UNL     1      35.863 -22.752 -16.641  0.00  0.00    +0.148 C 
ATOM     14  C   UNL     1      36.187 -24.115 -14.929  0.00  0.00    +0.059 C 
ATOM     15  C   UNL     1      37.387 -23.600 -15.410  0.00  0.00    +0.059 C 
ATOM     16  C   UNL     1      36.109 -25.001 -13.853  0.00  0.00    +0.019 C 
ATOM     17  C   UNL     1      38.592 -23.980 -14.794  0.00  0.00    +0.016 C 
ATOM     18  C   UNL     1      37.318 -25.368 -13.252  0.00  0.00    +0.073 C 
ATOM     19  C   UNL     1      38.538 -24.867 -13.713  0.00  0.00    +0.005 C 
ATOM     20  H   UNL     1      34.258 -23.706 -15.671  0.00  0.00    +0.148 HD
ATOM     21  H   UNL     1      37.838 -22.260 -16.996  0.00  0.00    +0.148 HD
BRANCH  18  25
ATOM     22  F   UNL     1      36.933 -27.584 -12.440  0.00  0.00    -0.166 F 
ATOM     23  F   UNL     1      38.512 -26.448 -11.482  0.00  0.00    -0.166 F 
ATOM     24  F   UNL     1      36.431 -25.931 -11.120  0.00  0.00    -0.166 F 
ATOM     25  C   UNL     1      37.301 -26.315 -12.098  0.00  0.00    +0.419 C 
ENDBRANCH  18  25
ENDBRANCH   3  13
BRANCH   9  26
ATOM     26  O   UNL     1      35.913 -17.794 -22.089  0.00  0.00    -0.454 OA
BRANCH  26  30
ATOM     27  O   UNL     1      32.558 -12.696 -20.376  0.00  0.00    -0.275 OA
ATOM     28  N   UNL     1      33.151 -13.852 -22.270  0.00  0.00    -0.270 N 
ATOM     29  N   UNL     1      33.664 -15.047 -24.246  0.00  0.00    -0.229 NA
ATOM     30  C   UNL     1      35.154 -16.895 -22.777  0.00  0.00    +0.146 C 
ATOM     31  C   UNL     1      34.517 -15.837 -22.127  0.00  0.00    +0.045 C 
ATOM     32  C   UNL     1      34.702 -15.593 -20.661  0.00  0.00    +0.042 C 
ATOM     33  C   UNL     1      35.030 -17.037 -24.155  0.00  0.00    +0.058 C 
ATOM     34  C   UNL     1      33.781 -14.941 -22.901  0.00  0.00    +0.133 C 
ATOM     35  C   UNL     1      33.492 -14.884 -20.074  0.00  0.00    +0.090 C 
ATOM     36  C   UNL     1      33.054 -13.693 -20.902  0.00  0.00    +0.227 C 
ATOM     37  C   UNL     1      34.284 -16.093 -24.836  0.00  0.00    +0.103 C 
ATOM     38  H   UNL     1      32.752 -13.157 -22.843  0.00  0.00    +0.156 HD
ENDBRANCH  26  30
ENDBRANCH   9  26
TORSDOF 4
ENDMDL
MODEL 7
REMARK VINA RESULT:     -12.4      5.790     11.331
REMARK  Name = 89670174
REMARK  4 active torsions:
REMARK  status: ('A' for Active; 'I' for Inactive)
REMARK    1  A    between atoms: C_3  and  C_13
REMARK    2  A    between atoms: C_9  and  O_26
REMARK    3  A    between atoms: C_18  and  C_25
REMARK    4  A    between atoms: O_26  and  C_30
REMARK                            x       y       z     vdW  Elec       q    Type
REMARK                         _______ _______ _______ _____ _____    ______ ____
ROOT
ATOM      1  O   UNL     1      37.339 -20.062 -19.421  0.00  0.00    -0.479 OA
ATOM      2  C   UNL     1      35.280 -20.144 -20.737  0.00  0.00    +0.072 C 
ATOM      3  C   UNL     1      35.437 -18.663 -20.428  0.00  0.00    +0.085 C 
ATOM      4  C   UNL     1      36.667 -19.524 -20.621  0.00  0.00    +0.174 C 
ATOM      5  C   UNL     1      35.296 -21.144 -19.639  0.00  0.00    +0.018 C 
ATOM      6  C   UNL     1      36.502 -21.053 -18.932  0.00  0.00    +0.135 C 
ATOM      7  C   UNL     1      34.349 -22.081 -19.253  0.00  0.00    +0.036 C 
ATOM      8  C   UNL     1      36.800 -21.858 -17.850  0.00  0.00    +0.040 C 
ATOM      9  C   UNL     1      34.630 -22.910 -18.162  0.00  0.00    +0.145 C 
ATOM     10  C   UNL     1      35.846 -22.799 -17.466  0.00  0.00    +0.041 C 
ENDROOT
BRANCH   3  13
ATOM     11  N   UNL     1      34.863 -16.311 -21.212  0.00  0.00    -0.318 N 
ATOM     12  N   UNL     1      34.887 -17.918 -22.747  0.00  0.00    -0.318 N 
ATOM     13  C   UNL     1      35.062 -17.638 -21.476  0.00  0.00    +0.148 C 
ATOM     14  C   UNL     1      34.539 -15.694 -22.393  0.00  0.00    +0.059 C 
ATOM     15  C   UNL     1      34.560 -16.717 -23.336  0.00  0.00    +0.059 C 
ATOM     16  C   UNL     1      34.237 -14.368 -22.708  0.00  0.00    +0.019 C 
ATOM     17  C   UNL     1      34.266 -16.420 -24.677  0.00  0.00    +0.016 C 
ATOM     18  C   UNL     1      33.947 -14.089 -24.048  0.00  0.00    +0.073 C 
ATOM     19  C   UNL     1      33.961 -15.096 -25.016  0.00  0.00    +0.005 C 
ATOM     20  H   UNL     1      34.939 -15.876 -20.332  0.00  0.00    +0.148 HD
ATOM     21  H   UNL     1      34.971 -18.796 -23.185  0.00  0.00    +0.148 HD
BRANCH  18  25
ATOM     22  F   UNL     1      32.701 -12.091 -23.634  0.00  0.00    -0.166 F 
ATOM     23  F   UNL     1      34.698 -11.853 -24.443  0.00  0.00    -0.166 F 
ATOM     24  F   UNL     1      33.100 -12.613 -25.707  0.00  0.00    -0.166 F 
ATOM     25  C   UNL     1      33.619 -12.689 -24.448  0.00  0.00    +0.419 C 
ENDBRANCH  18  25
ENDBRANCH   3  13
BRANCH   9  26
ATOM     26  O   UNL     1      33.697 -23.850 -17.760  0.00  0.00    -0.454 OA
BRANCH  26  30
ATOM     27  O   UNL     1      34.839 -24.530 -11.563  0.00  0.00    -0.275 OA
ATOM     28  N   UNL     1      33.211 -23.728 -12.970  0.00  0.00    -0.270 N 
ATOM     29  N   UNL     1      31.466 -22.960 -14.371  0.00  0.00    -0.229 NA
ATOM     30  C   UNL     1      32.972 -23.584 -16.638  0.00  0.00    +0.146 C 
ATOM     31  C   UNL     1      33.489 -23.834 -15.366  0.00  0.00    +0.045 C 
ATOM     32  C   UNL     1      34.890 -24.328 -15.172  0.00  0.00    +0.042 C 
ATOM     33  C   UNL     1      31.699 -23.041 -16.774  0.00  0.00    +0.058 C 
ATOM     34  C   UNL     1      32.700 -23.509 -14.263  0.00  0.00    +0.133 C 
ATOM     35  C   UNL     1      35.010 -25.121 -13.880  0.00  0.00    +0.090 C 
ATOM     36  C   UNL     1      34.379 -24.412 -12.699  0.00  0.00    +0.227 C 
ATOM     37  C   UNL     1      30.996 -22.747 -15.620  0.00  0.00    +0.103 C 
ATOM     38  H   UNL     1      32.701 -23.370 -12.207  0.00  0.00    +0.156 HD
ENDBRANCH  26  30
ENDBRANCH   9  26
TORSDOF 4
ENDMDL
MODEL 8
REMARK VINA RESULT:     -12.4      6.595     12.378
REMARK  Name = 89670174
REMARK  4 active torsions:
REMARK  status: ('A' for Active; 'I' for Inactive)
REMARK    1  A    between atoms: C_3  and  C_13
REMARK    2  A    between atoms: C_9  and  O_26
REMARK    3  A    between atoms: C_18  and  C_25
REMARK    4  A    between atoms: O_26  and  C_30
REMARK                            x       y       z     vdW  Elec       q    Type
REMARK                         _______ _______ _______ _____ _____    ______ ____
ROOT
ATOM      1  O   UNL     1      31.178 -23.828 -16.115  0.00  0.00    -0.479 OA
ATOM      2  C   UNL     1      33.330 -22.677 -15.967  0.00  0.00    +0.072 C 
ATOM      3  C   UNL     1      33.278 -23.132 -17.417  0.00  0.00    +0.085 C 
ATOM      4  C   UNL     1      31.999 -22.750 -16.704  0.00  0.00    +0.174 C 
ATOM      5  C   UNL     1      33.129 -23.656 -14.867  0.00  0.00    +0.018 C 
ATOM      6  C   UNL     1      31.878 -24.271 -15.003  0.00  0.00    +0.135 C 
ATOM      7  C   UNL     1      33.952 -24.010 -13.809  0.00  0.00    +0.036 C 
ATOM      8  C   UNL     1      31.416 -25.232 -14.126  0.00  0.00    +0.040 C 
ATOM      9  C   UNL     1      33.504 -24.979 -12.905  0.00  0.00    +0.145 C 
ATOM     10  C   UNL     1      32.246 -25.586 -13.063  0.00  0.00    +0.041 C 
ENDROOT
BRANCH   3  13
ATOM     11  N   UNL     1      33.064 -21.584 -19.427  0.00  0.00    -0.318 N 
ATOM     12  N   UNL     1      35.113 -21.991 -18.667  0.00  0.00    -0.318 N 
ATOM     13  C   UNL     1      33.833 -22.235 -18.502  0.00  0.00    +0.148 C 
ATOM     14  C   UNL     1      33.905 -20.872 -20.243  0.00  0.00    +0.059 C 
ATOM     15  C   UNL     1      35.178 -21.141 -19.749  0.00  0.00    +0.059 C 
ATOM     16  C   UNL     1      33.667 -20.040 -21.338  0.00  0.00    +0.019 C 
ATOM     17  C   UNL     1      36.292 -20.554 -20.371  0.00  0.00    +0.016 C 
ATOM     18  C   UNL     1      34.789 -19.464 -21.946  0.00  0.00    +0.073 C 
ATOM     19  C   UNL     1      36.078 -19.716 -21.472  0.00  0.00    +0.005 C 
ATOM     20  H   UNL     1      32.083 -21.621 -19.495  0.00  0.00    +0.148 HD
ATOM     21  H   UNL     1      35.864 -22.338 -18.133  0.00  0.00    +0.148 HD
BRANCH  18  25
ATOM     22  F   UNL     1      33.519 -18.888 -23.889  0.00  0.00    -0.166 F 
ATOM     23  F   UNL     1      34.415 -17.254 -22.780  0.00  0.00    -0.166 F 
ATOM     24  F   UNL     1      35.670 -18.575 -23.966  0.00  0.00    -0.166 F 
ATOM     25  C   UNL     1      34.600 -18.563 -23.120  0.00  0.00    +0.419 C 
ENDBRANCH  18  25
ENDBRANCH   3  13
BRANCH   9  26
ATOM     26  O   UNL     1      34.311 -25.348 -11.843  0.00  0.00    -0.454 OA
BRANCH  26  30
ATOM     27  O   UNL     1      39.734 -26.594 -14.878  0.00  0.00    -0.275 OA
ATOM     28  N   UNL     1      38.888 -25.128 -13.326  0.00  0.00    -0.270 N 
ATOM     29  N   UNL     1      38.094 -23.642 -11.666  0.00  0.00    -0.229 NA
ATOM     30  C   UNL     1      35.563 -24.815 -11.783  0.00  0.00    +0.146 C 
ATOM     31  C   UNL     1      36.593 -25.294 -12.595  0.00  0.00    +0.045 C 
ATOM     32  C   UNL     1      36.352 -26.357 -13.622  0.00  0.00    +0.042 C 
ATOM     33  C   UNL     1      35.805 -23.765 -10.904  0.00  0.00    +0.058 C 
ATOM     34  C   UNL     1      37.841 -24.679 -12.499  0.00  0.00    +0.133 C 
ATOM     35  C   UNL     1      37.622 -27.150 -13.888  0.00  0.00    +0.090 C 
ATOM     36  C   UNL     1      38.829 -26.262 -14.112  0.00  0.00    +0.227 C 
ATOM     37  C   UNL     1      37.074 -23.217 -10.887  0.00  0.00    +0.103 C 
ATOM     38  H   UNL     1      39.718 -24.599 -13.345  0.00  0.00    +0.156 HD
ENDBRANCH  26  30
ENDBRANCH   9  26
TORSDOF 4
ENDMDL
MODEL 9
REMARK VINA RESULT:     -12.3      2.463      4.305
REMARK  Name = 89670174
REMARK  4 active torsions:
REMARK  status: ('A' for Active; 'I' for Inactive)
REMARK    1  A    between atoms: C_3  and  C_13
REMARK    2  A    between atoms: C_9  and  O_26
REMARK    3  A    between atoms: C_18  and  C_25
REMARK    4  A    between atoms: O_26  and  C_30
REMARK                            x       y       z     vdW  Elec       q    Type
REMARK                         _______ _______ _______ _____ _____    ______ ____
ROOT
ATOM      1  O   UNL     1      32.987 -22.159 -19.702  0.00  0.00    -0.479 OA
ATOM      2  C   UNL     1      35.308 -22.000 -18.953  0.00  0.00    +0.072 C 
ATOM      3  C   UNL     1      34.533 -22.153 -17.653  0.00  0.00    +0.085 C 
ATOM      4  C   UNL     1      34.034 -22.834 -18.909  0.00  0.00    +0.174 C 
ATOM      5  C   UNL     1      34.947 -20.933 -19.920  0.00  0.00    +0.018 C 
ATOM      6  C   UNL     1      33.612 -21.085 -20.317  0.00  0.00    +0.135 C 
ATOM      7  C   UNL     1      35.698 -19.890 -20.440  0.00  0.00    +0.036 C 
ATOM      8  C   UNL     1      32.993 -20.233 -21.211  0.00  0.00    +0.040 C 
ATOM      9  C   UNL     1      35.094 -19.015 -21.350  0.00  0.00    +0.145 C 
ATOM     10  C   UNL     1      33.752 -19.186 -21.732  0.00  0.00    +0.041 C 
ENDROOT
BRANCH   3  13
ATOM     11  N   UNL     1      36.412 -22.885 -16.101  0.00  0.00    -0.318 N 
ATOM     12  N   UNL     1      34.437 -23.872 -15.845  0.00  0.00    -0.318 N 
ATOM     13  C   UNL     1      35.116 -22.978 -16.527  0.00  0.00    +0.148 C 
ATOM     14  C   UNL     1      36.579 -23.778 -15.073  0.00  0.00    +0.059 C 
ATOM     15  C   UNL     1      35.333 -24.381 -14.932  0.00  0.00    +0.059 C 
ATOM     16  C   UNL     1      37.681 -24.099 -14.279  0.00  0.00    +0.019 C 
ATOM     17  C   UNL     1      35.156 -25.366 -13.946  0.00  0.00    +0.016 C 
ATOM     18  C   UNL     1      37.487 -25.082 -13.302  0.00  0.00    +0.073 C 
ATOM     19  C   UNL     1      36.248 -25.705 -13.137  0.00  0.00    +0.005 C 
ATOM     20  H   UNL     1      37.101 -22.284 -16.465  0.00  0.00    +0.148 HD
ATOM     21  H   UNL     1      33.492 -24.123 -15.960  0.00  0.00    +0.148 HD
BRANCH  18  25
ATOM     22  F   UNL     1      39.741 -25.857 -13.106  0.00  0.00    -0.166 F 
ATOM     23  F   UNL     1      39.047 -24.462 -11.598  0.00  0.00    -0.166 F 
ATOM     24  F   UNL     1      38.320 -26.511 -11.595  0.00  0.00    -0.166 F 
ATOM     25  C   UNL     1      38.627 -25.468 -12.419  0.00  0.00    +0.419 C 
ENDBRANCH  18  25
ENDBRANCH   3  13
BRANCH   9  26
ATOM     26  O   UNL     1      35.826 -17.967 -21.880  0.00  0.00    -0.454 OA
BRANCH  26  30
ATOM     27  O   UNL     1      32.669 -12.661 -20.447  0.00  0.00    -0.275 OA
ATOM     28  N   UNL     1      33.304 -13.884 -22.285  0.00  0.00    -0.270 N 
ATOM     29  N   UNL     1      33.861 -15.143 -24.208  0.00  0.00    -0.229 NA
ATOM     30  C   UNL     1      35.159 -17.042 -22.625  0.00  0.00    +0.146 C 
ATOM     31  C   UNL     1      34.546 -15.938 -22.030  0.00  0.00    +0.045 C 
ATOM     32  C   UNL     1      34.661 -15.676 -20.560  0.00  0.00    +0.042 C 
ATOM     33  C   UNL     1      35.106 -17.204 -24.005  0.00  0.00    +0.058 C 
ATOM     34  C   UNL     1      33.907 -15.018 -22.860  0.00  0.00    +0.133 C 
ATOM     35  C   UNL     1      33.461 -14.890 -20.056  0.00  0.00    +0.090 C 
ATOM     36  C   UNL     1      33.138 -13.693 -20.927  0.00  0.00    +0.227 C 
ATOM     37  C   UNL     1      34.454 -16.233 -24.744  0.00  0.00    +0.103 C 
ATOM     38  H   UNL     1      32.978 -13.179 -22.890  0.00  0.00    +0.156 HD
ENDBRANCH  26  30
ENDBRANCH   9  26
TORSDOF 4
ENDMDL
