MODEL 1
REMARK VINA RESULT:     -12.0      0.000      0.000
REMARK  Name = 15985904
REMARK  7 active torsions:
REMARK  status: ('A' for Active; 'I' for Inactive)
REMARK    1  A    between atoms: N_1  and  S_6
REMARK    2  A    between atoms: C_4  and  C_21
REMARK    3  A    between atoms: S_6  and  C_9
REMARK    4  A    between atoms: C_10  and  C_17
REMARK    5  A    between atoms: C_22  and  C_25
REMARK    6  A    between atoms: N_24  and  C_27
REMARK    7  A    between atoms: C_28  and  N_33
REMARK                            x       y       z     vdW  Elec       q    Type
REMARK                         _______ _______ _______ _____ _____    ______ ____
ROOT
ATOM      1  N   UNL     1      34.673 -19.801 -20.886  0.00  0.00    -0.167 N 
ATOM      2  C   UNL     1      34.844 -20.615 -19.844  0.00  0.00    +0.089 C 
ATOM      3  C   UNL     1      33.434 -19.792 -21.377  0.00  0.00    +0.089 C 
ATOM      4  C   UNL     1      33.613 -21.194 -19.625  0.00  0.00    +0.018 C 
ATOM      5  C   UNL     1      32.721 -20.673 -20.595  0.00  0.00    +0.019 C 
ENDROOT
BRANCH   1   6
ATOM      6  S   UNL     1      35.950 -18.840 -21.545  0.00  0.00    +0.080 S 
ATOM      7  O   UNL     1      36.236 -19.502 -22.805  0.00  0.00    -0.149 OA
ATOM      8  O   UNL     1      36.938 -18.716 -20.489  0.00  0.00    -0.149 OA
BRANCH   6   9
ATOM      9  C   UNL     1      35.254 -17.264 -21.829  0.00  0.00    +0.126 C 
ATOM     10  C   UNL     1      34.143 -14.746 -22.283  0.00  0.00    +0.003 C 
ATOM     11  C   UNL     1      35.031 -16.826 -23.134  0.00  0.00    +0.020 C 
ATOM     12  C   UNL     1      34.921 -16.444 -20.751  0.00  0.00    +0.020 C 
ATOM     13  C   UNL     1      34.476 -15.567 -23.361  0.00  0.00    +0.001 C 
ATOM     14  C   UNL     1      34.366 -15.185 -20.978  0.00  0.00    +0.001 C 
BRANCH  10  17
ATOM     15  N   UNL     1      32.287 -11.700 -22.330  0.00  0.00    -0.208 N 
ATOM     16  N   UNL     1      33.114 -11.374 -23.338  0.00  0.00    -0.176 NA
ATOM     17  C   UNL     1      33.571 -13.450 -22.517  0.00  0.00    +0.037 C 
ATOM     18  C   UNL     1      32.520 -12.936 -21.802  0.00  0.00    +0.086 C 
ATOM     19  C   UNL     1      33.897 -12.451 -23.446  0.00  0.00    +0.119 C 
ATOM     20  C   UNL     1      31.272 -10.765 -21.906  0.00  0.00    +0.140 C 
ENDBRANCH  10  17
ENDBRANCH   6   9
ENDBRANCH   1   6
BRANCH   4  21
ATOM     21  C   UNL     1      33.328 -22.131 -18.610  0.00  0.00    +0.006 C 
ATOM     22  C   UNL     1      34.183 -22.680 -17.700  0.00  0.00    +0.058 C 
BRANCH  22  25
ATOM     23  O   UNL     1      34.411 -24.615 -16.337  0.00  0.00    -0.270 OA
ATOM     24  N   UNL     1      32.438 -23.348 -16.228  0.00  0.00    -0.279 N 
ATOM     25  C   UNL     1      33.711 -23.669 -16.680  0.00  0.00    +0.250 C 
ATOM     26  H   UNL     1      32.025 -22.543 -16.620  0.00  0.00    +0.155 HD
BRANCH  24  27
ATOM     27  C   UNL     1      31.665 -24.046 -15.268  0.00  0.00    +0.064 C 
ATOM     28  C   UNL     1      32.122 -24.182 -13.967  0.00  0.00    +0.055 C 
ATOM     29  C   UNL     1      30.451 -24.582 -15.666  0.00  0.00    +0.016 C 
ATOM     30  C   UNL     1      31.343 -24.874 -13.039  0.00  0.00    +0.015 C 
ATOM     31  C   UNL     1      29.673 -25.274 -14.738  0.00  0.00    +0.001 C 
ATOM     32  C   UNL     1      30.119 -25.421 -13.425  0.00  0.00    +0.001 C 
BRANCH  28  33
ATOM     33  N   UNL     1      33.357 -23.636 -13.554  0.00  0.00    -0.356 N 
ATOM     34  H   UNL     1      33.983 -24.181 -13.024  0.00  0.00    +0.142 HD
ATOM     35  H   UNL     1      33.592 -22.711 -13.795  0.00  0.00    +0.142 HD
ENDBRANCH  28  33
ENDBRANCH  24  27
ENDBRANCH  22  25
ENDBRANCH   4  21
TORSDOF 7
ENDMDL
MODEL 2
REMARK VINA RESULT:     -11.7      2.541      3.189
REMARK  Name = 15985904
REMARK  7 active torsions:
REMARK  status: ('A' for Active; 'I' for Inactive)
REMARK    1  A    between atoms: N_1  and  S_6
REMARK    2  A    between atoms: C_4  and  C_21
REMARK    3  A    between atoms: S_6  and  C_9
REMARK    4  A    between atoms: C_10  and  C_17
REMARK    5  A    between atoms: C_22  and  C_25
REMARK    6  A    between atoms: N_24  and  C_27
REMARK    7  A    between atoms: C_28  and  N_33
REMARK                            x       y       z     vdW  Elec       q    Type
REMARK                         _______ _______ _______ _____ _____    ______ ____
ROOT
ATOM      1  N   UNL     1      35.306 -19.943 -20.835  0.00  0.00    -0.167 N 
ATOM      2  C   UNL     1      35.843 -20.745 -19.915  0.00  0.00    +0.089 C 
ATOM      3  C   UNL     1      33.978 -20.015 -20.917  0.00  0.00    +0.089 C 
ATOM      4  C   UNL     1      34.780 -21.405 -19.337  0.00  0.00    +0.018 C 
ATOM      5  C   UNL     1      33.600 -20.943 -19.971  0.00  0.00    +0.019 C 
ENDROOT
BRANCH   1   6
ATOM      6  S   UNL     1      36.253 -18.900 -21.836  0.00  0.00    +0.080 S 
ATOM      7  O   UNL     1      36.183 -19.547 -23.134  0.00  0.00    -0.149 OA
ATOM      8  O   UNL     1      37.505 -18.702 -21.132  0.00  0.00    -0.149 OA
BRANCH   6   9
ATOM      9  C   UNL     1      35.398 -17.378 -21.869  0.00  0.00    +0.126 C 
ATOM     10  C   UNL     1      34.033 -14.945 -21.921  0.00  0.00    +0.003 C 
ATOM     11  C   UNL     1      34.991 -16.832 -23.086  0.00  0.00    +0.020 C 
ATOM     12  C   UNL     1      35.122 -16.707 -20.677  0.00  0.00    +0.020 C 
ATOM     13  C   UNL     1      34.309 -15.616 -23.112  0.00  0.00    +0.001 C 
ATOM     14  C   UNL     1      34.440 -15.490 -20.703  0.00  0.00    +0.001 C 
BRANCH  10  17
ATOM     15  N   UNL     1      32.041 -12.040 -21.355  0.00  0.00    -0.208 N 
ATOM     16  N   UNL     1      32.514 -11.653 -22.552  0.00  0.00    -0.176 NA
ATOM     17  C   UNL     1      33.331 -13.692 -21.948  0.00  0.00    +0.037 C 
ATOM     18  C   UNL     1      32.502 -13.257 -20.947  0.00  0.00    +0.086 C 
ATOM     19  C   UNL     1      33.303 -12.670 -22.908  0.00  0.00    +0.119 C 
ATOM     20  C   UNL     1      31.132 -11.183 -20.632  0.00  0.00    +0.140 C 
ENDBRANCH  10  17
ENDBRANCH   6   9
ENDBRANCH   1   6
BRANCH   4  21
ATOM     21  C   UNL     1      34.884 -22.359 -18.304  0.00  0.00    +0.006 C 
ATOM     22  C   UNL     1      35.646 -22.304 -17.174  0.00  0.00    +0.058 C 
BRANCH  22  25
ATOM     23  O   UNL     1      34.737 -24.247 -16.147  0.00  0.00    -0.270 OA
ATOM     24  N   UNL     1      36.745 -23.340 -15.336  0.00  0.00    -0.279 N 
ATOM     25  C   UNL     1      35.638 -23.415 -16.171  0.00  0.00    +0.250 C 
ATOM     26  H   UNL     1      37.369 -22.596 -15.505  0.00  0.00    +0.155 HD
BRANCH  24  27
ATOM     27  C   UNL     1      37.079 -24.212 -14.271  0.00  0.00    +0.064 C 
ATOM     28  C   UNL     1      36.271 -24.286 -13.148  0.00  0.00    +0.055 C 
ATOM     29  C   UNL     1      38.226 -24.980 -14.386  0.00  0.00    +0.016 C 
ATOM     30  C   UNL     1      36.620 -25.152 -12.111  0.00  0.00    +0.015 C 
ATOM     31  C   UNL     1      38.575 -25.846 -13.349  0.00  0.00    +0.001 C 
ATOM     32  C   UNL     1      37.773 -25.931 -12.212  0.00  0.00    +0.001 C 
BRANCH  28  33
ATOM     33  N   UNL     1      35.099 -23.508 -13.025  0.00  0.00    -0.356 N 
ATOM     34  H   UNL     1      34.354 -23.825 -12.464  0.00  0.00    +0.142 HD
ATOM     35  H   UNL     1      35.026 -22.648 -13.498  0.00  0.00    +0.142 HD
ENDBRANCH  28  33
ENDBRANCH  24  27
ENDBRANCH  22  25
ENDBRANCH   4  21
TORSDOF 7
ENDMDL
MODEL 3
REMARK VINA RESULT:     -11.6      2.626     11.685
REMARK  Name = 15985904
REMARK  7 active torsions:
REMARK  status: ('A' for Active; 'I' for Inactive)
REMARK    1  A    between atoms: N_1  and  S_6
REMARK    2  A    between atoms: C_4  and  C_21
REMARK    3  A    between atoms: S_6  and  C_9
REMARK    4  A    between atoms: C_10  and  C_17
REMARK    5  A    between atoms: C_22  and  C_25
REMARK    6  A    between atoms: N_24  and  C_27
REMARK    7  A    between atoms: C_28  and  N_33
REMARK                            x       y       z     vdW  Elec       q    Type
REMARK                         _______ _______ _______ _____ _____    ______ ____
ROOT
ATOM      1  N   UNL     1      34.952 -17.162 -21.886  0.00  0.00    -0.167 N 
ATOM      2  C   UNL     1      34.619 -16.149 -22.686  0.00  0.00    +0.089 C 
ATOM      3  C   UNL     1      34.972 -16.853 -20.590  0.00  0.00    +0.089 C 
ATOM      4  C   UNL     1      34.400 -15.076 -21.850  0.00  0.00    +0.018 C 
ATOM      5  C   UNL     1      34.623 -15.522 -20.523  0.00  0.00    +0.019 C 
ENDROOT
BRANCH   1   6
ATOM      6  S   UNL     1      35.326 -18.742 -22.480  0.00  0.00    +0.080 S 
ATOM      7  O   UNL     1      36.760 -18.677 -22.692  0.00  0.00    -0.149 OA
ATOM      8  O   UNL     1      34.390 -18.991 -23.561  0.00  0.00    -0.149 OA
BRANCH   6   9
ATOM      9  C   UNL     1      34.953 -19.836 -21.171  0.00  0.00    +0.126 C 
ATOM     10  C   UNL     1      34.357 -21.582 -19.079  0.00  0.00    +0.003 C 
ATOM     11  C   UNL     1      33.624 -20.115 -20.853  0.00  0.00    +0.020 C 
ATOM     12  C   UNL     1      35.983 -20.430 -20.443  0.00  0.00    +0.020 C 
ATOM     13  C   UNL     1      33.326 -20.988 -19.807  0.00  0.00    +0.001 C 
ATOM     14  C   UNL     1      35.686 -21.303 -19.397  0.00  0.00    +0.001 C 
BRANCH  10  17
ATOM     15  N   UNL     1      34.269 -23.703 -16.212  0.00  0.00    -0.208 N 
ATOM     16  N   UNL     1      32.992 -23.910 -16.577  0.00  0.00    -0.176 NA
ATOM     17  C   UNL     1      34.050 -22.481 -18.002  0.00  0.00    +0.037 C 
ATOM     18  C   UNL     1      34.947 -22.852 -17.034  0.00  0.00    +0.086 C 
ATOM     19  C   UNL     1      32.866 -23.159 -17.673  0.00  0.00    +0.119 C 
ATOM     20  C   UNL     1      34.794 -24.361 -15.039  0.00  0.00    +0.140 C 
ENDBRANCH  10  17
ENDBRANCH   6   9
ENDBRANCH   1   6
BRANCH   4  21
ATOM     21  C   UNL     1      34.022 -13.784 -22.271  0.00  0.00    +0.006 C 
ATOM     22  C   UNL     1      32.922 -13.064 -21.908  0.00  0.00    +0.058 C 
BRANCH  22  25
ATOM     23  O   UNL     1      32.854 -11.435 -23.639  0.00  0.00    -0.270 OA
ATOM     24  N   UNL     1      32.229 -10.834 -21.457  0.00  0.00    -0.279 N 
ATOM     25  C   UNL     1      32.671 -11.693 -22.455  0.00  0.00    +0.250 C 
ATOM     26  H   UNL     1      32.141 -11.220 -20.555  0.00  0.00    +0.155 HD
BRANCH  24  27
ATOM     27  C   UNL     1      31.891  -9.465 -21.591  0.00  0.00    +0.064 C 
ATOM     28  C   UNL     1      32.146  -8.577 -20.558  0.00  0.00    +0.055 C 
ATOM     29  C   UNL     1      31.303  -9.045 -22.773  0.00  0.00    +0.016 C 
ATOM     30  C   UNL     1      31.804  -7.233 -20.713  0.00  0.00    +0.015 C 
ATOM     31  C   UNL     1      30.961  -7.702 -22.928  0.00  0.00    +0.001 C 
ATOM     32  C   UNL     1      31.211  -6.796 -21.897  0.00  0.00    +0.001 C 
BRANCH  28  33
ATOM     33  N   UNL     1      32.746  -8.996 -19.351  0.00  0.00    -0.356 N 
ATOM     34  H   UNL     1      33.569  -8.558 -19.032  0.00  0.00    +0.142 HD
ATOM     35  H   UNL     1      32.343  -9.726 -18.827  0.00  0.00    +0.142 HD
ENDBRANCH  28  33
ENDBRANCH  24  27
ENDBRANCH  22  25
ENDBRANCH   4  21
TORSDOF 7
ENDMDL
MODEL 4
REMARK VINA RESULT:     -11.2      3.523     10.200
REMARK  Name = 15985904
REMARK  7 active torsions:
REMARK  status: ('A' for Active; 'I' for Inactive)
REMARK    1  A    between atoms: N_1  and  S_6
REMARK    2  A    between atoms: C_4  and  C_21
REMARK    3  A    between atoms: S_6  and  C_9
REMARK    4  A    between atoms: C_10  and  C_17
REMARK    5  A    between atoms: C_22  and  C_25
REMARK    6  A    between atoms: N_24  and  C_27
REMARK    7  A    between atoms: C_28  and  N_33
REMARK                            x       y       z     vdW  Elec       q    Type
REMARK                         _______ _______ _______ _____ _____    ______ ____
ROOT
ATOM      1  N   UNL     1      36.158 -23.545 -15.386  0.00  0.00    -0.167 N 
ATOM      2  C   UNL     1      35.789 -22.890 -16.487  0.00  0.00    +0.089 C 
ATOM      3  C   UNL     1      37.349 -23.185 -14.908  0.00  0.00    +0.089 C 
ATOM      4  C   UNL     1      36.823 -22.023 -16.763  0.00  0.00    +0.018 C 
ATOM      5  C   UNL     1      37.810 -22.209 -15.764  0.00  0.00    +0.019 C 
ENDROOT
BRANCH   1   6
ATOM      6  S   UNL     1      35.175 -24.756 -14.641  0.00  0.00    +0.080 S 
ATOM      7  O   UNL     1      35.521 -24.635 -13.237  0.00  0.00    -0.149 OA
ATOM      8  O   UNL     1      35.405 -25.973 -15.397  0.00  0.00    -0.149 OA
BRANCH   6   9
ATOM      9  C   UNL     1      33.525 -24.251 -14.907  0.00  0.00    +0.126 C 
ATOM     10  C   UNL     1      30.888 -23.446 -15.332  0.00  0.00    +0.003 C 
ATOM     11  C   UNL     1      32.623 -24.227 -13.843  0.00  0.00    +0.020 C 
ATOM     12  C   UNL     1      33.108 -23.872 -16.183  0.00  0.00    +0.020 C 
ATOM     13  C   UNL     1      31.305 -23.825 -14.055  0.00  0.00    +0.001 C 
ATOM     14  C   UNL     1      31.790 -23.470 -16.395  0.00  0.00    +0.001 C 
BRANCH  10  17
ATOM     15  N   UNL     1      27.639 -22.612 -16.546  0.00  0.00    -0.208 N 
ATOM     16  N   UNL     1      27.410 -22.246 -15.273  0.00  0.00    -0.176 NA
ATOM     17  C   UNL     1      29.531 -23.032 -15.550  0.00  0.00    +0.037 C 
ATOM     18  C   UNL     1      28.897 -23.091 -16.764  0.00  0.00    +0.086 C 
ATOM     19  C   UNL     1      28.572 -22.506 -14.670  0.00  0.00    +0.119 C 
ATOM     20  C   UNL     1      26.591 -22.478 -17.530  0.00  0.00    +0.140 C 
ENDBRANCH  10  17
ENDBRANCH   6   9
ENDBRANCH   1   6
BRANCH   4  21
ATOM     21  C   UNL     1      36.859 -21.125 -17.851  0.00  0.00    +0.006 C 
ATOM     22  C   UNL     1      36.237 -21.235 -19.059  0.00  0.00    +0.058 C 
BRANCH  22  25
ATOM     23  O   UNL     1      37.401 -19.503 -20.201  0.00  0.00    -0.270 OA
ATOM     24  N   UNL     1      35.246 -20.110 -20.906  0.00  0.00    -0.279 N 
ATOM     25  C   UNL     1      36.382 -20.180 -20.112  0.00  0.00    +0.250 C 
ATOM     26  H   UNL     1      34.519 -20.738 -20.685  0.00  0.00    +0.155 HD
BRANCH  24  27
ATOM     27  C   UNL     1      35.013 -19.238 -21.998  0.00  0.00    +0.064 C 
ATOM     28  C   UNL     1      35.081 -17.865 -21.825  0.00  0.00    +0.055 C 
ATOM     29  C   UNL     1      34.719 -19.795 -23.233  0.00  0.00    +0.016 C 
ATOM     30  C   UNL     1      34.847 -17.027 -22.915  0.00  0.00    +0.015 C 
ATOM     31  C   UNL     1      34.486 -18.957 -24.323  0.00  0.00    +0.001 C 
ATOM     32  C   UNL     1      34.550 -17.573 -24.164  0.00  0.00    +0.001 C 
BRANCH  28  33
ATOM     33  N   UNL     1      35.382 -17.290 -20.571  0.00  0.00    -0.356 N 
ATOM     34  H   UNL     1      35.013 -17.685 -19.748  0.00  0.00    +0.142 HD
ATOM     35  H   UNL     1      35.960 -16.496 -20.519  0.00  0.00    +0.142 HD
ENDBRANCH  28  33
ENDBRANCH  24  27
ENDBRANCH  22  25
ENDBRANCH   4  21
TORSDOF 7
ENDMDL
MODEL 5
REMARK VINA RESULT:     -10.7      2.591      3.447
REMARK  Name = 15985904
REMARK  7 active torsions:
REMARK  status: ('A' for Active; 'I' for Inactive)
REMARK    1  A    between atoms: N_1  and  S_6
REMARK    2  A    between atoms: C_4  and  C_21
REMARK    3  A    between atoms: S_6  and  C_9
REMARK    4  A    between atoms: C_10  and  C_17
REMARK    5  A    between atoms: C_22  and  C_25
REMARK    6  A    between atoms: N_24  and  C_27
REMARK    7  A    between atoms: C_28  and  N_33
REMARK                            x       y       z     vdW  Elec       q    Type
REMARK                         _______ _______ _______ _____ _____    ______ ____
ROOT
ATOM      1  N   UNL     1      34.818 -18.342 -22.963  0.00  0.00    -0.167 N 
ATOM      2  C   UNL     1      34.230 -19.377 -22.363  0.00  0.00    +0.089 C 
ATOM      3  C   UNL     1      35.906 -17.891 -22.338  0.00  0.00    +0.089 C 
ATOM      4  C   UNL     1      34.993 -19.635 -21.245  0.00  0.00    +0.018 C 
ATOM      5  C   UNL     1      36.053 -18.695 -21.229  0.00  0.00    +0.019 C 
ENDROOT
BRANCH   1   6
ATOM      6  S   UNL     1      34.221 -17.643 -24.427  0.00  0.00    +0.080 S 
ATOM      7  O   UNL     1      32.949 -18.319 -24.612  0.00  0.00    -0.149 OA
ATOM      8  O   UNL     1      35.304 -17.746 -25.387  0.00  0.00    -0.149 OA
BRANCH   6   9
ATOM      9  C   UNL     1      33.966 -15.953 -24.071  0.00  0.00    +0.126 C 
ATOM     10  C   UNL     1      33.556 -13.253 -23.501  0.00  0.00    +0.003 C 
ATOM     11  C   UNL     1      34.268 -15.454 -22.804  0.00  0.00    +0.020 C 
ATOM     12  C   UNL     1      33.459 -15.102 -25.053  0.00  0.00    +0.020 C 
ATOM     13  C   UNL     1      34.063 -14.104 -22.519  0.00  0.00    +0.001 C 
ATOM     14  C   UNL     1      33.255 -13.752 -24.768  0.00  0.00    +0.001 C 
BRANCH  10  17
ATOM     15  N   UNL     1      32.466 -10.035 -22.413  0.00  0.00    -0.208 N 
ATOM     16  N   UNL     1      33.540  -9.596 -23.091  0.00  0.00    -0.176 NA
ATOM     17  C   UNL     1      33.346 -11.863 -23.208  0.00  0.00    +0.037 C 
ATOM     18  C   UNL     1      32.305 -11.389 -22.452  0.00  0.00    +0.086 C 
ATOM     19  C   UNL     1      34.073 -10.721 -23.574  0.00  0.00    +0.119 C 
ATOM     20  C   UNL     1      31.613  -9.091 -21.733  0.00  0.00    +0.140 C 
ENDBRANCH  10  17
ENDBRANCH   6   9
ENDBRANCH   1   6
BRANCH   4  21
ATOM     21  C   UNL     1      34.736 -20.658 -20.308  0.00  0.00    +0.006 C 
ATOM     22  C   UNL     1      35.627 -21.329 -19.523  0.00  0.00    +0.058 C 
BRANCH  22  25
ATOM     23  O   UNL     1      34.427 -23.295 -18.930  0.00  0.00    -0.270 OA
ATOM     24  N   UNL     1      35.732 -22.203 -17.313  0.00  0.00    -0.279 N 
ATOM     25  C   UNL     1      35.181 -22.397 -18.573  0.00  0.00    +0.250 C 
ATOM     26  H   UNL     1      36.321 -21.420 -17.210  0.00  0.00    +0.155 HD
BRANCH  24  27
ATOM     27  C   UNL     1      35.542 -23.003 -16.160  0.00  0.00    +0.064 C 
ATOM     28  C   UNL     1      36.633 -23.482 -15.452  0.00  0.00    +0.055 C 
ATOM     29  C   UNL     1      34.245 -23.289 -15.765  0.00  0.00    +0.016 C 
ATOM     30  C   UNL     1      36.421 -24.268 -14.320  0.00  0.00    +0.015 C 
ATOM     31  C   UNL     1      34.033 -24.076 -14.632  0.00  0.00    +0.001 C 
ATOM     32  C   UNL     1      35.121 -24.565 -13.910  0.00  0.00    +0.001 C 
BRANCH  28  33
ATOM     33  N   UNL     1      37.958 -23.192 -15.847  0.00  0.00    -0.356 N 
ATOM     34  H   UNL     1      38.134 -22.450 -16.469  0.00  0.00    +0.142 HD
ATOM     35  H   UNL     1      38.704 -23.732 -15.501  0.00  0.00    +0.142 HD
ENDBRANCH  28  33
ENDBRANCH  24  27
ENDBRANCH  22  25
ENDBRANCH   4  21
TORSDOF 7
ENDMDL
MODEL 6
REMARK VINA RESULT:     -10.5      4.200     10.230
REMARK  Name = 15985904
REMARK  7 active torsions:
REMARK  status: ('A' for Active; 'I' for Inactive)
REMARK    1  A    between atoms: N_1  and  S_6
REMARK    2  A    between atoms: C_4  and  C_21
REMARK    3  A    between atoms: S_6  and  C_9
REMARK    4  A    between atoms: C_10  and  C_17
REMARK    5  A    between atoms: C_22  and  C_25
REMARK    6  A    between atoms: N_24  and  C_27
REMARK    7  A    between atoms: C_28  and  N_33
REMARK                            x       y       z     vdW  Elec       q    Type
REMARK                         _______ _______ _______ _____ _____    ______ ____
ROOT
ATOM      1  N   UNL     1      34.180 -23.970 -14.384  0.00  0.00    -0.167 N 
ATOM      2  C   UNL     1      34.103 -23.657 -15.678  0.00  0.00    +0.089 C 
ATOM      3  C   UNL     1      35.307 -23.577 -13.791  0.00  0.00    +0.089 C 
ATOM      4  C   UNL     1      35.278 -22.999 -15.967  0.00  0.00    +0.018 C 
ATOM      5  C   UNL     1      36.041 -22.949 -14.774  0.00  0.00    +0.019 C 
ENDROOT
BRANCH   1   6
ATOM      6  S   UNL     1      32.925 -24.815 -13.547  0.00  0.00    +0.080 S 
ATOM      7  O   UNL     1      33.081 -24.354 -12.179  0.00  0.00    -0.149 OA
ATOM      8  O   UNL     1      33.070 -26.210 -13.919  0.00  0.00    -0.149 OA
BRANCH   6   9
ATOM      9  C   UNL     1      31.428 -24.221 -14.222  0.00  0.00    +0.126 C 
ATOM     10  C   UNL     1      29.036 -23.274 -15.299  0.00  0.00    +0.003 C 
ATOM     11  C   UNL     1      31.053 -22.893 -14.025  0.00  0.00    +0.020 C 
ATOM     12  C   UNL     1      30.607 -25.076 -14.958  0.00  0.00    +0.020 C 
ATOM     13  C   UNL     1      29.857 -22.419 -14.563  0.00  0.00    +0.001 C 
ATOM     14  C   UNL     1      29.411 -24.603 -15.496  0.00  0.00    +0.001 C 
BRANCH  10  17
ATOM     15  N   UNL     1      26.307 -22.145 -17.300  0.00  0.00    -0.208 N 
ATOM     16  N   UNL     1      25.685 -21.991 -16.118  0.00  0.00    -0.176 NA
ATOM     17  C   UNL     1      27.804 -22.786 -15.854  0.00  0.00    +0.037 C 
ATOM     18  C   UNL     1      27.581 -22.620 -17.196  0.00  0.00    +0.086 C 
ATOM     19  C   UNL     1      26.608 -22.386 -15.238  0.00  0.00    +0.119 C 
ATOM     20  C   UNL     1      25.613 -21.814 -18.522  0.00  0.00    +0.140 C 
ENDBRANCH  10  17
ENDBRANCH   6   9
ENDBRANCH   1   6
BRANCH   4  21
ATOM     21  C   UNL     1      35.627 -22.483 -17.233  0.00  0.00    +0.006 C 
ATOM     22  C   UNL     1      34.824 -22.286 -18.317  0.00  0.00    +0.058 C 
BRANCH  22  25
ATOM     23  O   UNL     1      36.332 -22.219 -20.154  0.00  0.00    -0.270 OA
ATOM     24  N   UNL     1      34.620 -20.621 -20.004  0.00  0.00    -0.279 N 
ATOM     25  C   UNL     1      35.361 -21.722 -19.596  0.00  0.00    +0.250 C 
ATOM     26  H   UNL     1      33.866 -20.363 -19.424  0.00  0.00    +0.155 HD
BRANCH  24  27
ATOM     27  C   UNL     1      34.824 -19.828 -21.159  0.00  0.00    +0.064 C 
ATOM     28  C   UNL     1      35.953 -19.032 -21.271  0.00  0.00    +0.055 C 
ATOM     29  C   UNL     1      33.871 -19.873 -22.164  0.00  0.00    +0.016 C 
ATOM     30  C   UNL     1      36.133 -18.259 -22.418  0.00  0.00    +0.015 C 
ATOM     31  C   UNL     1      34.051 -19.100 -23.311  0.00  0.00    +0.001 C 
ATOM     32  C   UNL     1      35.182 -18.293 -23.438  0.00  0.00    +0.001 C 
BRANCH  28  33
ATOM     33  N   UNL     1      36.930 -18.983 -20.252  0.00  0.00    -0.356 N 
ATOM     34  H   UNL     1      36.805 -18.384 -19.480  0.00  0.00    +0.142 HD
ATOM     35  H   UNL     1      37.734 -19.547 -20.313  0.00  0.00    +0.142 HD
ENDBRANCH  28  33
ENDBRANCH  24  27
ENDBRANCH  22  25
ENDBRANCH   4  21
TORSDOF 7
ENDMDL
MODEL 7
REMARK VINA RESULT:     -10.3      1.930      2.865
REMARK  Name = 15985904
REMARK  7 active torsions:
REMARK  status: ('A' for Active; 'I' for Inactive)
REMARK    1  A    between atoms: N_1  and  S_6
REMARK    2  A    between atoms: C_4  and  C_21
REMARK    3  A    between atoms: S_6  and  C_9
REMARK    4  A    between atoms: C_10  and  C_17
REMARK    5  A    between atoms: C_22  and  C_25
REMARK    6  A    between atoms: N_24  and  C_27
REMARK    7  A    between atoms: C_28  and  N_33
REMARK                            x       y       z     vdW  Elec       q    Type
REMARK                         _______ _______ _______ _____ _____    ______ ____
ROOT
ATOM      1  N   UNL     1      34.766 -18.458 -22.900  0.00  0.00    -0.167 N 
ATOM      2  C   UNL     1      34.200 -19.532 -22.348  0.00  0.00    +0.089 C 
ATOM      3  C   UNL     1      35.797 -17.966 -22.212  0.00  0.00    +0.089 C 
ATOM      4  C   UNL     1      34.917 -19.773 -21.196  0.00  0.00    +0.018 C 
ATOM      5  C   UNL     1      35.927 -18.783 -21.110  0.00  0.00    +0.019 C 
ENDROOT
BRANCH   1   6
ATOM      6  S   UNL     1      34.210 -17.763 -24.381  0.00  0.00    +0.080 S 
ATOM      7  O   UNL     1      32.942 -18.435 -24.599  0.00  0.00    -0.149 OA
ATOM      8  O   UNL     1      35.318 -17.872 -25.312  0.00  0.00    -0.149 OA
BRANCH   6   9
ATOM      9  C   UNL     1      33.951 -16.071 -24.038  0.00  0.00    +0.126 C 
ATOM     10  C   UNL     1      33.535 -13.367 -23.488  0.00  0.00    +0.003 C 
ATOM     11  C   UNL     1      34.291 -15.553 -22.789  0.00  0.00    +0.020 C 
ATOM     12  C   UNL     1      33.402 -15.237 -25.012  0.00  0.00    +0.020 C 
ATOM     13  C   UNL     1      34.083 -14.201 -22.514  0.00  0.00    +0.001 C 
ATOM     14  C   UNL     1      33.194 -13.885 -24.738  0.00  0.00    +0.001 C 
BRANCH  10  17
ATOM     15  N   UNL     1      33.608  -9.817 -23.145  0.00  0.00    -0.208 N 
ATOM     16  N   UNL     1      32.463  -9.999 -22.466  0.00  0.00    -0.176 NA
ATOM     17  C   UNL     1      33.321 -11.976 -23.205  0.00  0.00    +0.037 C 
ATOM     18  C   UNL     1      34.163 -10.973 -23.611  0.00  0.00    +0.086 C 
ATOM     19  C   UNL     1      32.294 -11.323 -22.507  0.00  0.00    +0.119 C 
ATOM     20  C   UNL     1      34.133  -8.484 -23.321  0.00  0.00    +0.140 C 
ENDBRANCH  10  17
ENDBRANCH   6   9
ENDBRANCH   1   6
BRANCH   4  21
ATOM     21  C   UNL     1      34.664 -20.825 -20.290  0.00  0.00    +0.006 C 
ATOM     22  C   UNL     1      33.461 -21.332 -19.897  0.00  0.00    +0.058 C 
BRANCH  22  25
ATOM     23  O   UNL     1      33.942 -23.527 -19.120  0.00  0.00    -0.270 OA
ATOM     24  N   UNL     1      32.586 -22.113 -17.827  0.00  0.00    -0.279 N 
ATOM     25  C   UNL     1      33.371 -22.462 -18.918  0.00  0.00    +0.250 C 
ATOM     26  H   UNL     1      32.205 -21.204 -17.837  0.00  0.00    +0.155 HD
BRANCH  24  27
ATOM     27  C   UNL     1      32.272 -22.915 -16.703  0.00  0.00    +0.064 C 
ATOM     28  C   UNL     1      33.281 -23.411 -15.893  0.00  0.00    +0.055 C 
ATOM     29  C   UNL     1      30.939 -23.185 -16.441  0.00  0.00    +0.016 C 
ATOM     30  C   UNL     1      32.947 -24.199 -14.792  0.00  0.00    +0.015 C 
ATOM     31  C   UNL     1      30.605 -23.973 -15.339  0.00  0.00    +0.001 C 
ATOM     32  C   UNL     1      31.609 -24.480 -14.515  0.00  0.00    +0.001 C 
BRANCH  28  33
ATOM     33  N   UNL     1      34.642 -23.139 -16.153  0.00  0.00    -0.356 N 
ATOM     34  H   UNL     1      35.148 -23.710 -16.775  0.00  0.00    +0.142 HD
ATOM     35  H   UNL     1      35.085 -22.378 -15.713  0.00  0.00    +0.142 HD
ENDBRANCH  28  33
ENDBRANCH  24  27
ENDBRANCH  22  25
ENDBRANCH   4  21
TORSDOF 7
ENDMDL
MODEL 8
REMARK VINA RESULT:     -10.3      2.607     11.944
REMARK  Name = 15985904
REMARK  7 active torsions:
REMARK  status: ('A' for Active; 'I' for Inactive)
REMARK    1  A    between atoms: N_1  and  S_6
REMARK    2  A    between atoms: C_4  and  C_21
REMARK    3  A    between atoms: S_6  and  C_9
REMARK    4  A    between atoms: C_10  and  C_17
REMARK    5  A    between atoms: C_22  and  C_25
REMARK    6  A    between atoms: N_24  and  C_27
REMARK    7  A    between atoms: C_28  and  N_33
REMARK                            x       y       z     vdW  Elec       q    Type
REMARK                         _______ _______ _______ _____ _____    ______ ____
ROOT
ATOM      1  N   UNL     1      34.916 -16.955 -21.887  0.00  0.00    -0.167 N 
ATOM      2  C   UNL     1      34.401 -16.009 -22.672  0.00  0.00    +0.089 C 
ATOM      3  C   UNL     1      35.038 -16.599 -20.608  0.00  0.00    +0.089 C 
ATOM      4  C   UNL     1      34.160 -14.934 -21.844  0.00  0.00    +0.018 C 
ATOM      5  C   UNL     1      34.563 -15.308 -20.538  0.00  0.00    +0.019 C 
ENDROOT
BRANCH   1   6
ATOM      6  S   UNL     1      35.385 -18.511 -22.476  0.00  0.00    +0.080 S 
ATOM      7  O   UNL     1      36.833 -18.413 -22.528  0.00  0.00    -0.149 OA
ATOM      8  O   UNL     1      34.579 -18.747 -23.659  0.00  0.00    -0.149 OA
BRANCH   6   9
ATOM      9  C   UNL     1      34.896 -19.647 -21.245  0.00  0.00    +0.126 C 
ATOM     10  C   UNL     1      34.113 -21.465 -19.278  0.00  0.00    +0.003 C 
ATOM     11  C   UNL     1      35.859 -20.331 -20.504  0.00  0.00    +0.020 C 
ATOM     12  C   UNL     1      33.541 -19.873 -21.002  0.00  0.00    +0.020 C 
ATOM     13  C   UNL     1      35.468 -21.240 -19.521  0.00  0.00    +0.001 C 
ATOM     14  C   UNL     1      33.149 -20.781 -20.019  0.00  0.00    +0.001 C 
BRANCH  10  17
ATOM     15  N   UNL     1      32.487 -23.456 -16.805  0.00  0.00    -0.208 N 
ATOM     16  N   UNL     1      33.673 -24.084 -16.732  0.00  0.00    -0.176 NA
ATOM     17  C   UNL     1      33.711 -22.400 -18.266  0.00  0.00    +0.037 C 
ATOM     18  C   UNL     1      32.457 -22.437 -17.712  0.00  0.00    +0.086 C 
ATOM     19  C   UNL     1      34.416 -23.433 -17.629  0.00  0.00    +0.119 C 
ATOM     20  C   UNL     1      31.395 -23.886 -15.964  0.00  0.00    +0.140 C 
ENDBRANCH  10  17
ENDBRANCH   6   9
ENDBRANCH   1   6
BRANCH   4  21
ATOM     21  C   UNL     1      33.611 -13.702 -22.255  0.00  0.00    +0.006 C 
ATOM     22  C   UNL     1      32.660 -12.949 -21.632  0.00  0.00    +0.058 C 
BRANCH  22  25
ATOM     23  O   UNL     1      30.994 -11.367 -22.243  0.00  0.00    -0.270 OA
ATOM     24  N   UNL     1      33.254 -10.892 -22.668  0.00  0.00    -0.279 N 
ATOM     25  C   UNL     1      32.186 -11.652 -22.210  0.00  0.00    +0.250 C 
ATOM     26  H   UNL     1      34.150 -11.286 -22.557  0.00  0.00    +0.155 HD
BRANCH  24  27
ATOM     27  C   UNL     1      33.200  -9.613 -23.275  0.00  0.00    +0.064 C 
ATOM     28  C   UNL     1      34.348  -9.034 -23.790  0.00  0.00    +0.055 C 
ATOM     29  C   UNL     1      31.976  -8.967 -23.338  0.00  0.00    +0.016 C 
ATOM     30  C   UNL     1      34.271  -7.774 -24.383  0.00  0.00    +0.015 C 
ATOM     31  C   UNL     1      31.898  -7.707 -23.932  0.00  0.00    +0.001 C 
ATOM     32  C   UNL     1      33.046  -7.110 -24.454  0.00  0.00    +0.001 C 
BRANCH  28  33
ATOM     33  N   UNL     1      35.599  -9.688 -23.731  0.00  0.00    -0.356 N 
ATOM     34  H   UNL     1      36.254  -9.561 -24.455  0.00  0.00    +0.142 HD
ATOM     35  H   UNL     1      35.816 -10.269 -22.967  0.00  0.00    +0.142 HD
ENDBRANCH  28  33
ENDBRANCH  24  27
ENDBRANCH  22  25
ENDBRANCH   4  21
TORSDOF 7
ENDMDL
MODEL 9
REMARK VINA RESULT:     -10.3      5.101      8.920
REMARK  Name = 15985904
REMARK  7 active torsions:
REMARK  status: ('A' for Active; 'I' for Inactive)
REMARK    1  A    between atoms: N_1  and  S_6
REMARK    2  A    between atoms: C_4  and  C_21
REMARK    3  A    between atoms: S_6  and  C_9
REMARK    4  A    between atoms: C_10  and  C_17
REMARK    5  A    between atoms: C_22  and  C_25
REMARK    6  A    between atoms: N_24  and  C_27
REMARK    7  A    between atoms: C_28  and  N_33
REMARK                            x       y       z     vdW  Elec       q    Type
REMARK                         _______ _______ _______ _____ _____    ______ ____
ROOT
ATOM      1  N   UNL     1      32.722 -11.769 -22.482  0.00  0.00    -0.167 N 
ATOM      2  C   UNL     1      32.676 -13.024 -22.035  0.00  0.00    +0.089 C 
ATOM      3  C   UNL     1      33.564 -11.580 -23.498  0.00  0.00    +0.089 C 
ATOM      4  C   UNL     1      33.562 -13.728 -22.821  0.00  0.00    +0.018 C 
ATOM      5  C   UNL     1      34.124 -12.814 -23.747  0.00  0.00    +0.019 C 
ENDROOT
BRANCH   1   6
ATOM      6  S   UNL     1      31.771 -10.496 -21.802  0.00  0.00    +0.080 S 
ATOM      7  O   UNL     1      32.235 -10.444 -20.428  0.00  0.00    -0.149 OA
ATOM      8  O   UNL     1      30.395 -10.800 -22.149  0.00  0.00    -0.149 OA
BRANCH   6   9
ATOM      9  C   UNL     1      32.244  -9.049 -22.658  0.00  0.00    +0.126 C 
ATOM     10  C   UNL     1      32.997  -6.737 -24.025  0.00  0.00    +0.003 C 
ATOM     11  C   UNL     1      33.355  -8.320 -22.235  0.00  0.00    +0.020 C 
ATOM     12  C   UNL     1      31.509  -8.622 -23.765  0.00  0.00    +0.020 C 
ATOM     13  C   UNL     1      33.731  -7.164 -22.918  0.00  0.00    +0.001 C 
ATOM     14  C   UNL     1      31.886  -7.466 -24.448  0.00  0.00    +0.001 C 
BRANCH  10  17
ATOM     15  N   UNL     1      33.371  -3.504 -25.486  0.00  0.00    -0.208 N 
ATOM     16  N   UNL     1      34.486  -4.028 -26.022  0.00  0.00    -0.176 NA
ATOM     17  C   UNL     1      33.385  -5.546 -24.728  0.00  0.00    +0.037 C 
ATOM     18  C   UNL     1      32.674  -4.374 -24.700  0.00  0.00    +0.086 C 
ATOM     19  C   UNL     1      34.487  -5.279 -25.553  0.00  0.00    +0.119 C 
ATOM     20  C   UNL     1      33.017  -2.133 -25.767  0.00  0.00    +0.140 C 
ENDBRANCH  10  17
ENDBRANCH   6   9
ENDBRANCH   1   6
BRANCH   4  21
ATOM     21  C   UNL     1      33.836 -15.106 -22.699  0.00  0.00    +0.006 C 
ATOM     22  C   UNL     1      34.745 -15.853 -23.389  0.00  0.00    +0.058 C 
BRANCH  22  25
ATOM     23  O   UNL     1      34.844 -18.137 -24.043  0.00  0.00    -0.270 OA
ATOM     24  N   UNL     1      35.129 -17.566 -21.784  0.00  0.00    -0.279 N 
ATOM     25  C   UNL     1      34.908 -17.319 -23.132  0.00  0.00    +0.250 C 
ATOM     26  H   UNL     1      35.149 -16.778 -21.193  0.00  0.00    +0.155 HD
BRANCH  24  27
ATOM     27  C   UNL     1      35.328 -18.823 -21.162  0.00  0.00    +0.064 C 
ATOM     28  C   UNL     1      36.610 -19.311 -20.964  0.00  0.00    +0.055 C 
ATOM     29  C   UNL     1      34.213 -19.542 -20.762  0.00  0.00    +0.016 C 
ATOM     30  C   UNL     1      36.781 -20.551 -20.350  0.00  0.00    +0.015 C 
ATOM     31  C   UNL     1      34.384 -20.783 -20.148  0.00  0.00    +0.001 C 
ATOM     32  C   UNL     1      35.668 -21.288 -19.942  0.00  0.00    +0.001 C 
BRANCH  28  33
ATOM     33  N   UNL     1      37.751 -18.583 -21.367  0.00  0.00    -0.356 N 
ATOM     34  H   UNL     1      38.130 -18.721 -22.265  0.00  0.00    +0.142 HD
ATOM     35  H   UNL     1      38.166 -17.937 -20.751  0.00  0.00    +0.142 HD
ENDBRANCH  28  33
ENDBRANCH  24  27
ENDBRANCH  22  25
ENDBRANCH   4  21
TORSDOF 7
ENDMDL
