MODEL 1
REMARK VINA RESULT:     -11.7      0.000      0.000
REMARK  Name = 5312137
REMARK  3 active torsions:
REMARK  status: ('A' for Active; 'I' for Inactive)
REMARK    1  A    between atoms: C_3  and  C_20
REMARK    2  A    between atoms: C_7  and  S_23
REMARK    3  A    between atoms: S_23  and  N_26
REMARK                            x       y       z     vdW  Elec       q    Type
REMARK                         _______ _______ _______ _____ _____    ______ ____
ROOT
ATOM      1  O   UNL     1      32.750 -21.283 -20.173  0.00  0.00    -0.270 OA
ATOM      2  N   UNL     1      32.770 -22.611 -18.219  0.00  0.00    -0.280 N 
ATOM      3  C   UNL     1      35.634 -20.899 -19.543  0.00  0.00    +0.019 C 
ATOM      4  C   UNL     1      34.749 -21.636 -18.830  0.00  0.00    +0.056 C 
ATOM      5  C   UNL     1      34.978 -22.404 -17.611  0.00  0.00    +0.019 C 
ATOM      6  C   UNL     1      33.745 -22.975 -17.283  0.00  0.00    +0.051 C 
ATOM      7  C   UNL     1      35.940 -23.441 -15.694  0.00  0.00    +0.122 C 
ATOM      8  C   UNL     1      36.091 -22.627 -16.823  0.00  0.00    +0.021 C 
ATOM      9  C   UNL     1      33.304 -21.783 -19.211  0.00  0.00    +0.250 C 
ATOM     10  C   UNL     1      33.574 -23.780 -16.175  0.00  0.00    +0.016 C 
ATOM     11  C   UNL     1      34.694 -24.011 -15.373  0.00  0.00    +0.021 C 
ATOM     12  H   UNL     1      31.830 -22.900 -18.184  0.00  0.00    +0.155 HD
ENDROOT
BRANCH   3  20
ATOM     13  N   UNL     1      35.473 -18.816 -20.683  0.00  0.00    -0.316 N 
ATOM     14  C   UNL     1      35.148 -18.310 -21.911  0.00  0.00    +0.021 C 
ATOM     15  C   UNL     1      34.801 -19.359 -22.738  0.00  0.00    -0.012 C 
ATOM     16  C   UNL     1      35.141 -16.867 -22.268  0.00  0.00    +0.041 C 
ATOM     17  C   UNL     1      34.406 -19.160 -24.159  0.00  0.00    +0.027 C 
ATOM     18  C   UNL     1      35.064 -16.714 -23.800  0.00  0.00    +0.006 C 
ATOM     19  C   UNL     1      34.050 -17.686 -24.435  0.00  0.00    +0.005 C 
ATOM     20  C   UNL     1      35.343 -20.182 -20.714  0.00  0.00    +0.048 C 
ATOM     21  C   UNL     1      34.929 -20.547 -21.978  0.00  0.00    +0.011 C 
ATOM     22  H   UNL     1      35.754 -18.285 -19.903  0.00  0.00    +0.152 HD
ENDBRANCH   3  20
BRANCH   7  23
ATOM     23  S   UNL     1      37.319 -23.753 -14.666  0.00  0.00    +0.063 S 
ATOM     24  O   UNL     1      38.508 -23.820 -15.510  0.00  0.00    -0.153 OA
ATOM     25  O   UNL     1      37.296 -22.791 -13.571  0.00  0.00    -0.153 OA
BRANCH  23  26
ATOM     26  N   UNL     1      36.996 -25.330 -14.033  0.00  0.00    -0.153 NA
ATOM     27  C   UNL     1      37.688 -26.480 -14.669  0.00  0.00    +0.115 C 
ATOM     28  C   UNL     1      36.918 -25.475 -12.557  0.00  0.00    +0.115 C 
ENDBRANCH  23  26
ENDBRANCH   7  23
TORSDOF 3
ENDMDL
MODEL 2
REMARK VINA RESULT:     -10.4      8.046     12.974
REMARK  Name = 5312137
REMARK  3 active torsions:
REMARK  status: ('A' for Active; 'I' for Inactive)
REMARK    1  A    between atoms: C_3  and  C_20
REMARK    2  A    between atoms: C_7  and  S_23
REMARK    3  A    between atoms: S_23  and  N_26
REMARK                            x       y       z     vdW  Elec       q    Type
REMARK                         _______ _______ _______ _____ _____    ______ ____
ROOT
ATOM      1  O   UNL     1      32.449 -14.461 -21.098  0.00  0.00    -0.270 OA
ATOM      2  N   UNL     1      31.737 -12.246 -20.693  0.00  0.00    -0.280 N 
ATOM      3  C   UNL     1      33.700 -13.266 -23.520  0.00  0.00    +0.019 C 
ATOM      4  C   UNL     1      32.981 -12.606 -22.580  0.00  0.00    +0.056 C 
ATOM      5  C   UNL     1      32.648 -11.187 -22.520  0.00  0.00    +0.019 C 
ATOM      6  C   UNL     1      31.892 -11.022 -21.356  0.00  0.00    +0.051 C 
ATOM      7  C   UNL     1      32.433  -8.855 -22.960  0.00  0.00    +0.122 C 
ATOM      8  C   UNL     1      32.928 -10.109 -23.337  0.00  0.00    +0.021 C 
ATOM      9  C   UNL     1      32.379 -13.280 -21.382  0.00  0.00    +0.250 C 
ATOM     10  C   UNL     1      31.395  -9.796 -20.964  0.00  0.00    +0.016 C 
ATOM     11  C   UNL     1      31.674  -8.701 -21.785  0.00  0.00    +0.021 C 
ATOM     12  H   UNL     1      31.240 -12.363 -19.851  0.00  0.00    +0.155 HD
ENDROOT
BRANCH   3  20
ATOM     13  N   UNL     1      34.740 -15.140 -22.485  0.00  0.00    -0.316 N 
ATOM     14  C   UNL     1      34.900 -16.486 -22.661  0.00  0.00    +0.021 C 
ATOM     15  C   UNL     1      34.244 -16.856 -23.818  0.00  0.00    -0.012 C 
ATOM     16  C   UNL     1      35.681 -17.381 -21.767  0.00  0.00    +0.041 C 
ATOM     17  C   UNL     1      34.204 -18.263 -24.299  0.00  0.00    +0.027 C 
ATOM     18  C   UNL     1      35.348 -18.851 -22.088  0.00  0.00    +0.006 C 
ATOM     19  C   UNL     1      35.282 -19.118 -23.604  0.00  0.00    +0.005 C 
ATOM     20  C   UNL     1      33.983 -14.640 -23.515  0.00  0.00    +0.048 C 
ATOM     21  C   UNL     1      33.660 -15.684 -24.357  0.00  0.00    +0.011 C 
ATOM     22  H   UNL     1      35.110 -14.614 -21.738  0.00  0.00    +0.152 HD
ENDBRANCH   3  20
BRANCH   7  23
ATOM     23  S   UNL     1      32.762  -7.461 -23.961  0.00  0.00    +0.063 S 
ATOM     24  O   UNL     1      32.032  -7.621 -25.214  0.00  0.00    -0.153 OA
ATOM     25  O   UNL     1      32.525  -6.263 -23.164  0.00  0.00    -0.153 OA
BRANCH  23  26
ATOM     26  N   UNL     1      34.457  -7.592 -24.284  0.00  0.00    -0.153 NA
ATOM     27  C   UNL     1      34.961  -7.015 -25.556  0.00  0.00    +0.115 C 
ATOM     28  C   UNL     1      35.392  -7.351 -23.155  0.00  0.00    +0.115 C 
ENDBRANCH  23  26
ENDBRANCH   7  23
TORSDOF 3
ENDMDL
MODEL 3
REMARK VINA RESULT:     -10.2      1.762      2.703
REMARK  Name = 5312137
REMARK  3 active torsions:
REMARK  status: ('A' for Active; 'I' for Inactive)
REMARK    1  A    between atoms: C_3  and  C_20
REMARK    2  A    between atoms: C_7  and  S_23
REMARK    3  A    between atoms: S_23  and  N_26
REMARK                            x       y       z     vdW  Elec       q    Type
REMARK                         _______ _______ _______ _____ _____    ______ ____
ROOT
ATOM      1  O   UNL     1      33.251 -22.409 -17.931  0.00  0.00    -0.270 OA
ATOM      2  N   UNL     1      33.207 -23.681 -15.941  0.00  0.00    -0.280 N 
ATOM      3  C   UNL     1      36.173 -22.263 -17.381  0.00  0.00    +0.019 C 
ATOM      4  C   UNL     1      35.246 -22.900 -16.626  0.00  0.00    +0.056 C 
ATOM      5  C   UNL     1      35.439 -23.653 -15.391  0.00  0.00    +0.019 C 
ATOM      6  C   UNL     1      34.170 -24.104 -15.018  0.00  0.00    +0.051 C 
ATOM      7  C   UNL     1      36.357 -24.718 -13.468  0.00  0.00    +0.122 C 
ATOM      8  C   UNL     1      36.548 -23.951 -14.623  0.00  0.00    +0.021 C 
ATOM      9  C   UNL     1      33.784 -22.930 -16.969  0.00  0.00    +0.250 C 
ATOM     10  C   UNL     1      33.959 -24.862 -13.883  0.00  0.00    +0.016 C 
ATOM     11  C   UNL     1      35.075 -25.168 -13.102  0.00  0.00    +0.021 C 
ATOM     12  H   UNL     1      32.246 -23.887 -15.875  0.00  0.00    +0.155 HD
ENDROOT
BRANCH   3  20
ATOM     13  N   UNL     1      36.849 -20.643 -18.988  0.00  0.00    -0.316 N 
ATOM     14  C   UNL     1      36.415 -20.066 -20.149  0.00  0.00    +0.021 C 
ATOM     15  C   UNL     1      35.188 -20.608 -20.473  0.00  0.00    -0.012 C 
ATOM     16  C   UNL     1      37.139 -19.010 -20.905  0.00  0.00    +0.041 C 
ATOM     17  C   UNL     1      34.436 -20.211 -21.695  0.00  0.00    +0.027 C 
ATOM     18  C   UNL     1      36.523 -18.865 -22.310  0.00  0.00    +0.006 C 
ATOM     19  C   UNL     1      34.982 -18.893 -22.278  0.00  0.00    +0.005 C 
ATOM     20  C   UNL     1      35.915 -21.554 -18.564  0.00  0.00    +0.048 C 
ATOM     21  C   UNL     1      34.873 -21.555 -19.468  0.00  0.00    +0.011 C 
ATOM     22  H   UNL     1      37.697 -20.436 -18.530  0.00  0.00    +0.152 HD
ENDBRANCH   3  20
BRANCH   7  23
ATOM     23  S   UNL     1      37.731 -25.122 -12.464  0.00  0.00    +0.063 S 
ATOM     24  O   UNL     1      38.594 -23.948 -12.385  0.00  0.00    -0.153 OA
ATOM     25  O   UNL     1      37.231 -25.704 -11.225  0.00  0.00    -0.153 OA
BRANCH  23  26
ATOM     26  N   UNL     1      38.542 -26.350 -13.374  0.00  0.00    -0.153 NA
ATOM     27  C   UNL     1      37.706 -27.255 -14.203  0.00  0.00    +0.115 C 
ATOM     28  C   UNL     1      39.805 -25.977 -14.058  0.00  0.00    +0.115 C 
ENDBRANCH  23  26
ENDBRANCH   7  23
TORSDOF 3
ENDMDL
MODEL 4
REMARK VINA RESULT:     -10.1      2.655      8.748
REMARK  Name = 5312137
REMARK  3 active torsions:
REMARK  status: ('A' for Active; 'I' for Inactive)
REMARK    1  A    between atoms: C_3  and  C_20
REMARK    2  A    between atoms: C_7  and  S_23
REMARK    3  A    between atoms: S_23  and  N_26
REMARK                            x       y       z     vdW  Elec       q    Type
REMARK                         _______ _______ _______ _____ _____    ______ ____
ROOT
ATOM      1  O   UNL     1      34.197 -23.839 -16.155  0.00  0.00    -0.270 OA
ATOM      2  N   UNL     1      33.325 -22.763 -18.068  0.00  0.00    -0.280 N 
ATOM      3  C   UNL     1      36.679 -22.353 -16.856  0.00  0.00    +0.019 C 
ATOM      4  C   UNL     1      35.503 -22.313 -17.528  0.00  0.00    +0.056 C 
ATOM      5  C   UNL     1      35.167 -21.555 -18.729  0.00  0.00    +0.019 C 
ATOM      6  C   UNL     1      33.835 -21.865 -19.014  0.00  0.00    +0.051 C 
ATOM      7  C   UNL     1      35.218 -20.127 -20.635  0.00  0.00    +0.122 C 
ATOM      8  C   UNL     1      35.877 -20.685 -19.533  0.00  0.00    +0.021 C 
ATOM      9  C   UNL     1      34.290 -23.094 -17.113  0.00  0.00    +0.250 C 
ATOM     10  C   UNL     1      33.165 -21.326 -20.094  0.00  0.00    +0.016 C 
ATOM     11  C   UNL     1      33.875 -20.445 -20.912  0.00  0.00    +0.021 C 
ATOM     12  H   UNL     1      32.406 -23.115 -18.076  0.00  0.00    +0.155 HD
ENDROOT
BRANCH   3  20
ATOM     13  N   UNL     1      36.233 -22.801 -14.561  0.00  0.00    -0.316 N 
ATOM     14  C   UNL     1      36.621 -23.646 -13.558  0.00  0.00    +0.021 C 
ATOM     15  C   UNL     1      37.583 -24.501 -14.056  0.00  0.00    -0.012 C 
ATOM     16  C   UNL     1      36.110 -23.612 -12.163  0.00  0.00    +0.041 C 
ATOM     17  C   UNL     1      38.212 -25.566 -13.227  0.00  0.00    +0.027 C 
ATOM     18  C   UNL     1      36.511 -24.908 -11.433  0.00  0.00    +0.006 C 
ATOM     19  C   UNL     1      37.969 -25.316 -11.726  0.00  0.00    +0.005 C 
ATOM     20  C   UNL     1      36.933 -23.109 -15.701  0.00  0.00    +0.048 C 
ATOM     21  C   UNL     1      37.777 -24.162 -15.417  0.00  0.00    +0.011 C 
ATOM     22  H   UNL     1      35.560 -22.087 -14.477  0.00  0.00    +0.152 HD
ENDBRANCH   3  20
BRANCH   7  23
ATOM     23  S   UNL     1      36.074 -19.019 -21.682  0.00  0.00    +0.063 S 
ATOM     24  O   UNL     1      37.307 -18.623 -21.010  0.00  0.00    -0.153 OA
ATOM     25  O   UNL     1      36.164 -19.624 -23.005  0.00  0.00    -0.153 OA
BRANCH  23  26
ATOM     26  N   UNL     1      35.019 -17.650 -21.763  0.00  0.00    -0.153 NA
ATOM     27  C   UNL     1      35.050 -16.691 -20.629  0.00  0.00    +0.115 C 
ATOM     28  C   UNL     1      34.887 -16.961 -23.071  0.00  0.00    +0.115 C 
ENDBRANCH  23  26
ENDBRANCH   7  23
TORSDOF 3
ENDMDL
MODEL 5
REMARK VINA RESULT:      -9.9      5.410      8.784
REMARK  Name = 5312137
REMARK  3 active torsions:
REMARK  status: ('A' for Active; 'I' for Inactive)
REMARK    1  A    between atoms: C_3  and  C_20
REMARK    2  A    between atoms: C_7  and  S_23
REMARK    3  A    between atoms: S_23  and  N_26
REMARK                            x       y       z     vdW  Elec       q    Type
REMARK                         _______ _______ _______ _____ _____    ______ ____
ROOT
ATOM      1  O   UNL     1      32.801 -13.708 -25.168  0.00  0.00    -0.270 OA
ATOM      2  N   UNL     1      33.416 -15.989 -25.158  0.00  0.00    -0.280 N 
ATOM      3  C   UNL     1      34.217 -13.656 -22.550  0.00  0.00    +0.019 C 
ATOM      4  C   UNL     1      34.064 -14.733 -23.358  0.00  0.00    +0.056 C 
ATOM      5  C   UNL     1      34.539 -16.097 -23.155  0.00  0.00    +0.019 C 
ATOM      6  C   UNL     1      34.119 -16.817 -24.276  0.00  0.00    +0.051 C 
ATOM      7  C   UNL     1      35.541 -18.077 -22.288  0.00  0.00    +0.122 C 
ATOM      8  C   UNL     1      35.254 -16.715 -22.146  0.00  0.00    +0.021 C 
ATOM      9  C   UNL     1      33.334 -14.681 -24.669  0.00  0.00    +0.250 C 
ATOM     10  C   UNL     1      34.391 -18.161 -24.436  0.00  0.00    +0.016 C 
ATOM     11  C   UNL     1      35.113 -18.793 -23.422  0.00  0.00    +0.021 C 
ATOM     12  H   UNL     1      33.030 -16.288 -26.013  0.00  0.00    +0.155 HD
ENDROOT
BRANCH   3  20
ATOM     13  N   UNL     1      32.481 -12.040 -22.341  0.00  0.00    -0.316 N 
ATOM     14  C   UNL     1      32.195 -10.750 -22.693  0.00  0.00    +0.021 C 
ATOM     15  C   UNL     1      33.267 -10.243 -23.399  0.00  0.00    -0.012 C 
ATOM     16  C   UNL     1      30.926 -10.040 -22.390  0.00  0.00    +0.041 C 
ATOM     17  C   UNL     1      33.293  -8.849 -23.922  0.00  0.00    +0.027 C 
ATOM     18  C   UNL     1      31.106  -8.529 -22.633  0.00  0.00    +0.006 C 
ATOM     19  C   UNL     1      31.879  -8.235 -23.934  0.00  0.00    +0.005 C 
ATOM     20  C   UNL     1      33.730 -12.365 -22.810  0.00  0.00    +0.048 C 
ATOM     21  C   UNL     1      34.242 -11.267 -23.469  0.00  0.00    +0.011 C 
ATOM     22  H   UNL     1      31.887 -12.638 -21.833  0.00  0.00    +0.152 HD
ENDBRANCH   3  20
BRANCH   7  23
ATOM     23  S   UNL     1      36.443 -18.902 -21.038  0.00  0.00    +0.063 S 
ATOM     24  O   UNL     1      37.751 -19.253 -21.580  0.00  0.00    -0.153 OA
ATOM     25  O   UNL     1      36.385 -18.093 -19.827  0.00  0.00    -0.153 OA
BRANCH  23  26
ATOM     26  N   UNL     1      35.537 -20.355 -20.786  0.00  0.00    -0.153 NA
ATOM     27  C   UNL     1      36.082 -21.345 -19.821  0.00  0.00    +0.115 C 
ATOM     28  C   UNL     1      34.061 -20.235 -20.685  0.00  0.00    +0.115 C 
ENDBRANCH  23  26
ENDBRANCH   7  23
TORSDOF 3
ENDMDL
MODEL 6
REMARK VINA RESULT:      -9.7      8.643     13.657
REMARK  Name = 5312137
REMARK  3 active torsions:
REMARK  status: ('A' for Active; 'I' for Inactive)
REMARK    1  A    between atoms: C_3  and  C_20
REMARK    2  A    between atoms: C_7  and  S_23
REMARK    3  A    between atoms: S_23  and  N_26
REMARK                            x       y       z     vdW  Elec       q    Type
REMARK                         _______ _______ _______ _____ _____    ______ ____
ROOT
ATOM      1  O   UNL     1      31.848 -13.979 -21.600  0.00  0.00    -0.270 OA
ATOM      2  N   UNL     1      31.004 -11.775 -21.689  0.00  0.00    -0.280 N 
ATOM      3  C   UNL     1      34.135 -12.812 -23.106  0.00  0.00    +0.019 C 
ATOM      4  C   UNL     1      33.032 -12.148 -22.680  0.00  0.00    +0.056 C 
ATOM      5  C   UNL     1      32.699 -10.738 -22.847  0.00  0.00    +0.019 C 
ATOM      6  C   UNL     1      31.458 -10.565 -22.228  0.00  0.00    +0.051 C 
ATOM      7  C   UNL     1      32.708  -8.425 -23.420  0.00  0.00    +0.122 C 
ATOM      8  C   UNL     1      33.340  -9.674 -23.451  0.00  0.00    +0.021 C 
ATOM      9  C   UNL     1      31.916 -12.808 -21.923  0.00  0.00    +0.250 C 
ATOM     10  C   UNL     1      30.817  -9.344 -22.185  0.00  0.00    +0.016 C 
ATOM     11  C   UNL     1      31.458  -8.262 -22.793  0.00  0.00    +0.021 C 
ATOM     12  H   UNL     1      30.152 -11.884 -21.207  0.00  0.00    +0.155 HD
ENDROOT
BRANCH   3  20
ATOM     13  N   UNL     1      34.097 -15.044 -23.931  0.00  0.00    -0.316 N 
ATOM     14  C   UNL     1      34.420 -16.315 -23.546  0.00  0.00    +0.021 C 
ATOM     15  C   UNL     1      34.924 -16.267 -22.262  0.00  0.00    -0.012 C 
ATOM     16  C   UNL     1      34.223 -17.537 -24.369  0.00  0.00    +0.041 C 
ATOM     17  C   UNL     1      35.391 -17.481 -21.540  0.00  0.00    +0.027 C 
ATOM     18  C   UNL     1      35.011 -18.709 -23.752  0.00  0.00    +0.006 C 
ATOM     19  C   UNL     1      34.870 -18.764 -22.218  0.00  0.00    +0.005 C 
ATOM     20  C   UNL     1      34.392 -14.177 -22.909  0.00  0.00    +0.048 C 
ATOM     21  C   UNL     1      34.909 -14.909 -21.860  0.00  0.00    +0.011 C 
ATOM     22  H   UNL     1      33.713 -14.792 -24.803  0.00  0.00    +0.152 HD
ENDBRANCH   3  20
BRANCH   7  23
ATOM     23  S   UNL     1      33.480  -7.049 -24.170  0.00  0.00    +0.063 S 
ATOM     24  O   UNL     1      34.722  -6.779 -23.453  0.00  0.00    -0.153 OA
ATOM     25  O   UNL     1      33.545  -7.292 -25.606  0.00  0.00    -0.153 OA
BRANCH  23  26
ATOM     26  N   UNL     1      32.371  -5.756 -23.870  0.00  0.00    -0.153 NA
ATOM     27  C   UNL     1      32.466  -5.060 -22.561  0.00  0.00    +0.115 C 
ATOM     28  C   UNL     1      32.097  -4.812 -24.984  0.00  0.00    +0.115 C 
ENDBRANCH  23  26
ENDBRANCH   7  23
TORSDOF 3
ENDMDL
MODEL 7
REMARK VINA RESULT:      -8.9     10.607     14.418
REMARK  Name = 5312137
REMARK  3 active torsions:
REMARK  status: ('A' for Active; 'I' for Inactive)
REMARK    1  A    between atoms: C_3  and  C_20
REMARK    2  A    between atoms: C_7  and  S_23
REMARK    3  A    between atoms: S_23  and  N_26
REMARK                            x       y       z     vdW  Elec       q    Type
REMARK                         _______ _______ _______ _____ _____    ______ ____
ROOT
ATOM      1  O   UNL     1      32.303  -5.765 -21.051  0.00  0.00    -0.270 OA
ATOM      2  N   UNL     1      32.148  -7.681 -19.679  0.00  0.00    -0.280 N 
ATOM      3  C   UNL     1      32.445  -7.761 -23.255  0.00  0.00    +0.019 C 
ATOM      4  C   UNL     1      32.329  -8.033 -21.932  0.00  0.00    +0.056 C 
ATOM      5  C   UNL     1      32.247  -9.333 -21.275  0.00  0.00    +0.019 C 
ATOM      6  C   UNL     1      32.139  -9.062 -19.908  0.00  0.00    +0.051 C 
ATOM      7  C   UNL     1      32.159 -11.665 -20.794  0.00  0.00    +0.122 C 
ATOM      8  C   UNL     1      32.259 -10.635 -21.737  0.00  0.00    +0.021 C 
ATOM      9  C   UNL     1      32.263  -6.968 -20.876  0.00  0.00    +0.250 C 
ATOM     10  C   UNL     1      32.038 -10.061 -18.962  0.00  0.00    +0.016 C 
ATOM     11  C   UNL     1      32.050 -11.380 -19.420  0.00  0.00    +0.021 C 
ATOM     12  H   UNL     1      32.082  -7.265 -18.788  0.00  0.00    +0.155 HD
ENDROOT
BRANCH   3  20
ATOM     13  N   UNL     1      31.415  -5.670 -23.732  0.00  0.00    -0.316 N 
ATOM     14  C   UNL     1      31.689  -4.474 -24.337  0.00  0.00    +0.021 C 
ATOM     15  C   UNL     1      32.979  -4.517 -24.824  0.00  0.00    -0.012 C 
ATOM     16  C   UNL     1      30.734  -3.343 -24.470  0.00  0.00    +0.041 C 
ATOM     17  C   UNL     1      33.606  -3.367 -25.529  0.00  0.00    +0.027 C 
ATOM     18  C   UNL     1      31.496  -2.070 -24.889  0.00  0.00    +0.006 C 
ATOM     19  C   UNL     1      32.542  -2.349 -25.986  0.00  0.00    +0.005 C 
ATOM     20  C   UNL     1      32.519  -6.479 -23.821  0.00  0.00    +0.048 C 
ATOM     21  C   UNL     1      33.507  -5.789 -24.492  0.00  0.00    +0.011 C 
ATOM     22  H   UNL     1      30.562  -5.910 -23.303  0.00  0.00    +0.152 HD
ENDBRANCH   3  20
BRANCH   7  23
ATOM     23  S   UNL     1      32.170 -13.329 -21.331  0.00  0.00    +0.063 S 
ATOM     24  O   UNL     1      31.652 -14.157 -20.247  0.00  0.00    -0.153 OA
ATOM     25  O   UNL     1      31.513 -13.391 -22.631  0.00  0.00    -0.153 OA
BRANCH  23  26
ATOM     26  N   UNL     1      33.854 -13.670 -21.537  0.00  0.00    -0.153 NA
ATOM     27  C   UNL     1      34.455 -14.712 -20.667  0.00  0.00    +0.115 C 
ATOM     28  C   UNL     1      34.376 -13.735 -22.926  0.00  0.00    +0.115 C 
ENDBRANCH  23  26
ENDBRANCH   7  23
TORSDOF 3
ENDMDL
