MODEL 1
REMARK VINA RESULT:     -11.2      0.000      0.000
REMARK  Name = 17758816
REMARK  9 active torsions:
REMARK  status: ('A' for Active; 'I' for Inactive)
REMARK    1  A    between atoms: C_3  and  C_8
REMARK    2  A    between atoms: C_4  and  C_20
REMARK    3  A    between atoms: C_11  and  O_14
REMARK    4  A    between atoms: O_14  and  C_15
REMARK    5  A    between atoms: C_15  and  C_17
REMARK    6  A    between atoms: C_17  and  O_18
REMARK    7  A    between atoms: C_20  and  N_23
REMARK    8  A    between atoms: C_28  and  S_32
REMARK    9  A    between atoms: S_32  and  C_34
REMARK                            x       y       z     vdW  Elec       q    Type
REMARK                         _______ _______ _______ _____ _____    ______ ____
ROOT
ATOM      1  N   UNL     1      35.933 -19.894 -20.248  0.00  0.00    -0.317 N 
ATOM      2  N   UNL     1      34.383 -19.678 -21.823  0.00  0.00    -0.316 N 
ATOM      3  C   UNL     1      34.948 -20.785 -19.928  0.00  0.00    +0.060 C 
ATOM      4  C   UNL     1      35.551 -19.252 -21.393  0.00  0.00    +0.164 C 
ATOM      5  C   UNL     1      34.002 -20.632 -20.915  0.00  0.00    +0.074 C 
ATOM      6  H   UNL     1      36.766 -19.742 -19.746  0.00  0.00    +0.148 HD
ATOM      7  H   UNL     1      33.892 -19.378 -22.622  0.00  0.00    +0.148 HD
ENDROOT
BRANCH   3   8
ATOM      8  C   UNL     1      35.000 -21.647 -18.773  0.00  0.00    +0.015 C 
ATOM      9  C   UNL     1      36.169 -21.730 -18.018  0.00  0.00    +0.004 C 
ATOM     10  C   UNL     1      33.881 -22.397 -18.411  0.00  0.00    +0.004 C 
ATOM     11  C   UNL     1      35.100 -23.313 -16.537  0.00  0.00    +0.139 C 
ATOM     12  C   UNL     1      36.219 -22.564 -16.899  0.00  0.00    +0.037 C 
ATOM     13  C   UNL     1      33.931 -23.230 -17.294  0.00  0.00    +0.037 C 
BRANCH  11  14
ATOM     14  O   UNL     1      35.150 -24.126 -15.447  0.00  0.00    -0.464 OA
BRANCH  14  15
ATOM     15  C   UNL     1      36.432 -24.627 -15.069  0.00  0.00    +0.314 C 
BRANCH  15  17
ATOM     16  O   UNL     1      36.351 -27.027 -15.442  0.00  0.00    -0.246 OA
ATOM     17  C   UNL     1      36.316 -26.075 -14.678  0.00  0.00    +0.359 C 
BRANCH  17  18
ATOM     18  O   UNL     1      36.168 -26.186 -13.333  0.00  0.00    -0.478 OA
ATOM     19  H   UNL     1      35.628 -25.577 -12.869  0.00  0.00    +0.295 HD
ENDBRANCH  17  18
ENDBRANCH  15  17
ENDBRANCH  14  15
ENDBRANCH  11  14
ENDBRANCH   3   8
BRANCH   4  20
ATOM     20  C   UNL     1      36.399 -18.219 -22.014  0.00  0.00    +0.131 C 
BRANCH  20  23
ATOM     21  S   UNL     1      32.693 -13.219 -22.970  0.00  0.00    -0.045 S 
ATOM     22  O   UNL     1      34.945 -16.373 -20.387  0.00  0.00    -0.252 OA
ATOM     23  N   UNL     1      35.590 -17.113 -22.477  0.00  0.00    -0.285 N 
ATOM     24  N   UNL     1      34.214 -15.287 -22.342  0.00  0.00    -0.248 N 
ATOM     25  N   UNL     1      33.175 -14.003 -20.554  0.00  0.00    -0.222 NA
ATOM     26  C   UNL     1      34.907 -16.254 -21.609  0.00  0.00    +0.306 C 
ATOM     27  C   UNL     1      33.423 -14.262 -21.818  0.00  0.00    +0.167 C 
ATOM     28  C   UNL     1      31.978 -12.340 -21.683  0.00  0.00    +0.082 C 
ATOM     29  C   UNL     1      32.347 -12.901 -20.478  0.00  0.00    +0.114 C 
ATOM     30  H   UNL     1      35.515 -16.958 -23.447  0.00  0.00    +0.151 HD
ATOM     31  H   UNL     1      34.291 -15.333 -23.322  0.00  0.00    +0.158 HD
BRANCH  28  32
ATOM     32  S   UNL     1      30.950 -10.949 -21.930  0.00  0.00    -0.060 S 
BRANCH  32  34
ATOM     33  N   UNL     1      33.006  -9.757 -23.175  0.00  0.00    -0.237 NA
ATOM     34  C   UNL     1      32.220  -9.695 -22.077  0.00  0.00    +0.111 C 
ATOM     35  C   UNL     1      32.347  -8.737 -21.085  0.00  0.00    +0.026 C 
ATOM     36  C   UNL     1      33.345  -7.779 -21.229  0.00  0.00    +0.004 C 
ATOM     37  C   UNL     1      34.173  -7.809 -22.346  0.00  0.00    +0.021 C 
ATOM     38  C   UNL     1      33.964  -8.809 -23.282  0.00  0.00    +0.099 C 
ENDBRANCH  32  34
ENDBRANCH  28  32
ENDBRANCH  20  23
ENDBRANCH   4  20
TORSDOF 9
ENDMDL
MODEL 2
REMARK VINA RESULT:     -11.0      2.341      3.844
REMARK  Name = 17758816
REMARK  9 active torsions:
REMARK  status: ('A' for Active; 'I' for Inactive)
REMARK    1  A    between atoms: C_3  and  C_8
REMARK    2  A    between atoms: C_4  and  C_20
REMARK    3  A    between atoms: C_11  and  O_14
REMARK    4  A    between atoms: O_14  and  C_15
REMARK    5  A    between atoms: C_15  and  C_17
REMARK    6  A    between atoms: C_17  and  O_18
REMARK    7  A    between atoms: C_20  and  N_23
REMARK    8  A    between atoms: C_28  and  S_32
REMARK    9  A    between atoms: S_32  and  C_34
REMARK                            x       y       z     vdW  Elec       q    Type
REMARK                         _______ _______ _______ _____ _____    ______ ____
ROOT
ATOM      1  N   UNL     1      35.706 -22.096 -18.028  0.00  0.00    -0.317 N 
ATOM      2  N   UNL     1      34.058 -21.876 -19.500  0.00  0.00    -0.316 N 
ATOM      3  C   UNL     1      34.590 -22.597 -17.418  0.00  0.00    +0.060 C 
ATOM      4  C   UNL     1      35.338 -21.675 -19.275  0.00  0.00    +0.164 C 
ATOM      5  C   UNL     1      33.586 -22.449 -18.347  0.00  0.00    +0.074 C 
ATOM      6  H   UNL     1      36.609 -22.047 -17.640  0.00  0.00    +0.148 HD
ATOM      7  H   UNL     1      33.551 -21.662 -20.316  0.00  0.00    +0.148 HD
ENDROOT
BRANCH   3   8
ATOM      8  C   UNL     1      34.590 -23.137 -16.081  0.00  0.00    +0.015 C 
ATOM      9  C   UNL     1      35.745 -23.072 -15.303  0.00  0.00    +0.004 C 
ATOM     10  C   UNL     1      33.435 -23.724 -15.566  0.00  0.00    +0.004 C 
ATOM     11  C   UNL     1      34.589 -24.179 -13.493  0.00  0.00    +0.139 C 
ATOM     12  C   UNL     1      35.745 -23.593 -14.008  0.00  0.00    +0.037 C 
ATOM     13  C   UNL     1      33.433 -24.245 -14.272  0.00  0.00    +0.037 C 
BRANCH  11  14
ATOM     14  O   UNL     1      34.589 -24.688 -12.231  0.00  0.00    -0.464 OA
BRANCH  14  15
ATOM     15  C   UNL     1      35.854 -25.050 -11.677  0.00  0.00    +0.314 C 
BRANCH  15  17
ATOM     16  O   UNL     1      35.401 -24.697  -9.316  0.00  0.00    -0.246 OA
ATOM     17  C   UNL     1      36.020 -24.407 -10.328  0.00  0.00    +0.359 C 
BRANCH  17  18
ATOM     18  O   UNL     1      36.972 -23.441 -10.384  0.00  0.00    -0.478 OA
ATOM     19  H   UNL     1      36.833 -22.675 -10.905  0.00  0.00    +0.295 HD
ENDBRANCH  17  18
ENDBRANCH  15  17
ENDBRANCH  14  15
ENDBRANCH  11  14
ENDBRANCH   3   8
BRANCH   4  20
ATOM     20  C   UNL     1      36.315 -21.077 -20.203  0.00  0.00    +0.131 C 
BRANCH  20  23
ATOM     21  S   UNL     1      34.739 -15.288 -22.114  0.00  0.00    -0.045 S 
ATOM     22  O   UNL     1      35.296 -19.887 -22.593  0.00  0.00    -0.252 OA
ATOM     23  N   UNL     1      36.023 -19.676 -20.412  0.00  0.00    -0.285 N 
ATOM     24  N   UNL     1      35.341 -17.793 -21.522  0.00  0.00    -0.248 N 
ATOM     25  N   UNL     1      34.485 -17.280 -23.742  0.00  0.00    -0.222 NA
ATOM     26  C   UNL     1      35.524 -19.175 -21.619  0.00  0.00    +0.306 C 
ATOM     27  C   UNL     1      34.858 -16.950 -22.526  0.00  0.00    +0.167 C 
ATOM     28  C   UNL     1      34.140 -14.967 -23.688  0.00  0.00    +0.082 C 
ATOM     29  C   UNL     1      34.073 -16.142 -24.407  0.00  0.00    +0.114 C 
ATOM     30  H   UNL     1      36.182 -19.047 -19.671  0.00  0.00    +0.151 HD
ATOM     31  H   UNL     1      35.574 -17.373 -20.663  0.00  0.00    +0.158 HD
BRANCH  28  32
ATOM     32  S   UNL     1      33.696 -13.367 -24.233  0.00  0.00    -0.060 S 
BRANCH  32  34
ATOM     33  N   UNL     1      32.504 -11.497 -22.724  0.00  0.00    -0.237 NA
ATOM     34  C   UNL     1      32.845 -12.805 -22.761  0.00  0.00    +0.111 C 
ATOM     35  C   UNL     1      32.579 -13.705 -21.743  0.00  0.00    +0.026 C 
ATOM     36  C   UNL     1      31.918 -13.235 -20.613  0.00  0.00    +0.004 C 
ATOM     37  C   UNL     1      31.550 -11.896 -20.538  0.00  0.00    +0.021 C 
ATOM     38  C   UNL     1      31.863 -11.076 -21.610  0.00  0.00    +0.099 C 
ENDBRANCH  32  34
ENDBRANCH  28  32
ENDBRANCH  20  23
ENDBRANCH   4  20
TORSDOF 9
ENDMDL
MODEL 3
REMARK VINA RESULT:     -10.9      1.742      2.275
REMARK  Name = 17758816
REMARK  9 active torsions:
REMARK  status: ('A' for Active; 'I' for Inactive)
REMARK    1  A    between atoms: C_3  and  C_8
REMARK    2  A    between atoms: C_4  and  C_20
REMARK    3  A    between atoms: C_11  and  O_14
REMARK    4  A    between atoms: O_14  and  C_15
REMARK    5  A    between atoms: C_15  and  C_17
REMARK    6  A    between atoms: C_17  and  O_18
REMARK    7  A    between atoms: C_20  and  N_23
REMARK    8  A    between atoms: C_28  and  S_32
REMARK    9  A    between atoms: S_32  and  C_34
REMARK                            x       y       z     vdW  Elec       q    Type
REMARK                         _______ _______ _______ _____ _____    ______ ____
ROOT
ATOM      1  N   UNL     1      34.803 -19.215 -21.577  0.00  0.00    -0.317 N 
ATOM      2  N   UNL     1      36.837 -18.454 -22.038  0.00  0.00    -0.316 N 
ATOM      3  C   UNL     1      35.653 -19.891 -20.748  0.00  0.00    +0.060 C 
ATOM      4  C   UNL     1      35.559 -18.363 -22.333  0.00  0.00    +0.164 C 
ATOM      5  C   UNL     1      36.902 -19.405 -21.052  0.00  0.00    +0.074 C 
ATOM      6  H   UNL     1      33.825 -19.321 -21.621  0.00  0.00    +0.148 HD
ATOM      7  H   UNL     1      37.583 -17.949 -22.438  0.00  0.00    +0.148 HD
ENDROOT
BRANCH   3   8
ATOM      8  C   UNL     1      35.214 -20.885 -19.798  0.00  0.00    +0.015 C 
ATOM      9  C   UNL     1      36.128 -21.451 -18.910  0.00  0.00    +0.004 C 
ATOM     10  C   UNL     1      33.877 -21.278 -19.768  0.00  0.00    +0.004 C 
ATOM     11  C   UNL     1      34.365 -22.803 -17.960  0.00  0.00    +0.139 C 
ATOM     12  C   UNL     1      35.703 -22.411 -17.990  0.00  0.00    +0.037 C 
ATOM     13  C   UNL     1      33.452 -22.238 -18.850  0.00  0.00    +0.037 C 
BRANCH  11  14
ATOM     14  O   UNL     1      33.952 -23.740 -17.064  0.00  0.00    -0.464 OA
BRANCH  14  15
ATOM     15  C   UNL     1      34.169 -23.457 -15.681  0.00  0.00    +0.314 C 
BRANCH  15  17
ATOM     16  O   UNL     1      36.041 -24.976 -15.374  0.00  0.00    -0.246 OA
ATOM     17  C   UNL     1      34.930 -24.586 -15.044  0.00  0.00    +0.359 C 
BRANCH  17  18
ATOM     18  O   UNL     1      34.206 -25.127 -14.031  0.00  0.00    -0.478 OA
ATOM     19  H   UNL     1      34.607 -25.732 -13.440  0.00  0.00    +0.295 HD
ENDBRANCH  17  18
ENDBRANCH  15  17
ENDBRANCH  14  15
ENDBRANCH  11  14
ENDBRANCH   3   8
BRANCH   4  20
ATOM     20  C   UNL     1      34.944 -17.477 -23.338  0.00  0.00    +0.131 C 
BRANCH  20  23
ATOM     21  S   UNL     1      32.318 -12.074 -21.452  0.00  0.00    -0.045 S 
ATOM     22  O   UNL     1      34.574 -14.861 -24.425  0.00  0.00    -0.252 OA
ATOM     23  N   UNL     1      34.287 -16.361 -22.694  0.00  0.00    -0.285 N 
ATOM     24  N   UNL     1      33.475 -14.235 -22.441  0.00  0.00    -0.248 N 
ATOM     25  N   UNL     1      33.415 -12.209 -23.789  0.00  0.00    -0.222 NA
ATOM     26  C   UNL     1      34.149 -15.108 -23.300  0.00  0.00    +0.306 C 
ATOM     27  C   UNL     1      33.154 -12.901 -22.703  0.00  0.00    +0.167 C 
ATOM     28  C   UNL     1      32.296 -10.667 -22.432  0.00  0.00    +0.082 C 
ATOM     29  C   UNL     1      32.922 -10.929 -23.632  0.00  0.00    +0.114 C 
ATOM     30  H   UNL     1      33.922 -16.489 -21.789  0.00  0.00    +0.151 HD
ATOM     31  H   UNL     1      33.200 -14.595 -21.567  0.00  0.00    +0.158 HD
BRANCH  28  32
ATOM     32  S   UNL     1      31.569  -9.161 -21.925  0.00  0.00    -0.060 S 
BRANCH  32  34
ATOM     33  N   UNL     1      32.161  -7.328 -23.792  0.00  0.00    -0.237 NA
ATOM     34  C   UNL     1      32.679  -8.030 -22.760  0.00  0.00    +0.111 C 
ATOM     35  C   UNL     1      33.990  -7.922 -22.329  0.00  0.00    +0.026 C 
ATOM     36  C   UNL     1      34.826  -7.036 -23.000  0.00  0.00    +0.004 C 
ATOM     37  C   UNL     1      34.329  -6.295 -24.067  0.00  0.00    +0.021 C 
ATOM     38  C   UNL     1      33.002  -6.475 -24.420  0.00  0.00    +0.099 C 
ENDBRANCH  32  34
ENDBRANCH  28  32
ENDBRANCH  20  23
ENDBRANCH   4  20
TORSDOF 9
ENDMDL
MODEL 4
REMARK VINA RESULT:     -10.9      4.304      6.820
REMARK  Name = 17758816
REMARK  9 active torsions:
REMARK  status: ('A' for Active; 'I' for Inactive)
REMARK    1  A    between atoms: C_3  and  C_8
REMARK    2  A    between atoms: C_4  and  C_20
REMARK    3  A    between atoms: C_11  and  O_14
REMARK    4  A    between atoms: O_14  and  C_15
REMARK    5  A    between atoms: C_15  and  C_17
REMARK    6  A    between atoms: C_17  and  O_18
REMARK    7  A    between atoms: C_20  and  N_23
REMARK    8  A    between atoms: C_28  and  S_32
REMARK    9  A    between atoms: S_32  and  C_34
REMARK                            x       y       z     vdW  Elec       q    Type
REMARK                         _______ _______ _______ _____ _____    ______ ____
ROOT
ATOM      1  N   UNL     1      34.475 -22.849 -16.413  0.00  0.00    -0.317 N 
ATOM      2  N   UNL     1      36.045 -23.425 -14.953  0.00  0.00    -0.316 N 
ATOM      3  C   UNL     1      33.812 -23.355 -15.331  0.00  0.00    +0.060 C 
ATOM      4  C   UNL     1      35.813 -22.911 -16.141  0.00  0.00    +0.164 C 
ATOM      5  C   UNL     1      34.803 -23.705 -14.444  0.00  0.00    +0.074 C 
ATOM      6  H   UNL     1      34.064 -22.502 -17.238  0.00  0.00    +0.148 HD
ATOM      7  H   UNL     1      36.919 -23.576 -14.524  0.00  0.00    +0.148 HD
ENDROOT
BRANCH   3   8
ATOM      8  C   UNL     1      32.375 -23.453 -15.253  0.00  0.00    +0.015 C 
ATOM      9  C   UNL     1      31.769 -23.885 -14.074  0.00  0.00    +0.004 C 
ATOM     10  C   UNL     1      31.592 -23.115 -16.356  0.00  0.00    +0.004 C 
ATOM     11  C   UNL     1      29.596 -23.639 -15.101  0.00  0.00    +0.139 C 
ATOM     12  C   UNL     1      30.378 -23.979 -13.998  0.00  0.00    +0.037 C 
ATOM     13  C   UNL     1      30.202 -23.208 -16.281  0.00  0.00    +0.037 C 
BRANCH  11  14
ATOM     14  O   UNL     1      28.240 -23.731 -15.027  0.00  0.00    -0.464 OA
BRANCH  14  15
ATOM     15  C   UNL     1      27.509 -23.536 -16.238  0.00  0.00    +0.314 C 
BRANCH  15  17
ATOM     16  O   UNL     1      26.637 -21.344 -16.824  0.00  0.00    -0.246 OA
ATOM     17  C   UNL     1      26.618 -22.331 -16.104  0.00  0.00    +0.359 C 
BRANCH  17  18
ATOM     18  O   UNL     1      25.770 -22.490 -15.057  0.00  0.00    -0.478 OA
ATOM     19  H   UNL     1      24.994 -23.004 -15.156  0.00  0.00    +0.295 HD
ENDBRANCH  17  18
ENDBRANCH  15  17
ENDBRANCH  14  15
ENDBRANCH  11  14
ENDBRANCH   3   8
BRANCH   4  20
ATOM     20  C   UNL     1      36.817 -22.438 -17.111  0.00  0.00    +0.131 C 
BRANCH  20  23
ATOM     21  S   UNL     1      34.653 -19.695 -22.349  0.00  0.00    -0.045 S 
ATOM     22  O   UNL     1      37.296 -20.003 -18.527  0.00  0.00    -0.252 OA
ATOM     23  N   UNL     1      36.175 -22.012 -18.336  0.00  0.00    -0.285 N 
ATOM     24  N   UNL     1      35.697 -20.661 -20.122  0.00  0.00    -0.248 N 
ATOM     25  N   UNL     1      36.454 -18.496 -20.935  0.00  0.00    -0.222 NA
ATOM     26  C   UNL     1      36.469 -20.798 -18.965  0.00  0.00    +0.306 C 
ATOM     27  C   UNL     1      35.718 -19.582 -21.008  0.00  0.00    +0.167 C 
ATOM     28  C   UNL     1      35.212 -18.167 -22.889  0.00  0.00    +0.082 C 
ATOM     29  C   UNL     1      36.163 -17.686 -22.015  0.00  0.00    +0.114 C 
ATOM     30  H   UNL     1      35.502 -22.603 -18.743  0.00  0.00    +0.151 HD
ATOM     31  H   UNL     1      35.078 -21.397 -20.332  0.00  0.00    +0.158 HD
BRANCH  28  32
ATOM     32  S   UNL     1      34.624 -17.393 -24.341  0.00  0.00    -0.060 S 
BRANCH  32  34
ATOM     33  N   UNL     1      34.631 -15.557 -22.385  0.00  0.00    -0.237 NA
ATOM     34  C   UNL     1      34.216 -15.792 -23.650  0.00  0.00    +0.111 C 
ATOM     35  C   UNL     1      33.507 -14.881 -24.415  0.00  0.00    +0.026 C 
ATOM     36  C   UNL     1      33.205 -13.648 -23.847  0.00  0.00    +0.004 C 
ATOM     37  C   UNL     1      33.616 -13.369 -22.548  0.00  0.00    +0.021 C 
ATOM     38  C   UNL     1      34.320 -14.348 -21.866  0.00  0.00    +0.099 C 
ENDBRANCH  32  34
ENDBRANCH  28  32
ENDBRANCH  20  23
ENDBRANCH   4  20
TORSDOF 9
ENDMDL
MODEL 5
REMARK VINA RESULT:     -10.8      1.672      2.345
REMARK  Name = 17758816
REMARK  9 active torsions:
REMARK  status: ('A' for Active; 'I' for Inactive)
REMARK    1  A    between atoms: C_3  and  C_8
REMARK    2  A    between atoms: C_4  and  C_20
REMARK    3  A    between atoms: C_11  and  O_14
REMARK    4  A    between atoms: O_14  and  C_15
REMARK    5  A    between atoms: C_15  and  C_17
REMARK    6  A    between atoms: C_17  and  O_18
REMARK    7  A    between atoms: C_20  and  N_23
REMARK    8  A    between atoms: C_28  and  S_32
REMARK    9  A    between atoms: S_32  and  C_34
REMARK                            x       y       z     vdW  Elec       q    Type
REMARK                         _______ _______ _______ _____ _____    ______ ____
ROOT
ATOM      1  N   UNL     1      35.714 -20.300 -20.181  0.00  0.00    -0.317 N 
ATOM      2  N   UNL     1      34.226 -19.740 -21.730  0.00  0.00    -0.316 N 
ATOM      3  C   UNL     1      34.558 -20.943 -19.838  0.00  0.00    +0.060 C 
ATOM      4  C   UNL     1      35.467 -19.591 -21.322  0.00  0.00    +0.164 C 
ATOM      5  C   UNL     1      33.654 -20.580 -20.809  0.00  0.00    +0.074 C 
ATOM      6  H   UNL     1      36.569 -20.341 -19.694  0.00  0.00    +0.148 HD
ATOM      7  H   UNL     1      33.801 -19.338 -22.522  0.00  0.00    +0.148 HD
ENDROOT
BRANCH   3   8
ATOM      8  C   UNL     1      34.434 -21.792 -18.678  0.00  0.00    +0.015 C 
ATOM      9  C   UNL     1      33.207 -22.380 -18.374  0.00  0.00    +0.004 C 
ATOM     10  C   UNL     1      35.541 -22.025 -17.864  0.00  0.00    +0.004 C 
ATOM     11  C   UNL     1      34.195 -23.437 -16.438  0.00  0.00    +0.139 C 
ATOM     12  C   UNL     1      33.087 -23.203 -17.253  0.00  0.00    +0.037 C 
ATOM     13  C   UNL     1      35.422 -22.848 -16.743  0.00  0.00    +0.037 C 
BRANCH  11  14
ATOM     14  O   UNL     1      34.077 -24.239 -15.345  0.00  0.00    -0.464 OA
BRANCH  14  15
ATOM     15  C   UNL     1      32.793 -24.306 -14.724  0.00  0.00    +0.314 C 
BRANCH  15  17
ATOM     16  O   UNL     1      33.628 -24.854 -12.509  0.00  0.00    -0.246 OA
ATOM     17  C   UNL     1      32.940 -24.153 -13.235  0.00  0.00    +0.359 C 
BRANCH  17  18
ATOM     18  O   UNL     1      32.191 -23.110 -12.796  0.00  0.00    -0.478 OA
ATOM     19  H   UNL     1      32.493 -22.584 -12.082  0.00  0.00    +0.295 HD
ENDBRANCH  17  18
ENDBRANCH  15  17
ENDBRANCH  14  15
ENDBRANCH  11  14
ENDBRANCH   3   8
BRANCH   4  20
ATOM     20  C   UNL     1      36.516 -18.778 -21.965  0.00  0.00    +0.131 C 
BRANCH  20  23
ATOM     21  S   UNL     1      33.656 -13.407 -23.583  0.00  0.00    -0.045 S 
ATOM     22  O   UNL     1      35.003 -16.752 -20.634  0.00  0.00    -0.252 OA
ATOM     23  N   UNL     1      35.941 -17.596 -22.568  0.00  0.00    -0.285 N 
ATOM     24  N   UNL     1      34.784 -15.624 -22.687  0.00  0.00    -0.248 N 
ATOM     25  N   UNL     1      33.581 -14.199 -21.123  0.00  0.00    -0.222 NA
ATOM     26  C   UNL     1      35.211 -16.650 -21.841  0.00  0.00    +0.306 C 
ATOM     27  C   UNL     1      34.031 -14.506 -22.318  0.00  0.00    +0.167 C 
ATOM     28  C   UNL     1      32.817 -12.431 -22.450  0.00  0.00    +0.082 C 
ATOM     29  C   UNL     1      32.886 -13.009 -21.200  0.00  0.00    +0.114 C 
ATOM     30  H   UNL     1      36.069 -17.451 -23.533  0.00  0.00    +0.151 HD
ATOM     31  H   UNL     1      35.038 -15.695 -23.636  0.00  0.00    +0.158 HD
BRANCH  28  32
ATOM     32  S   UNL     1      32.021 -10.936 -22.881  0.00  0.00    -0.060 S 
BRANCH  32  34
ATOM     33  N   UNL     1      32.449  -9.064 -21.008  0.00  0.00    -0.237 NA
ATOM     34  C   UNL     1      31.833 -10.245 -21.240  0.00  0.00    +0.111 C 
ATOM     35  C   UNL     1      31.086 -10.929 -20.295  0.00  0.00    +0.026 C 
ATOM     36  C   UNL     1      30.962 -10.365 -19.030  0.00  0.00    +0.004 C 
ATOM     37  C   UNL     1      31.581  -9.151 -18.754  0.00  0.00    +0.021 C 
ATOM     38  C   UNL     1      32.305  -8.546 -19.768  0.00  0.00    +0.099 C 
ENDBRANCH  32  34
ENDBRANCH  28  32
ENDBRANCH  20  23
ENDBRANCH   4  20
TORSDOF 9
ENDMDL
MODEL 6
REMARK VINA RESULT:     -10.7      4.242     12.357
REMARK  Name = 17758816
REMARK  9 active torsions:
REMARK  status: ('A' for Active; 'I' for Inactive)
REMARK    1  A    between atoms: C_3  and  C_8
REMARK    2  A    between atoms: C_4  and  C_20
REMARK    3  A    between atoms: C_11  and  O_14
REMARK    4  A    between atoms: O_14  and  C_15
REMARK    5  A    between atoms: C_15  and  C_17
REMARK    6  A    between atoms: C_17  and  O_18
REMARK    7  A    between atoms: C_20  and  N_23
REMARK    8  A    between atoms: C_28  and  S_32
REMARK    9  A    between atoms: S_32  and  C_34
REMARK                            x       y       z     vdW  Elec       q    Type
REMARK                         _______ _______ _______ _____ _____    ______ ____
ROOT
ATOM      1  N   UNL     1      34.163 -15.104 -22.737  0.00  0.00    -0.317 N 
ATOM      2  N   UNL     1      33.974 -15.653 -24.880  0.00  0.00    -0.316 N 
ATOM      3  C   UNL     1      33.389 -14.131 -23.306  0.00  0.00    +0.060 C 
ATOM      4  C   UNL     1      34.490 -15.995 -23.720  0.00  0.00    +0.164 C 
ATOM      5  C   UNL     1      33.288 -14.493 -24.629  0.00  0.00    +0.074 C 
ATOM      6  H   UNL     1      34.434 -15.152 -21.792  0.00  0.00    +0.148 HD
ATOM      7  H   UNL     1      34.062 -16.127 -25.739  0.00  0.00    +0.148 HD
ENDROOT
BRANCH   3   8
ATOM      8  C   UNL     1      32.852 -13.012 -22.573  0.00  0.00    +0.015 C 
ATOM      9  C   UNL     1      32.335 -13.201 -21.292  0.00  0.00    +0.004 C 
ATOM     10  C   UNL     1      32.851 -11.740 -23.144  0.00  0.00    +0.004 C 
ATOM     11  C   UNL     1      31.816 -10.846 -21.152  0.00  0.00    +0.139 C 
ATOM     12  C   UNL     1      31.816 -12.118 -20.581  0.00  0.00    +0.037 C 
ATOM     13  C   UNL     1      32.333 -10.656 -22.434  0.00  0.00    +0.037 C 
BRANCH  11  14
ATOM     14  O   UNL     1      31.310  -9.789 -20.460  0.00  0.00    -0.464 OA
BRANCH  14  15
ATOM     15  C   UNL     1      32.173  -9.160 -19.513  0.00  0.00    +0.314 C 
BRANCH  15  17
ATOM     16  O   UNL     1      31.956  -7.175 -20.898  0.00  0.00    -0.246 OA
ATOM     17  C   UNL     1      32.472  -7.753 -19.954  0.00  0.00    +0.359 C 
BRANCH  17  18
ATOM     18  O   UNL     1      33.409  -7.198 -19.144  0.00  0.00    -0.478 OA
ATOM     19  H   UNL     1      33.283  -7.192 -18.216  0.00  0.00    +0.295 HD
ENDBRANCH  17  18
ENDBRANCH  15  17
ENDBRANCH  14  15
ENDBRANCH  11  14
ENDBRANCH   3   8
BRANCH   4  20
ATOM     20  C   UNL     1      35.326 -17.177 -23.437  0.00  0.00    +0.131 C 
BRANCH  20  23
ATOM     21  S   UNL     1      33.163 -21.537 -19.442  0.00  0.00    -0.045 S 
ATOM     22  O   UNL     1      36.446 -18.947 -21.494  0.00  0.00    -0.252 OA
ATOM     23  N   UNL     1      34.603 -18.121 -22.614  0.00  0.00    -0.285 N 
ATOM     24  N   UNL     1      34.283 -19.754 -21.040  0.00  0.00    -0.248 N 
ATOM     25  N   UNL     1      35.698 -21.037 -19.533  0.00  0.00    -0.222 NA
ATOM     26  C   UNL     1      35.232 -18.955 -21.683  0.00  0.00    +0.306 C 
ATOM     27  C   UNL     1      34.537 -20.706 -20.050  0.00  0.00    +0.167 C 
ATOM     28  C   UNL     1      34.193 -22.421 -18.395  0.00  0.00    +0.082 C 
ATOM     29  C   UNL     1      35.499 -22.021 -18.584  0.00  0.00    +0.114 C 
ATOM     30  H   UNL     1      33.625 -18.180 -22.713  0.00  0.00    +0.151 HD
ATOM     31  H   UNL     1      33.344 -19.634 -21.311  0.00  0.00    +0.158 HD
BRANCH  28  32
ATOM     32  S   UNL     1      33.610 -23.632 -17.279  0.00  0.00    -0.060 S 
BRANCH  32  34
ATOM     33  N   UNL     1      36.110 -23.147 -16.437  0.00  0.00    -0.237 NA
ATOM     34  C   UNL     1      34.866 -23.463 -16.014  0.00  0.00    +0.111 C 
ATOM     35  C   UNL     1      34.525 -23.660 -14.686  0.00  0.00    +0.026 C 
ATOM     36  C   UNL     1      35.525 -23.523 -13.730  0.00  0.00    +0.004 C 
ATOM     37  C   UNL     1      36.817 -23.197 -14.126  0.00  0.00    +0.021 C 
ATOM     38  C   UNL     1      37.056 -23.021 -15.479  0.00  0.00    +0.099 C 
ENDBRANCH  32  34
ENDBRANCH  28  32
ENDBRANCH  20  23
ENDBRANCH   4  20
TORSDOF 9
ENDMDL
MODEL 7
REMARK VINA RESULT:     -10.5      5.029     12.409
REMARK  Name = 17758816
REMARK  9 active torsions:
REMARK  status: ('A' for Active; 'I' for Inactive)
REMARK    1  A    between atoms: C_3  and  C_8
REMARK    2  A    between atoms: C_4  and  C_20
REMARK    3  A    between atoms: C_11  and  O_14
REMARK    4  A    between atoms: O_14  and  C_15
REMARK    5  A    between atoms: C_15  and  C_17
REMARK    6  A    between atoms: C_17  and  O_18
REMARK    7  A    between atoms: C_20  and  N_23
REMARK    8  A    between atoms: C_28  and  S_32
REMARK    9  A    between atoms: S_32  and  C_34
REMARK                            x       y       z     vdW  Elec       q    Type
REMARK                         _______ _______ _______ _____ _____    ______ ____
ROOT
ATOM      1  N   UNL     1      35.368 -17.960 -22.047  0.00  0.00    -0.317 N 
ATOM      2  N   UNL     1      34.931 -19.815 -23.187  0.00  0.00    -0.316 N 
ATOM      3  C   UNL     1      34.678 -17.563 -23.158  0.00  0.00    +0.060 C 
ATOM      4  C   UNL     1      35.496 -19.320 -22.107  0.00  0.00    +0.164 C 
ATOM      5  C   UNL     1      34.420 -18.726 -23.846  0.00  0.00    +0.074 C 
ATOM      6  H   UNL     1      35.709 -17.374 -21.334  0.00  0.00    +0.148 HD
ATOM      7  H   UNL     1      34.885 -20.760 -23.460  0.00  0.00    +0.148 HD
ENDROOT
BRANCH   3   8
ATOM      8  C   UNL     1      34.350 -16.187 -23.441  0.00  0.00    +0.015 C 
ATOM      9  C   UNL     1      33.795 -15.843 -24.673  0.00  0.00    +0.004 C 
ATOM     10  C   UNL     1      34.589 -15.203 -22.484  0.00  0.00    +0.004 C 
ATOM     11  C   UNL     1      33.715 -13.527 -23.989  0.00  0.00    +0.139 C 
ATOM     12  C   UNL     1      33.477 -14.511 -24.947  0.00  0.00    +0.037 C 
ATOM     13  C   UNL     1      34.272 -13.872 -22.757  0.00  0.00    +0.037 C 
BRANCH  11  14
ATOM     14  O   UNL     1      33.406 -12.229 -24.256  0.00  0.00    -0.464 OA
BRANCH  14  15
ATOM     15  C   UNL     1      33.067 -11.399 -23.145  0.00  0.00    +0.314 C 
BRANCH  15  17
ATOM     16  O   UNL     1      33.319  -8.985 -23.028  0.00  0.00    -0.246 OA
ATOM     17  C   UNL     1      33.796 -10.088 -23.248  0.00  0.00    +0.359 C 
BRANCH  17  18
ATOM     18  O   UNL     1      35.083 -10.297 -23.625  0.00  0.00    -0.478 OA
ATOM     19  H   UNL     1      35.638 -10.848 -23.109  0.00  0.00    +0.295 HD
ENDBRANCH  17  18
ENDBRANCH  15  17
ENDBRANCH  14  15
ENDBRANCH  11  14
ENDBRANCH   3   8
BRANCH   4  20
ATOM     20  C   UNL     1      36.196 -20.073 -21.051  0.00  0.00    +0.131 C 
BRANCH  20  23
ATOM     21  S   UNL     1      32.901 -23.477 -16.903  0.00  0.00    -0.045 S 
ATOM     22  O   UNL     1      36.675 -21.260 -18.496  0.00  0.00    -0.252 OA
ATOM     23  N   UNL     1      35.251 -20.835 -20.264  0.00  0.00    -0.285 N 
ATOM     24  N   UNL     1      34.463 -22.063 -18.498  0.00  0.00    -0.248 N 
ATOM     25  N   UNL     1      35.358 -22.864 -16.382  0.00  0.00    -0.222 NA
ATOM     26  C   UNL     1      35.569 -21.385 -19.017  0.00  0.00    +0.306 C 
ATOM     27  C   UNL     1      34.404 -22.735 -17.276  0.00  0.00    +0.167 C 
ATOM     28  C   UNL     1      33.568 -24.024 -15.421  0.00  0.00    +0.082 C 
ATOM     29  C   UNL     1      34.878 -23.603 -15.319  0.00  0.00    +0.114 C 
ATOM     30  H   UNL     1      34.345 -20.974 -20.621  0.00  0.00    +0.151 HD
ATOM     31  H   UNL     1      33.647 -22.066 -19.048  0.00  0.00    +0.158 HD
BRANCH  28  32
ATOM     32  S   UNL     1      32.668 -24.967 -14.258  0.00  0.00    -0.060 S 
BRANCH  32  34
ATOM     33  N   UNL     1      30.197 -25.335 -15.236  0.00  0.00    -0.237 NA
ATOM     34  C   UNL     1      31.017 -24.415 -14.680  0.00  0.00    +0.111 C 
ATOM     35  C   UNL     1      30.654 -23.103 -14.430  0.00  0.00    +0.026 C 
ATOM     36  C   UNL     1      29.366 -22.707 -14.772  0.00  0.00    +0.004 C 
ATOM     37  C   UNL     1      28.492 -23.624 -15.345  0.00  0.00    +0.021 C 
ATOM     38  C   UNL     1      28.952 -24.914 -15.554  0.00  0.00    +0.099 C 
ENDBRANCH  32  34
ENDBRANCH  28  32
ENDBRANCH  20  23
ENDBRANCH   4  20
TORSDOF 9
ENDMDL
MODEL 8
REMARK VINA RESULT:     -10.5      1.813      2.414
REMARK  Name = 17758816
REMARK  9 active torsions:
REMARK  status: ('A' for Active; 'I' for Inactive)
REMARK    1  A    between atoms: C_3  and  C_8
REMARK    2  A    between atoms: C_4  and  C_20
REMARK    3  A    between atoms: C_11  and  O_14
REMARK    4  A    between atoms: O_14  and  C_15
REMARK    5  A    between atoms: C_15  and  C_17
REMARK    6  A    between atoms: C_17  and  O_18
REMARK    7  A    between atoms: C_20  and  N_23
REMARK    8  A    between atoms: C_28  and  S_32
REMARK    9  A    between atoms: S_32  and  C_34
REMARK                            x       y       z     vdW  Elec       q    Type
REMARK                         _______ _______ _______ _____ _____    ______ ____
ROOT
ATOM      1  N   UNL     1      35.252 -18.422 -22.554  0.00  0.00    -0.317 N 
ATOM      2  N   UNL     1      33.786 -18.780 -24.183  0.00  0.00    -0.316 N 
ATOM      3  C   UNL     1      34.596 -19.574 -22.221  0.00  0.00    +0.060 C 
ATOM      4  C   UNL     1      34.732 -17.982 -23.739  0.00  0.00    +0.164 C 
ATOM      5  C   UNL     1      33.696 -19.773 -23.241  0.00  0.00    +0.074 C 
ATOM      6  H   UNL     1      35.968 -17.990 -22.035  0.00  0.00    +0.148 HD
ATOM      7  H   UNL     1      33.259 -18.685 -25.009  0.00  0.00    +0.148 HD
ENDROOT
BRANCH   3   8
ATOM      8  C   UNL     1      34.875 -20.331 -21.025  0.00  0.00    +0.015 C 
ATOM      9  C   UNL     1      36.183 -20.429 -20.552  0.00  0.00    +0.004 C 
ATOM     10  C   UNL     1      33.837 -20.962 -20.341  0.00  0.00    +0.004 C 
ATOM     11  C   UNL     1      35.415 -21.791 -18.710  0.00  0.00    +0.139 C 
ATOM     12  C   UNL     1      36.453 -21.160 -19.394  0.00  0.00    +0.037 C 
ATOM     13  C   UNL     1      34.106 -21.693 -19.184  0.00  0.00    +0.037 C 
BRANCH  11  14
ATOM     14  O   UNL     1      35.678 -22.504 -17.581  0.00  0.00    -0.464 OA
BRANCH  14  15
ATOM     15  C   UNL     1      36.871 -22.175 -16.869  0.00  0.00    +0.314 C 
BRANCH  15  17
ATOM     16  O   UNL     1      36.106 -23.421 -14.928  0.00  0.00    -0.246 OA
ATOM     17  C   UNL     1      37.011 -23.072 -15.670  0.00  0.00    +0.359 C 
BRANCH  17  18
ATOM     18  O   UNL     1      38.305 -23.454 -15.521  0.00  0.00    -0.478 OA
ATOM     19  H   UNL     1      38.933 -23.254 -16.186  0.00  0.00    +0.295 HD
ENDBRANCH  17  18
ENDBRANCH  15  17
ENDBRANCH  14  15
ENDBRANCH  11  14
ENDBRANCH   3   8
BRANCH   4  20
ATOM     20  C   UNL     1      35.225 -16.751 -24.384  0.00  0.00    +0.131 C 
BRANCH  20  23
ATOM     21  S   UNL     1      31.712 -12.065 -22.071  0.00  0.00    -0.045 S 
ATOM     22  O   UNL     1      34.730 -15.603 -21.814  0.00  0.00    -0.252 OA
ATOM     23  N   UNL     1      34.346 -15.641 -24.090  0.00  0.00    -0.285 N 
ATOM     24  N   UNL     1      33.258 -14.072 -22.825  0.00  0.00    -0.248 N 
ATOM     25  N   UNL     1      33.180 -13.466 -20.470  0.00  0.00    -0.222 NA
ATOM     26  C   UNL     1      34.159 -15.139 -22.798  0.00  0.00    +0.306 C 
ATOM     27  C   UNL     1      32.829 -13.322 -21.728  0.00  0.00    +0.167 C 
ATOM     28  C   UNL     1      31.684 -11.669 -20.404  0.00  0.00    +0.082 C 
ATOM     29  C   UNL     1      32.523 -12.517 -19.712  0.00  0.00    +0.114 C 
ATOM     30  H   UNL     1      33.856 -15.220 -24.834  0.00  0.00    +0.151 HD
ATOM     31  H   UNL     1      32.890 -13.824 -23.704  0.00  0.00    +0.158 HD
BRANCH  28  32
ATOM     32  S   UNL     1      30.718 -10.370 -19.746  0.00  0.00    -0.060 S 
BRANCH  32  34
ATOM     33  N   UNL     1      31.692  -8.876 -21.750  0.00  0.00    -0.237 NA
ATOM     34  C   UNL     1      31.642  -8.984 -20.403  0.00  0.00    +0.111 C 
ATOM     35  C   UNL     1      32.255  -8.100 -19.531  0.00  0.00    +0.026 C 
ATOM     36  C   UNL     1      32.966  -7.036 -20.075  0.00  0.00    +0.004 C 
ATOM     37  C   UNL     1      33.040  -6.891 -21.456  0.00  0.00    +0.021 C 
ATOM     38  C   UNL     1      32.391  -7.829 -22.243  0.00  0.00    +0.099 C 
ENDBRANCH  32  34
ENDBRANCH  28  32
ENDBRANCH  20  23
ENDBRANCH   4  20
TORSDOF 9
ENDMDL
MODEL 9
REMARK VINA RESULT:     -10.2      4.577     13.095
REMARK  Name = 17758816
REMARK  9 active torsions:
REMARK  status: ('A' for Active; 'I' for Inactive)
REMARK    1  A    between atoms: C_3  and  C_8
REMARK    2  A    between atoms: C_4  and  C_20
REMARK    3  A    between atoms: C_11  and  O_14
REMARK    4  A    between atoms: O_14  and  C_15
REMARK    5  A    between atoms: C_15  and  C_17
REMARK    6  A    between atoms: C_17  and  O_18
REMARK    7  A    between atoms: C_20  and  N_23
REMARK    8  A    between atoms: C_28  and  S_32
REMARK    9  A    between atoms: S_32  and  C_34
REMARK                            x       y       z     vdW  Elec       q    Type
REMARK                         _______ _______ _______ _____ _____    ______ ____
ROOT
ATOM      1  N   UNL     1      35.375 -17.203 -22.518  0.00  0.00    -0.317 N 
ATOM      2  N   UNL     1      34.805 -18.923 -23.801  0.00  0.00    -0.316 N 
ATOM      3  C   UNL     1      34.511 -16.703 -23.451  0.00  0.00    +0.060 C 
ATOM      4  C   UNL     1      35.521 -18.538 -22.767  0.00  0.00    +0.164 C 
ATOM      5  C   UNL     1      34.174 -17.784 -24.232  0.00  0.00    +0.074 C 
ATOM      6  H   UNL     1      35.812 -16.693 -21.797  0.00  0.00    +0.148 HD
ATOM      7  H   UNL     1      34.737 -19.828 -24.181  0.00  0.00    +0.148 HD
ENDROOT
BRANCH   3   8
ATOM      8  C   UNL     1      34.114 -15.317 -23.506  0.00  0.00    +0.015 C 
ATOM      9  C   UNL     1      34.176 -14.529 -22.357  0.00  0.00    +0.004 C 
ATOM     10  C   UNL     1      33.669 -14.766 -24.706  0.00  0.00    +0.004 C 
ATOM     11  C   UNL     1      33.349 -12.637 -23.612  0.00  0.00    +0.139 C 
ATOM     12  C   UNL     1      33.793 -13.188 -22.410  0.00  0.00    +0.037 C 
ATOM     13  C   UNL     1      33.285 -13.426 -24.760  0.00  0.00    +0.037 C 
BRANCH  11  14
ATOM     14  O   UNL     1      32.975 -11.329 -23.663  0.00  0.00    -0.464 OA
BRANCH  14  15
ATOM     15  C   UNL     1      32.223 -10.825 -22.558  0.00  0.00    +0.314 C 
BRANCH  15  17
ATOM     16  O   UNL     1      31.622  -8.569 -21.883  0.00  0.00    -0.246 OA
ATOM     17  C   UNL     1      31.951  -9.359 -22.755  0.00  0.00    +0.359 C 
BRANCH  17  18
ATOM     18  O   UNL     1      32.126  -9.022 -24.058  0.00  0.00    -0.478 OA
ATOM     19  H   UNL     1      32.881  -8.533 -24.319  0.00  0.00    +0.295 HD
ENDBRANCH  17  18
ENDBRANCH  15  17
ENDBRANCH  14  15
ENDBRANCH  11  14
ENDBRANCH   3   8
BRANCH   4  20
ATOM     20  C   UNL     1      36.395 -19.384 -21.934  0.00  0.00    +0.131 C 
BRANCH  20  23
ATOM     21  S   UNL     1      33.798 -23.069 -17.537  0.00  0.00    -0.045 S 
ATOM     22  O   UNL     1      37.154 -20.415 -19.379  0.00  0.00    -0.252 OA
ATOM     23  N   UNL     1      35.602 -20.242 -21.080  0.00  0.00    -0.285 N 
ATOM     24  N   UNL     1      35.074 -21.508 -19.246  0.00  0.00    -0.248 N 
ATOM     25  N   UNL     1      36.171 -22.115 -17.160  0.00  0.00    -0.222 NA
ATOM     26  C   UNL     1      36.052 -20.704 -19.838  0.00  0.00    +0.306 C 
ATOM     27  C   UNL     1      35.166 -22.144 -18.006  0.00  0.00    +0.167 C 
ATOM     28  C   UNL     1      34.604 -23.474 -16.079  0.00  0.00    +0.082 C 
ATOM     29  C   UNL     1      35.847 -22.878 -16.056  0.00  0.00    +0.114 C 
ATOM     30  H   UNL     1      34.706 -20.512 -21.386  0.00  0.00    +0.151 HD
ATOM     31  H   UNL     1      34.240 -21.639 -19.752  0.00  0.00    +0.158 HD
BRANCH  28  32
ATOM     32  S   UNL     1      33.898 -24.493 -14.848  0.00  0.00    -0.060 S 
BRANCH  32  34
ATOM     33  N   UNL     1      35.772 -26.370 -15.248  0.00  0.00    -0.237 NA
ATOM     34  C   UNL     1      35.362 -25.414 -14.384  0.00  0.00    +0.111 C 
ATOM     35  C   UNL     1      35.998 -25.123 -13.189  0.00  0.00    +0.026 C 
ATOM     36  C   UNL     1      37.132 -25.859 -12.859  0.00  0.00    +0.004 C 
ATOM     37  C   UNL     1      37.585 -26.850 -13.723  0.00  0.00    +0.021 C 
ATOM     38  C   UNL     1      36.877 -27.064 -14.894  0.00  0.00    +0.099 C 
ENDBRANCH  32  34
ENDBRANCH  28  32
ENDBRANCH  20  23
ENDBRANCH   4  20
TORSDOF 9
ENDMDL
