MODEL 1
REMARK VINA RESULT:     -13.0      0.000      0.000
REMARK  Name = 25023705
REMARK  6 active torsions:
REMARK  status: ('A' for Active; 'I' for Inactive)
REMARK    1  A    between atoms: C_1  and  C_8
REMARK    2  A    between atoms: C_1  and  C_20
REMARK    3  A    between atoms: C_20  and  N_22
REMARK    4  A    between atoms: C_23  and  C_25
REMARK    5  A    between atoms: C_30  and  O_31
REMARK    6  A    between atoms: O_31  and  C_32
REMARK                            x       y       z     vdW  Elec       q    Type
REMARK                         _______ _______ _______ _____ _____    ______ ____
ROOT
ATOM      1  C   UNL     1      32.632 -24.033 -14.799  0.00  0.00    +0.066 C 
ATOM      2  C   UNL     1      32.128 -22.575 -14.673  0.00  0.00    +0.009 C 
ATOM      3  C   UNL     1      31.525 -24.933 -14.197  0.00  0.00    +0.009 C 
ENDROOT
BRANCH   1   8
ATOM      4  N   UNL     1      35.055 -24.476 -14.854  0.00  0.00    -0.347 NA
ATOM      5  N   UNL     1      37.322 -24.912 -15.037  0.00  0.00    -0.266 NA
ATOM      6  N   UNL     1      38.776 -24.838 -13.119  0.00  0.00    -0.316 NA
ATOM      7  N   UNL     1      39.617 -25.357 -15.241  0.00  0.00    -0.283 N 
ATOM      8  C   UNL     1      33.991 -24.150 -14.081  0.00  0.00    +0.122 C 
ATOM      9  C   UNL     1      34.059 -23.925 -12.723  0.00  0.00    +0.026 C 
ATOM     10  C   UNL     1      35.303 -24.044 -12.126  0.00  0.00    +0.001 C 
ATOM     11  C   UNL     1      36.262 -24.591 -14.284  0.00  0.00    +0.137 C 
ATOM     12  C   UNL     1      36.416 -24.379 -12.909  0.00  0.00    +0.199 C 
ATOM     13  C   UNL     1      37.698 -24.517 -12.382  0.00  0.00    +0.187 C 
ATOM     14  C   UNL     1      38.518 -25.018 -14.422  0.00  0.00    +0.207 C 
ATOM     15  H   UNL     1      39.485 -25.502 -16.206  0.00  0.00    +0.156 HD
ATOM     16  H   UNL     1      40.515 -25.449 -14.847  0.00  0.00    +0.156 HD
ATOM     17  N   UNL     1      37.907 -24.312 -10.996  0.00  0.00    -0.334 N 
ATOM     18  H   UNL     1      38.810 -24.407 -10.615  0.00  0.00    +0.144 HD
ATOM     19  H   UNL     1      37.149 -24.075 -10.414  0.00  0.00    +0.144 HD
ENDBRANCH   1   8
BRANCH   1  20
ATOM     20  C   UNL     1      32.773 -24.368 -16.311  0.00  0.00    +0.096 C 
BRANCH  20  22
ATOM     21  O   UNL     1      33.742 -24.530 -19.008  0.00  0.00    -0.270 OA
ATOM     22  N   UNL     1      33.304 -23.286 -17.100  0.00  0.00    -0.300 N 
ATOM     23  C   UNL     1      33.751 -23.461 -18.403  0.00  0.00    +0.246 C 
ATOM     24  H   UNL     1      33.352 -22.388 -16.700  0.00  0.00    +0.150 HD
BRANCH  23  25
ATOM     25  C   UNL     1      34.295 -22.251 -19.073  0.00  0.00    +0.054 C 
ATOM     26  C   UNL     1      35.673 -22.043 -19.125  0.00  0.00    +0.008 C 
ATOM     27  C   UNL     1      33.426 -21.323 -19.648  0.00  0.00    +0.008 C 
ATOM     28  C   UNL     1      36.182 -20.906 -19.752  0.00  0.00    +0.038 C 
ATOM     29  C   UNL     1      33.936 -20.187 -20.277  0.00  0.00    +0.038 C 
ATOM     30  C   UNL     1      35.314 -19.979 -20.328  0.00  0.00    +0.145 C 
BRANCH  30  31
ATOM     31  O   UNL     1      35.812 -18.869 -20.938  0.00  0.00    -0.453 OA
BRANCH  31  32
ATOM     32  C   UNL     1      35.265 -18.505 -22.157  0.00  0.00    +0.145 C 
ATOM     33  C   UNL     1      34.747 -19.481 -23.008  0.00  0.00    +0.037 C 
ATOM     34  C   UNL     1      35.233 -17.162 -22.535  0.00  0.00    +0.037 C 
ATOM     35  C   UNL     1      34.197 -19.115 -24.237  0.00  0.00    +0.003 C 
ATOM     36  C   UNL     1      34.683 -16.796 -23.764  0.00  0.00    +0.003 C 
ATOM     37  C   UNL     1      34.166 -17.773 -24.614  0.00  0.00    +0.000 C 
ENDBRANCH  31  32
ENDBRANCH  30  31
ENDBRANCH  23  25
ENDBRANCH  20  22
ENDBRANCH   1  20
TORSDOF 6
ENDMDL
MODEL 2
REMARK VINA RESULT:     -12.2      4.995      8.267
REMARK  Name = 25023705
REMARK  6 active torsions:
REMARK  status: ('A' for Active; 'I' for Inactive)
REMARK    1  A    between atoms: C_1  and  C_8
REMARK    2  A    between atoms: C_1  and  C_20
REMARK    3  A    between atoms: C_20  and  N_22
REMARK    4  A    between atoms: C_23  and  C_25
REMARK    5  A    between atoms: C_30  and  O_31
REMARK    6  A    between atoms: O_31  and  C_32
REMARK                            x       y       z     vdW  Elec       q    Type
REMARK                         _______ _______ _______ _____ _____    ______ ____
ROOT
ATOM      1  C   UNL     1      35.329 -19.126 -21.876  0.00  0.00    +0.066 C 
ATOM      2  C   UNL     1      34.055 -18.782 -22.684  0.00  0.00    +0.009 C 
ATOM      3  C   UNL     1      36.354 -19.689 -22.891  0.00  0.00    +0.009 C 
ENDROOT
BRANCH   1   8
ATOM      4  N   UNL     1      35.948 -20.480 -19.913  0.00  0.00    -0.347 NA
ATOM      5  N   UNL     1      36.653 -21.705 -18.079  0.00  0.00    -0.266 NA
ATOM      6  N   UNL     1      35.137 -23.118 -16.852  0.00  0.00    -0.316 NA
ATOM      7  N   UNL     1      37.386 -22.941 -16.223  0.00  0.00    -0.283 N 
ATOM      8  C   UNL     1      34.952 -20.115 -20.756  0.00  0.00    +0.122 C 
ATOM      9  C   UNL     1      33.654 -20.571 -20.666  0.00  0.00    +0.026 C 
ATOM     10  C   UNL     1      33.367 -21.458 -19.643  0.00  0.00    +0.001 C 
ATOM     11  C   UNL     1      35.678 -21.337 -18.919  0.00  0.00    +0.137 C 
ATOM     12  C   UNL     1      34.385 -21.847 -18.760  0.00  0.00    +0.199 C 
ATOM     13  C   UNL     1      34.174 -22.735 -17.707  0.00  0.00    +0.187 C 
ATOM     14  C   UNL     1      36.337 -22.571 -17.093  0.00  0.00    +0.207 C 
ATOM     15  H   UNL     1      38.288 -22.570 -16.354  0.00  0.00    +0.156 HD
ATOM     16  H   UNL     1      37.214 -23.570 -15.485  0.00  0.00    +0.156 HD
ATOM     17  N   UNL     1      32.882 -23.279 -17.503  0.00  0.00    -0.334 N 
ATOM     18  H   UNL     1      32.725 -23.908 -16.761  0.00  0.00    +0.144 HD
ATOM     19  H   UNL     1      32.142 -23.030 -18.103  0.00  0.00    +0.144 HD
ENDBRANCH   1   8
BRANCH   1  20
ATOM     20  C   UNL     1      35.898 -17.806 -21.282  0.00  0.00    +0.096 C 
BRANCH  20  22
ATOM     21  O   UNL     1      35.556 -15.617 -23.108  0.00  0.00    -0.270 OA
ATOM     22  N   UNL     1      34.927 -16.747 -21.182  0.00  0.00    -0.300 N 
ATOM     23  C   UNL     1      34.836 -15.725 -22.119  0.00  0.00    +0.246 C 
ATOM     24  H   UNL     1      34.303 -16.747 -20.421  0.00  0.00    +0.150 HD
BRANCH  23  25
ATOM     25  C   UNL     1      33.799 -14.693 -21.859  0.00  0.00    +0.054 C 
ATOM     26  C   UNL     1      33.338 -14.480 -20.561  0.00  0.00    +0.008 C 
ATOM     27  C   UNL     1      33.288 -13.938 -22.916  0.00  0.00    +0.008 C 
ATOM     28  C   UNL     1      32.363 -13.512 -20.318  0.00  0.00    +0.038 C 
ATOM     29  C   UNL     1      32.314 -12.970 -22.672  0.00  0.00    +0.038 C 
ATOM     30  C   UNL     1      31.851 -12.757 -21.374  0.00  0.00    +0.145 C 
BRANCH  30  31
ATOM     31  O   UNL     1      30.899 -11.814 -21.137  0.00  0.00    -0.453 OA
BRANCH  31  32
ATOM     32  C   UNL     1      31.316 -10.587 -20.649  0.00  0.00    +0.145 C 
ATOM     33  C   UNL     1      31.211 -10.306 -19.287  0.00  0.00    +0.037 C 
ATOM     34  C   UNL     1      31.838  -9.631 -21.521  0.00  0.00    +0.037 C 
ATOM     35  C   UNL     1      31.630  -9.069 -18.796  0.00  0.00    +0.003 C 
ATOM     36  C   UNL     1      32.256  -8.394 -21.029  0.00  0.00    +0.003 C 
ATOM     37  C   UNL     1      32.152  -8.113 -19.667  0.00  0.00    +0.000 C 
ENDBRANCH  31  32
ENDBRANCH  30  31
ENDBRANCH  23  25
ENDBRANCH  20  22
ENDBRANCH   1  20
TORSDOF 6
ENDMDL
MODEL 3
REMARK VINA RESULT:     -11.8      2.336      4.704
REMARK  Name = 25023705
REMARK  6 active torsions:
REMARK  status: ('A' for Active; 'I' for Inactive)
REMARK    1  A    between atoms: C_1  and  C_8
REMARK    2  A    between atoms: C_1  and  C_20
REMARK    3  A    between atoms: C_20  and  N_22
REMARK    4  A    between atoms: C_23  and  C_25
REMARK    5  A    between atoms: C_30  and  O_31
REMARK    6  A    between atoms: O_31  and  C_32
REMARK                            x       y       z     vdW  Elec       q    Type
REMARK                         _______ _______ _______ _____ _____    ______ ____
ROOT
ATOM      1  C   UNL     1      33.979 -22.813 -18.581  0.00  0.00    +0.066 C 
ATOM      2  C   UNL     1      32.723 -21.951 -18.859  0.00  0.00    +0.009 C 
ATOM      3  C   UNL     1      33.867 -24.058 -19.494  0.00  0.00    +0.009 C 
ENDROOT
BRANCH   1   8
ATOM      4  N   UNL     1      32.904 -23.674 -16.539  0.00  0.00    -0.347 NA
ATOM      5  N   UNL     1      31.785 -24.508 -14.692  0.00  0.00    -0.266 NA
ATOM      6  N   UNL     1      32.838 -24.626 -12.530  0.00  0.00    -0.316 NA
ATOM      7  N   UNL     1      30.634 -25.356 -12.830  0.00  0.00    -0.283 N 
ATOM      8  C   UNL     1      34.029 -23.143 -17.077  0.00  0.00    +0.122 C 
ATOM      9  C   UNL     1      35.182 -22.890 -16.367  0.00  0.00    +0.026 C 
ATOM     10  C   UNL     1      35.175 -23.204 -15.019  0.00  0.00    +0.001 C 
ATOM     11  C   UNL     1      32.889 -23.982 -15.235  0.00  0.00    +0.137 C 
ATOM     12  C   UNL     1      34.021 -23.755 -14.444  0.00  0.00    +0.199 C 
ATOM     13  C   UNL     1      33.936 -24.098 -13.096  0.00  0.00    +0.187 C 
ATOM     14  C   UNL     1      31.813 -24.803 -13.375  0.00  0.00    +0.207 C 
ATOM     15  H   UNL     1      29.850 -25.507 -13.405  0.00  0.00    +0.156 HD
ATOM     16  H   UNL     1      30.597 -25.591 -11.874  0.00  0.00    +0.156 HD
ATOM     17  N   UNL     1      35.055 -23.888 -12.253  0.00  0.00    -0.334 N 
ATOM     18  H   UNL     1      35.004 -24.127 -11.299  0.00  0.00    +0.144 HD
ATOM     19  H   UNL     1      35.883 -23.502 -12.620  0.00  0.00    +0.144 HD
ENDBRANCH   1   8
BRANCH   1  20
ATOM     20  C   UNL     1      35.231 -21.997 -19.011  0.00  0.00    +0.096 C 
BRANCH  20  22
ATOM     21  O   UNL     1      36.863 -19.770 -19.797  0.00  0.00    -0.270 OA
ATOM     22  N   UNL     1      34.992 -21.103 -20.115  0.00  0.00    -0.300 N 
ATOM     23  C   UNL     1      35.842 -20.047 -20.420  0.00  0.00    +0.246 C 
ATOM     24  H   UNL     1      34.195 -21.245 -20.676  0.00  0.00    +0.150 HD
BRANCH  23  25
ATOM     25  C   UNL     1      35.442 -19.201 -21.574  0.00  0.00    +0.054 C 
ATOM     26  C   UNL     1      34.740 -19.762 -22.640  0.00  0.00    +0.008 C 
ATOM     27  C   UNL     1      35.770 -17.844 -21.589  0.00  0.00    +0.008 C 
ATOM     28  C   UNL     1      34.366 -18.966 -23.723  0.00  0.00    +0.038 C 
ATOM     29  C   UNL     1      35.395 -17.049 -22.672  0.00  0.00    +0.038 C 
ATOM     30  C   UNL     1      34.693 -17.611 -23.739  0.00  0.00    +0.145 C 
BRANCH  30  31
ATOM     31  O   UNL     1      34.330 -16.835 -24.797  0.00  0.00    -0.453 OA
BRANCH  31  32
ATOM     32  C   UNL     1      34.040 -15.504 -24.549  0.00  0.00    +0.145 C 
ATOM     33  C   UNL     1      33.562 -14.692 -25.578  0.00  0.00    +0.037 C 
ATOM     34  C   UNL     1      34.228 -14.974 -23.272  0.00  0.00    +0.037 C 
ATOM     35  C   UNL     1      33.271 -13.350 -25.330  0.00  0.00    +0.003 C 
ATOM     36  C   UNL     1      33.938 -13.632 -23.025  0.00  0.00    +0.003 C 
ATOM     37  C   UNL     1      33.460 -12.821 -24.053  0.00  0.00    +0.000 C 
ENDBRANCH  31  32
ENDBRANCH  30  31
ENDBRANCH  23  25
ENDBRANCH  20  22
ENDBRANCH   1  20
TORSDOF 6
ENDMDL
MODEL 4
REMARK VINA RESULT:     -11.6      8.824     14.106
REMARK  Name = 25023705
REMARK  6 active torsions:
REMARK  status: ('A' for Active; 'I' for Inactive)
REMARK    1  A    between atoms: C_1  and  C_8
REMARK    2  A    between atoms: C_1  and  C_20
REMARK    3  A    between atoms: C_20  and  N_22
REMARK    4  A    between atoms: C_23  and  C_25
REMARK    5  A    between atoms: C_30  and  O_31
REMARK    6  A    between atoms: O_31  and  C_32
REMARK                            x       y       z     vdW  Elec       q    Type
REMARK                         _______ _______ _______ _____ _____    ______ ____
ROOT
ATOM      1  C   UNL     1      32.135 -11.673 -22.031  0.00  0.00    +0.066 C 
ATOM      2  C   UNL     1      30.604 -11.742 -21.808  0.00  0.00    +0.009 C 
ATOM      3  C   UNL     1      32.791 -12.183 -20.724  0.00  0.00    +0.009 C 
ENDROOT
BRANCH   1   8
ATOM      4  N   UNL     1      31.679  -9.253 -21.965  0.00  0.00    -0.347 NA
ATOM      5  N   UNL     1      31.141  -7.005 -21.831  0.00  0.00    -0.266 NA
ATOM      6  N   UNL     1      32.526  -5.318 -22.847  0.00  0.00    -0.316 NA
ATOM      7  N   UNL     1      30.580  -4.731 -21.685  0.00  0.00    -0.283 N 
ATOM      8  C   UNL     1      32.516 -10.226 -22.398  0.00  0.00    +0.122 C 
ATOM      9  C   UNL     1      33.660  -9.994 -23.132  0.00  0.00    +0.026 C 
ATOM     10  C   UNL     1      33.957  -8.677 -23.435  0.00  0.00    +0.001 C 
ATOM     11  C   UNL     1      31.960  -7.976 -22.254  0.00  0.00    +0.137 C 
ATOM     12  C   UNL     1      33.103  -7.656 -22.995  0.00  0.00    +0.199 C 
ATOM     13  C   UNL     1      33.335  -6.308 -23.261  0.00  0.00    +0.187 C 
ATOM     14  C   UNL     1      31.462  -5.733 -22.146  0.00  0.00    +0.207 C 
ATOM     15  H   UNL     1      29.781  -4.979 -21.166  0.00  0.00    +0.156 HD
ATOM     16  H   UNL     1      30.763  -3.784 -21.885  0.00  0.00    +0.156 HD
ATOM     17  N   UNL     1      34.479  -5.932 -24.007  0.00  0.00    -0.334 N 
ATOM     18  H   UNL     1      34.650  -4.981 -24.200  0.00  0.00    +0.144 HD
ATOM     19  H   UNL     1      35.102  -6.620 -24.334  0.00  0.00    +0.144 HD
ENDBRANCH   1   8
BRANCH   1  20
ATOM     20  C   UNL     1      32.502 -12.653 -23.182  0.00  0.00    +0.096 C 
BRANCH  20  22
ATOM     21  O   UNL     1      33.753 -14.633 -24.841  0.00  0.00    -0.270 OA
ATOM     22  N   UNL     1      33.167 -13.850 -22.737  0.00  0.00    -0.300 N 
ATOM     23  C   UNL     1      33.746 -14.754 -23.619  0.00  0.00    +0.246 C 
ATOM     24  H   UNL     1      33.213 -14.035 -21.771  0.00  0.00    +0.150 HD
BRANCH  23  25
ATOM     25  C   UNL     1      34.370 -15.954 -23.004  0.00  0.00    +0.054 C 
ATOM     26  C   UNL     1      34.714 -15.947 -21.652  0.00  0.00    +0.008 C 
ATOM     27  C   UNL     1      34.613 -17.088 -23.780  0.00  0.00    +0.008 C 
ATOM     28  C   UNL     1      35.301 -17.073 -21.076  0.00  0.00    +0.038 C 
ATOM     29  C   UNL     1      35.200 -18.215 -23.203  0.00  0.00    +0.038 C 
ATOM     30  C   UNL     1      35.544 -18.207 -21.852  0.00  0.00    +0.145 C 
BRANCH  30  31
ATOM     31  O   UNL     1      36.119 -19.305 -21.290  0.00  0.00    -0.453 OA
BRANCH  31  32
ATOM     32  C   UNL     1      35.301 -20.165 -20.576  0.00  0.00    +0.145 C 
ATOM     33  C   UNL     1      33.915 -20.069 -20.695  0.00  0.00    +0.037 C 
ATOM     34  C   UNL     1      35.865 -21.127 -19.736  0.00  0.00    +0.037 C 
ATOM     35  C   UNL     1      33.091 -20.934 -19.975  0.00  0.00    +0.003 C 
ATOM     36  C   UNL     1      35.041 -21.992 -19.016  0.00  0.00    +0.003 C 
ATOM     37  C   UNL     1      33.654 -21.896 -19.135  0.00  0.00    +0.000 C 
ENDBRANCH  31  32
ENDBRANCH  30  31
ENDBRANCH  23  25
ENDBRANCH  20  22
ENDBRANCH   1  20
TORSDOF 6
ENDMDL
MODEL 5
REMARK VINA RESULT:     -11.5      8.841     13.868
REMARK  Name = 25023705
REMARK  6 active torsions:
REMARK  status: ('A' for Active; 'I' for Inactive)
REMARK    1  A    between atoms: C_1  and  C_8
REMARK    2  A    between atoms: C_1  and  C_20
REMARK    3  A    between atoms: C_20  and  N_22
REMARK    4  A    between atoms: C_23  and  C_25
REMARK    5  A    between atoms: C_30  and  O_31
REMARK    6  A    between atoms: O_31  and  C_32
REMARK                            x       y       z     vdW  Elec       q    Type
REMARK                         _______ _______ _______ _____ _____    ______ ____
ROOT
ATOM      1  C   UNL     1      31.972 -11.726 -21.616  0.00  0.00    +0.066 C 
ATOM      2  C   UNL     1      30.465 -12.064 -21.732  0.00  0.00    +0.009 C 
ATOM      3  C   UNL     1      32.455 -12.335 -20.277  0.00  0.00    +0.009 C 
ENDROOT
BRANCH   1   8
ATOM      4  N   UNL     1      32.525  -9.702 -22.906  0.00  0.00    -0.347 NA
ATOM      5  N   UNL     1      33.066  -7.877 -24.225  0.00  0.00    -0.266 NA
ATOM      6  N   UNL     1      33.039  -5.636 -23.344  0.00  0.00    -0.316 NA
ATOM      7  N   UNL     1      33.617  -6.039 -25.577  0.00  0.00    -0.283 N 
ATOM      8  C   UNL     1      32.143 -10.197 -21.704  0.00  0.00    +0.122 C 
ATOM      9  C   UNL     1      31.908  -9.425 -20.587  0.00  0.00    +0.026 C 
ATOM     10  C   UNL     1      32.077  -8.057 -20.719  0.00  0.00    +0.001 C 
ATOM     11  C   UNL     1      32.689  -8.379 -23.042  0.00  0.00    +0.137 C 
ATOM     12  C   UNL     1      32.471  -7.526 -21.955  0.00  0.00    +0.199 C 
ATOM     13  C   UNL     1      32.661  -6.162 -22.166  0.00  0.00    +0.187 C 
ATOM     14  C   UNL     1      33.220  -6.540 -24.317  0.00  0.00    +0.207 C 
ATOM     15  H   UNL     1      33.766  -6.659 -26.327  0.00  0.00    +0.156 HD
ATOM     16  H   UNL     1      33.746  -5.071 -25.703  0.00  0.00    +0.156 HD
ATOM     17  N   UNL     1      32.452  -5.256 -21.097  0.00  0.00    -0.334 N 
ATOM     18  H   UNL     1      32.585  -4.290 -21.238  0.00  0.00    +0.144 HD
ATOM     19  H   UNL     1      32.175  -5.592 -20.214  0.00  0.00    +0.144 HD
ENDBRANCH   1   8
BRANCH   1  20
ATOM     20  C   UNL     1      32.719 -12.436 -22.780  0.00  0.00    +0.096 C 
BRANCH  20  22
ATOM     21  O   UNL     1      33.764 -14.443 -24.547  0.00  0.00    -0.270 OA
ATOM     22  N   UNL     1      33.349 -13.674 -22.398  0.00  0.00    -0.300 N 
ATOM     23  C   UNL     1      33.827 -14.588 -23.329  0.00  0.00    +0.246 C 
ATOM     24  H   UNL     1      33.446 -13.880 -21.440  0.00  0.00    +0.150 HD
BRANCH  23  25
ATOM     25  C   UNL     1      34.426 -15.829 -22.774  0.00  0.00    +0.054 C 
ATOM     26  C   UNL     1      34.677 -16.916 -23.610  0.00  0.00    +0.008 C 
ATOM     27  C   UNL     1      34.737 -15.905 -21.416  0.00  0.00    +0.008 C 
ATOM     28  C   UNL     1      35.239 -18.081 -23.088  0.00  0.00    +0.038 C 
ATOM     29  C   UNL     1      35.300 -17.071 -20.895  0.00  0.00    +0.038 C 
ATOM     30  C   UNL     1      35.550 -18.159 -21.731  0.00  0.00    +0.145 C 
BRANCH  30  31
ATOM     31  O   UNL     1      36.096 -19.296 -21.221  0.00  0.00    -0.453 OA
BRANCH  31  32
ATOM     32  C   UNL     1      35.259 -20.163 -20.539  0.00  0.00    +0.145 C 
ATOM     33  C   UNL     1      35.799 -21.153 -19.719  0.00  0.00    +0.037 C 
ATOM     34  C   UNL     1      33.875 -20.048 -20.675  0.00  0.00    +0.037 C 
ATOM     35  C   UNL     1      34.956 -22.028 -19.033  0.00  0.00    +0.003 C 
ATOM     36  C   UNL     1      33.032 -20.922 -19.988  0.00  0.00    +0.003 C 
ATOM     37  C   UNL     1      33.573 -21.912 -19.168  0.00  0.00    +0.000 C 
ENDBRANCH  31  32
ENDBRANCH  30  31
ENDBRANCH  23  25
ENDBRANCH  20  22
ENDBRANCH   1  20
TORSDOF 6
ENDMDL
MODEL 6
REMARK VINA RESULT:     -11.5      4.856      8.278
REMARK  Name = 25023705
REMARK  6 active torsions:
REMARK  status: ('A' for Active; 'I' for Inactive)
REMARK    1  A    between atoms: C_1  and  C_8
REMARK    2  A    between atoms: C_1  and  C_20
REMARK    3  A    between atoms: C_20  and  N_22
REMARK    4  A    between atoms: C_23  and  C_25
REMARK    5  A    between atoms: C_30  and  O_31
REMARK    6  A    between atoms: O_31  and  C_32
REMARK                            x       y       z     vdW  Elec       q    Type
REMARK                         _______ _______ _______ _____ _____    ______ ____
ROOT
ATOM      1  C   UNL     1      35.262 -19.376 -21.878  0.00  0.00    +0.066 C 
ATOM      2  C   UNL     1      33.774 -19.158 -22.243  0.00  0.00    +0.009 C 
ATOM      3  C   UNL     1      35.937 -19.984 -23.133  0.00  0.00    +0.009 C 
ENDROOT
BRANCH   1   8
ATOM      4  N   UNL     1      34.169 -20.815 -20.204  0.00  0.00    -0.347 NA
ATOM      5  N   UNL     1      33.026 -22.146 -18.693  0.00  0.00    -0.266 NA
ATOM      6  N   UNL     1      34.162 -23.255 -16.883  0.00  0.00    -0.316 NA
ATOM      7  N   UNL     1      31.850 -23.491 -17.171  0.00  0.00    -0.283 N 
ATOM      8  C   UNL     1      35.337 -20.278 -20.631  0.00  0.00    +0.122 C 
ATOM      9  C   UNL     1      36.556 -20.490 -20.022  0.00  0.00    +0.026 C 
ATOM     10  C   UNL     1      36.569 -21.308 -18.905  0.00  0.00    +0.001 C 
ATOM     11  C   UNL     1      34.173 -21.609 -19.124  0.00  0.00    +0.137 C 
ATOM     12  C   UNL     1      35.370 -21.874 -18.449  0.00  0.00    +0.199 C 
ATOM     13  C   UNL     1      35.302 -22.705 -17.333  0.00  0.00    +0.187 C 
ATOM     14  C   UNL     1      33.076 -22.938 -17.601  0.00  0.00    +0.207 C 
ATOM     15  H   UNL     1      31.021 -23.291 -17.661  0.00  0.00    +0.156 HD
ATOM     16  H   UNL     1      31.826 -24.077 -16.379  0.00  0.00    +0.156 HD
ATOM     17  N   UNL     1      36.486 -23.005 -16.615  0.00  0.00    -0.334 N 
ATOM     18  H   UNL     1      36.447 -23.591 -15.825  0.00  0.00    +0.144 HD
ATOM     19  H   UNL     1      37.347 -22.625 -16.905  0.00  0.00    +0.144 HD
ENDBRANCH   1   8
BRANCH   1  20
ATOM     20  C   UNL     1      35.902 -17.987 -21.598  0.00  0.00    +0.096 C 
BRANCH  20  22
ATOM     21  O   UNL     1      35.605 -15.672 -23.268  0.00  0.00    -0.270 OA
ATOM     22  N   UNL     1      34.942 -16.927 -21.434  0.00  0.00    -0.300 N 
ATOM     23  C   UNL     1      34.873 -15.840 -22.297  0.00  0.00    +0.246 C 
ATOM     24  H   UNL     1      34.309 -16.973 -20.680  0.00  0.00    +0.150 HD
BRANCH  23  25
ATOM     25  C   UNL     1      33.844 -14.817 -21.975  0.00  0.00    +0.054 C 
ATOM     26  C   UNL     1      33.295 -14.037 -22.992  0.00  0.00    +0.008 C 
ATOM     27  C   UNL     1      33.430 -14.638 -20.655  0.00  0.00    +0.008 C 
ATOM     28  C   UNL     1      32.331 -13.076 -22.689  0.00  0.00    +0.038 C 
ATOM     29  C   UNL     1      32.465 -13.677 -20.352  0.00  0.00    +0.038 C 
ATOM     30  C   UNL     1      31.916 -12.896 -21.369  0.00  0.00    +0.145 C 
BRANCH  30  31
ATOM     31  O   UNL     1      30.977 -11.957 -21.074  0.00  0.00    -0.453 OA
BRANCH  31  32
ATOM     32  C   UNL     1      31.418 -10.725 -20.619  0.00  0.00    +0.145 C 
ATOM     33  C   UNL     1      31.312 -10.402 -19.267  0.00  0.00    +0.037 C 
ATOM     34  C   UNL     1      31.967  -9.807 -21.515  0.00  0.00    +0.037 C 
ATOM     35  C   UNL     1      31.755  -9.161 -18.808  0.00  0.00    +0.003 C 
ATOM     36  C   UNL     1      32.410  -8.566 -21.057  0.00  0.00    +0.003 C 
ATOM     37  C   UNL     1      32.304  -8.243 -19.704  0.00  0.00    +0.000 C 
ENDBRANCH  31  32
ENDBRANCH  30  31
ENDBRANCH  23  25
ENDBRANCH  20  22
ENDBRANCH   1  20
TORSDOF 6
ENDMDL
MODEL 7
REMARK VINA RESULT:     -11.4      2.306      4.988
REMARK  Name = 25023705
REMARK  6 active torsions:
REMARK  status: ('A' for Active; 'I' for Inactive)
REMARK    1  A    between atoms: C_1  and  C_8
REMARK    2  A    between atoms: C_1  and  C_20
REMARK    3  A    between atoms: C_20  and  N_22
REMARK    4  A    between atoms: C_23  and  C_25
REMARK    5  A    between atoms: C_30  and  O_31
REMARK    6  A    between atoms: O_31  and  C_32
REMARK                            x       y       z     vdW  Elec       q    Type
REMARK                         _______ _______ _______ _____ _____    ______ ____
ROOT
ATOM      1  C   UNL     1      34.460 -23.721 -14.832  0.00  0.00    +0.066 C 
ATOM      2  C   UNL     1      35.242 -24.423 -13.696  0.00  0.00    +0.009 C 
ATOM      3  C   UNL     1      34.693 -22.201 -14.650  0.00  0.00    +0.009 C 
ENDROOT
BRANCH   1   8
ATOM      4  N   UNL     1      32.122 -23.504 -15.579  0.00  0.00    -0.347 NA
ATOM      5  N   UNL     1      29.966 -23.208 -16.368  0.00  0.00    -0.266 NA
ATOM      6  N   UNL     1      28.120 -24.486 -15.496  0.00  0.00    -0.316 NA
ATOM      7  N   UNL     1      27.786 -22.893 -17.180  0.00  0.00    -0.283 N 
ATOM      8  C   UNL     1      32.980 -24.141 -14.745  0.00  0.00    +0.122 C 
ATOM      9  C   UNL     1      32.605 -25.116 -13.846  0.00  0.00    +0.026 C 
ATOM     10  C   UNL     1      31.264 -25.456 -13.806  0.00  0.00    +0.001 C 
ATOM     11  C   UNL     1      30.823 -23.828 -15.548  0.00  0.00    +0.137 C 
ATOM     12  C   UNL     1      30.361 -24.809 -14.663  0.00  0.00    +0.199 C 
ATOM     13  C   UNL     1      28.998 -25.096 -14.682  0.00  0.00    +0.187 C 
ATOM     14  C   UNL     1      28.666 -23.564 -16.303  0.00  0.00    +0.207 C 
ATOM     15  H   UNL     1      28.133 -22.206 -17.794  0.00  0.00    +0.156 HD
ATOM     16  H   UNL     1      26.826 -23.112 -17.176  0.00  0.00    +0.156 HD
ATOM     17  N   UNL     1      28.482 -26.081 -13.805  0.00  0.00    -0.334 N 
ATOM     18  H   UNL     1      27.519 -26.290 -13.812  0.00  0.00    +0.144 HD
ATOM     19  H   UNL     1      29.084 -26.557 -13.188  0.00  0.00    +0.144 HD
ENDBRANCH   1   8
BRANCH   1  20
ATOM     20  C   UNL     1      35.081 -24.157 -16.189  0.00  0.00    +0.096 C 
BRANCH  20  22
ATOM     21  O   UNL     1      33.718 -23.688 -18.672  0.00  0.00    -0.270 OA
ATOM     22  N   UNL     1      35.309 -23.067 -17.102  0.00  0.00    -0.300 N 
ATOM     23  C   UNL     1      34.597 -22.922 -18.286  0.00  0.00    +0.246 C 
ATOM     24  H   UNL     1      35.997 -22.398 -16.878  0.00  0.00    +0.150 HD
BRANCH  23  25
ATOM     25  C   UNL     1      34.970 -21.758 -19.132  0.00  0.00    +0.054 C 
ATOM     26  C   UNL     1      36.310 -21.401 -19.274  0.00  0.00    +0.008 C 
ATOM     27  C   UNL     1      33.978 -21.024 -19.783  0.00  0.00    +0.008 C 
ATOM     28  C   UNL     1      36.660 -20.308 -20.067  0.00  0.00    +0.038 C 
ATOM     29  C   UNL     1      34.328 -19.931 -20.577  0.00  0.00    +0.038 C 
ATOM     30  C   UNL     1      35.669 -19.573 -20.718  0.00  0.00    +0.145 C 
BRANCH  30  31
ATOM     31  O   UNL     1      36.010 -18.506 -21.490  0.00  0.00    -0.453 OA
BRANCH  31  32
ATOM     32  C   UNL     1      35.243 -18.254 -22.616  0.00  0.00    +0.145 C 
ATOM     33  C   UNL     1      35.034 -16.942 -23.037  0.00  0.00    +0.037 C 
ATOM     34  C   UNL     1      34.679 -19.314 -23.327  0.00  0.00    +0.037 C 
ATOM     35  C   UNL     1      34.261 -16.688 -24.171  0.00  0.00    +0.003 C 
ATOM     36  C   UNL     1      33.906 -19.060 -24.460  0.00  0.00    +0.003 C 
ATOM     37  C   UNL     1      33.697 -17.748 -24.882  0.00  0.00    +0.000 C 
ENDBRANCH  31  32
ENDBRANCH  30  31
ENDBRANCH  23  25
ENDBRANCH  20  22
ENDBRANCH   1  20
TORSDOF 6
ENDMDL
MODEL 8
REMARK VINA RESULT:     -11.4      4.925     10.976
REMARK  Name = 25023705
REMARK  6 active torsions:
REMARK  status: ('A' for Active; 'I' for Inactive)
REMARK    1  A    between atoms: C_1  and  C_8
REMARK    2  A    between atoms: C_1  and  C_20
REMARK    3  A    between atoms: C_20  and  N_22
REMARK    4  A    between atoms: C_23  and  C_25
REMARK    5  A    between atoms: C_30  and  O_31
REMARK    6  A    between atoms: O_31  and  C_32
REMARK                            x       y       z     vdW  Elec       q    Type
REMARK                         _______ _______ _______ _____ _____    ______ ____
ROOT
ATOM      1  C   UNL     1      35.405 -19.315 -22.000  0.00  0.00    +0.066 C 
ATOM      2  C   UNL     1      36.837 -19.391 -21.416  0.00  0.00    +0.009 C 
ATOM      3  C   UNL     1      35.431 -20.113 -23.327  0.00  0.00    +0.009 C 
ENDROOT
BRANCH   1   8
ATOM      4  N   UNL     1      34.700 -17.433 -23.424  0.00  0.00    -0.347 NA
ATOM      5  N   UNL     1      34.037 -15.747 -24.867  0.00  0.00    -0.266 NA
ATOM      6  N   UNL     1      33.639 -13.506 -24.083  0.00  0.00    -0.316 NA
ATOM      7  N   UNL     1      33.366 -14.051 -26.344  0.00  0.00    -0.283 N 
ATOM      8  C   UNL     1      35.018 -17.833 -22.170  0.00  0.00    +0.122 C 
ATOM      9  C   UNL     1      35.015 -17.005 -21.068  0.00  0.00    +0.026 C 
ATOM     10  C   UNL     1      34.661 -15.683 -21.274  0.00  0.00    +0.001 C 
ATOM     11  C   UNL     1      34.355 -16.155 -23.632  0.00  0.00    +0.137 C 
ATOM     12  C   UNL     1      34.327 -15.250 -22.565  0.00  0.00    +0.199 C 
ATOM     13  C   UNL     1      33.961 -13.937 -22.852  0.00  0.00    +0.187 C 
ATOM     14  C   UNL     1      33.697 -14.452 -25.031  0.00  0.00    +0.207 C 
ATOM     15  H   UNL     1      33.393 -14.705 -27.079  0.00  0.00    +0.156 HD
ATOM     16  H   UNL     1      33.110 -13.117 -26.524  0.00  0.00    +0.156 HD
ATOM     17  N   UNL     1      33.917 -12.982 -21.806  0.00  0.00    -0.334 N 
ATOM     18  H   UNL     1      33.660 -12.051 -22.000  0.00  0.00    +0.144 HD
ATOM     19  H   UNL     1      34.145 -13.248 -20.887  0.00  0.00    +0.144 HD
ENDBRANCH   1   8
BRANCH   1  20
ATOM     20  C   UNL     1      34.440 -20.031 -21.013  0.00  0.00    +0.096 C 
BRANCH  20  22
ATOM     21  O   UNL     1      33.809 -22.429 -19.566  0.00  0.00    -0.270 OA
ATOM     22  N   UNL     1      35.081 -20.505 -19.813  0.00  0.00    -0.300 N 
ATOM     23  C   UNL     1      34.705 -21.683 -19.180  0.00  0.00    +0.246 C 
ATOM     24  H   UNL     1      35.813 -19.973 -19.426  0.00  0.00    +0.150 HD
BRANCH  23  25
ATOM     25  C   UNL     1      35.446 -22.019 -17.937  0.00  0.00    +0.054 C 
ATOM     26  C   UNL     1      34.849 -22.820 -16.964  0.00  0.00    +0.008 C 
ATOM     27  C   UNL     1      36.739 -21.532 -17.744  0.00  0.00    +0.008 C 
ATOM     28  C   UNL     1      35.544 -23.134 -15.797  0.00  0.00    +0.038 C 
ATOM     29  C   UNL     1      37.435 -21.847 -16.576  0.00  0.00    +0.038 C 
ATOM     30  C   UNL     1      36.837 -22.647 -15.603  0.00  0.00    +0.145 C 
BRANCH  30  31
ATOM     31  O   UNL     1      37.515 -22.952 -14.463  0.00  0.00    -0.453 OA
BRANCH  31  32
ATOM     32  C   UNL     1      37.423 -24.249 -13.987  0.00  0.00    +0.145 C 
ATOM     33  C   UNL     1      36.652 -24.524 -12.857  0.00  0.00    +0.037 C 
ATOM     34  C   UNL     1      38.104 -25.281 -14.635  0.00  0.00    +0.037 C 
ATOM     35  C   UNL     1      36.561 -25.830 -12.376  0.00  0.00    +0.003 C 
ATOM     36  C   UNL     1      38.012 -26.587 -14.154  0.00  0.00    +0.003 C 
ATOM     37  C   UNL     1      37.241 -26.861 -13.025  0.00  0.00    +0.000 C 
ENDBRANCH  31  32
ENDBRANCH  30  31
ENDBRANCH  23  25
ENDBRANCH  20  22
ENDBRANCH   1  20
TORSDOF 6
ENDMDL
MODEL 9
REMARK VINA RESULT:     -11.4      2.048      3.956
REMARK  Name = 25023705
REMARK  6 active torsions:
REMARK  status: ('A' for Active; 'I' for Inactive)
REMARK    1  A    between atoms: C_1  and  C_8
REMARK    2  A    between atoms: C_1  and  C_20
REMARK    3  A    between atoms: C_20  and  N_22
REMARK    4  A    between atoms: C_23  and  C_25
REMARK    5  A    between atoms: C_30  and  O_31
REMARK    6  A    between atoms: O_31  and  C_32
REMARK                            x       y       z     vdW  Elec       q    Type
REMARK                         _______ _______ _______ _____ _____    ______ ____
ROOT
ATOM      1  C   UNL     1      34.027 -22.789 -18.442  0.00  0.00    +0.066 C 
ATOM      2  C   UNL     1      32.741 -21.934 -18.555  0.00  0.00    +0.009 C 
ATOM      3  C   UNL     1      33.890 -23.924 -19.485  0.00  0.00    +0.009 C 
ENDROOT
BRANCH   1   8
ATOM      4  N   UNL     1      35.424 -23.436 -16.520  0.00  0.00    -0.347 NA
ATOM      5  N   UNL     1      36.845 -24.017 -14.786  0.00  0.00    -0.266 NA
ATOM      6  N   UNL     1      35.996 -24.762 -12.659  0.00  0.00    -0.316 NA
ATOM      7  N   UNL     1      38.301 -24.602 -13.040  0.00  0.00    -0.283 N 
ATOM      8  C   UNL     1      34.162 -23.288 -16.990  0.00  0.00    +0.122 C 
ATOM      9  C   UNL     1      33.026 -23.554 -16.258  0.00  0.00    +0.026 C 
ATOM     10  C   UNL     1      33.202 -24.000 -14.960  0.00  0.00    +0.001 C 
ATOM     11  C   UNL     1      35.604 -23.867 -15.263  0.00  0.00    +0.137 C 
ATOM     12  C   UNL     1      34.500 -24.160 -14.454  0.00  0.00    +0.199 C 
ATOM     13  C   UNL     1      34.759 -24.604 -13.159  0.00  0.00    +0.187 C 
ATOM     14  C   UNL     1      36.980 -24.453 -13.516  0.00  0.00    +0.207 C 
ATOM     15  H   UNL     1      39.062 -24.390 -13.628  0.00  0.00    +0.156 HD
ATOM     16  H   UNL     1      38.460 -24.917 -12.121  0.00  0.00    +0.156 HD
ATOM     17  N   UNL     1      33.676 -24.913 -12.300  0.00  0.00    -0.334 N 
ATOM     18  H   UNL     1      33.850 -25.228 -11.383  0.00  0.00    +0.144 HD
ATOM     19  H   UNL     1      32.750 -24.814 -12.619  0.00  0.00    +0.144 HD
ENDBRANCH   1   8
BRANCH   1  20
ATOM     20  C   UNL     1      35.238 -21.898 -18.838  0.00  0.00    +0.096 C 
BRANCH  20  22
ATOM     21  O   UNL     1      36.965 -19.834 -19.838  0.00  0.00    -0.270 OA
ATOM     22  N   UNL     1      34.981 -21.030 -19.959  0.00  0.00    -0.300 N 
ATOM     23  C   UNL     1      35.881 -20.056 -20.371  0.00  0.00    +0.246 C 
ATOM     24  H   UNL     1      34.135 -21.132 -20.452  0.00  0.00    +0.150 HD
BRANCH  23  25
ATOM     25  C   UNL     1      35.456 -19.225 -21.527  0.00  0.00    +0.054 C 
ATOM     26  C   UNL     1      35.792 -17.873 -21.575  0.00  0.00    +0.008 C 
ATOM     27  C   UNL     1      34.719 -19.799 -22.564  0.00  0.00    +0.008 C 
ATOM     28  C   UNL     1      35.392 -17.093 -22.661  0.00  0.00    +0.038 C 
ATOM     29  C   UNL     1      34.319 -19.019 -23.649  0.00  0.00    +0.038 C 
ATOM     30  C   UNL     1      34.655 -17.666 -23.697  0.00  0.00    +0.145 C 
BRANCH  30  31
ATOM     31  O   UNL     1      34.263 -16.905 -24.755  0.00  0.00    -0.453 OA
BRANCH  31  32
ATOM     32  C   UNL     1      33.999 -15.566 -24.522  0.00  0.00    +0.145 C 
ATOM     33  C   UNL     1      33.515 -14.761 -25.553  0.00  0.00    +0.037 C 
ATOM     34  C   UNL     1      34.218 -15.021 -23.256  0.00  0.00    +0.037 C 
ATOM     35  C   UNL     1      33.250 -13.411 -25.319  0.00  0.00    +0.003 C 
ATOM     36  C   UNL     1      33.953 -13.672 -23.022  0.00  0.00    +0.003 C 
ATOM     37  C   UNL     1      33.469 -12.867 -24.054  0.00  0.00    +0.000 C 
ENDBRANCH  31  32
ENDBRANCH  30  31
ENDBRANCH  23  25
ENDBRANCH  20  22
ENDBRANCH   1  20
TORSDOF 6
ENDMDL
