MODEL 1
REMARK VINA RESULT:     -13.0      0.000      0.000
REMARK  Name = 76958312
REMARK  3 active torsions:
REMARK  status: ('A' for Active; 'I' for Inactive)
REMARK    1  A    between atoms: C_16  and  C_21
REMARK    2  A    between atoms: C_26  and  N_28
REMARK    3  A    between atoms: N_29  and  C_34
REMARK                            x       y       z     vdW  Elec       q    Type
REMARK                         _______ _______ _______ _____ _____    ______ ____
ROOT
ATOM      1  O   UNL     1      31.572 -23.127 -12.613  0.00  0.00    -0.350 OA
ATOM      2  O   UNL     1      39.535 -25.178 -13.191  0.00  0.00    -0.350 OA
ATOM      3  N   UNL     1      32.530 -24.612 -14.824  0.00  0.00    -0.231 N 
ATOM      4  N   UNL     1      34.829 -24.640 -14.667  0.00  0.00    -0.246 NA
ATOM      5  N   UNL     1      33.710 -23.440 -16.418  0.00  0.00    -0.260 NA
ATOM      6  N   UNL     1      37.161 -24.613 -14.586  0.00  0.00    -0.228 N 
ATOM      7  N   UNL     1      36.106 -23.434 -16.301  0.00  0.00    -0.260 NA
ATOM      8  C   UNL     1      32.399 -25.257 -13.517  0.00  0.00    +0.114 C 
ATOM      9  C   UNL     1      31.322 -23.796 -14.964  0.00  0.00    +0.114 C 
ATOM     10  C   UNL     1      30.941 -25.746 -13.556  0.00  0.00    +0.025 C 
ATOM     11  C   UNL     1      30.229 -24.781 -14.513  0.00  0.00    +0.025 C 
ATOM     12  C   UNL     1      31.466 -22.637 -13.960  0.00  0.00    +0.163 C 
ATOM     13  C   UNL     1      32.577 -24.144 -12.467  0.00  0.00    +0.163 C 
ATOM     14  C   UNL     1      33.736 -24.216 -15.323  0.00  0.00    +0.224 C 
ATOM     15  C   UNL     1      35.978 -24.210 -15.213  0.00  0.00    +0.224 C 
ATOM     16  C   UNL     1      34.931 -23.087 -16.850  0.00  0.00    +0.163 C 
ATOM     17  C   UNL     1      38.456 -24.183 -15.123  0.00  0.00    +0.135 C 
ATOM     18  C   UNL     1      37.132 -24.849 -13.135  0.00  0.00    +0.135 C 
ATOM     19  C   UNL     1      38.303 -25.738 -12.736  0.00  0.00    +0.164 C 
ATOM     20  C   UNL     1      39.558 -25.108 -14.616  0.00  0.00    +0.164 C 
ENDROOT
BRANCH  16  21
ATOM     21  C   UNL     1      34.987 -22.253 -18.022  0.00  0.00    +0.087 C 
ATOM     22  C   UNL     1      36.209 -21.733 -18.450  0.00  0.00    +0.013 C 
ATOM     23  C   UNL     1      33.820 -21.966 -18.730  0.00  0.00    +0.013 C 
ATOM     24  C   UNL     1      36.263 -20.925 -19.586  0.00  0.00    +0.015 C 
ATOM     25  C   UNL     1      33.875 -21.158 -19.866  0.00  0.00    +0.015 C 
ATOM     26  C   UNL     1      35.096 -20.637 -20.293  0.00  0.00    +0.052 C 
BRANCH  26  28
ATOM     27  O   UNL     1      34.192 -17.820 -20.699  0.00  0.00    -0.252 OA
ATOM     28  N   UNL     1      35.150 -19.829 -21.429  0.00  0.00    -0.268 N 
ATOM     29  N   UNL     1      34.954 -18.057 -22.898  0.00  0.00    -0.268 N 
ATOM     30  C   UNL     1      34.711 -18.492 -21.585  0.00  0.00    +0.308 C 
ATOM     31  H   UNL     1      35.547 -20.244 -22.230  0.00  0.00    +0.156 HD
ATOM     32  H   UNL     1      35.378 -18.712 -23.498  0.00  0.00    +0.156 HD
BRANCH  29  34
ATOM     33  N   UNL     1      34.097 -14.293 -24.578  0.00  0.00    -0.242 NA
ATOM     34  C   UNL     1      34.666 -16.792 -23.463  0.00  0.00    +0.055 C 
ATOM     35  C   UNL     1      34.928 -15.631 -22.744  0.00  0.00    +0.035 C 
ATOM     36  C   UNL     1      34.120 -16.705 -24.739  0.00  0.00    +0.035 C 
ATOM     37  C   UNL     1      34.627 -14.417 -23.340  0.00  0.00    +0.100 C 
ATOM     38  C   UNL     1      33.857 -15.443 -25.246  0.00  0.00    +0.100 C 
ENDBRANCH  29  34
ENDBRANCH  26  28
ENDBRANCH  16  21
TORSDOF 3
ENDMDL
MODEL 2
REMARK VINA RESULT:     -12.3      1.133      4.585
REMARK  Name = 76958312
REMARK  3 active torsions:
REMARK  status: ('A' for Active; 'I' for Inactive)
REMARK    1  A    between atoms: C_16  and  C_21
REMARK    2  A    between atoms: C_26  and  N_28
REMARK    3  A    between atoms: N_29  and  C_34
REMARK                            x       y       z     vdW  Elec       q    Type
REMARK                         _______ _______ _______ _____ _____    ______ ____
ROOT
ATOM      1  O   UNL     1      37.891 -27.391 -14.190  0.00  0.00    -0.350 OA
ATOM      2  O   UNL     1      29.967 -25.292 -13.324  0.00  0.00    -0.350 OA
ATOM      3  N   UNL     1      37.142 -24.691 -13.787  0.00  0.00    -0.231 N 
ATOM      4  N   UNL     1      34.843 -24.605 -13.927  0.00  0.00    -0.246 NA
ATOM      5  N   UNL     1      36.236 -23.593 -15.599  0.00  0.00    -0.260 NA
ATOM      6  N   UNL     1      32.524 -24.470 -14.151  0.00  0.00    -0.228 N 
ATOM      7  N   UNL     1      33.847 -23.475 -15.795  0.00  0.00    -0.260 NA
ATOM      8  C   UNL     1      37.072 -25.639 -12.674  0.00  0.00    +0.114 C 
ATOM      9  C   UNL     1      38.399 -25.003 -14.469  0.00  0.00    +0.114 C 
ATOM     10  C   UNL     1      38.496 -25.546 -12.098  0.00  0.00    +0.025 C 
ATOM     11  C   UNL     1      39.372 -25.126 -13.284  0.00  0.00    +0.025 C 
ATOM     12  C   UNL     1      38.192 -26.368 -15.153  0.00  0.00    +0.163 C 
ATOM     13  C   UNL     1      36.823 -27.023 -13.301  0.00  0.00    +0.163 C 
ATOM     14  C   UNL     1      36.030 -24.280 -14.464  0.00  0.00    +0.224 C 
ATOM     15  C   UNL     1      33.796 -24.170 -14.647  0.00  0.00    +0.224 C 
ATOM     16  C   UNL     1      35.099 -23.224 -16.210  0.00  0.00    +0.163 C 
ATOM     17  C   UNL     1      31.331 -24.028 -14.882  0.00  0.00    +0.135 C 
ATOM     18  C   UNL     1      32.357 -25.702 -13.366  0.00  0.00    +0.135 C 
ATOM     19  C   UNL     1      31.099 -25.600 -12.512  0.00  0.00    +0.164 C 
ATOM     20  C   UNL     1      30.127 -24.018 -13.946  0.00  0.00    +0.164 C 
ENDROOT
BRANCH  16  21
ATOM     21  C   UNL     1      35.235 -22.482 -17.436  0.00  0.00    +0.087 C 
ATOM     22  C   UNL     1      36.465 -21.920 -17.779  0.00  0.00    +0.013 C 
ATOM     23  C   UNL     1      34.137 -22.325 -18.281  0.00  0.00    +0.013 C 
ATOM     24  C   UNL     1      36.596 -21.201 -18.968  0.00  0.00    +0.015 C 
ATOM     25  C   UNL     1      34.268 -21.606 -19.470  0.00  0.00    +0.015 C 
ATOM     26  C   UNL     1      35.498 -21.044 -19.812  0.00  0.00    +0.052 C 
BRANCH  26  28
ATOM     27  O   UNL     1      34.119 -18.556 -20.722  0.00  0.00    -0.252 OA
ATOM     28  N   UNL     1      35.629 -20.325 -21.001  0.00  0.00    -0.268 N 
ATOM     29  N   UNL     1      35.388 -18.754 -22.677  0.00  0.00    -0.268 N 
ATOM     30  C   UNL     1      34.956 -19.145 -21.400  0.00  0.00    +0.308 C 
ATOM     31  H   UNL     1      36.276 -20.688 -21.650  0.00  0.00    +0.156 HD
ATOM     32  H   UNL     1      36.067 -19.329 -23.098  0.00  0.00    +0.156 HD
BRANCH  29  34
ATOM     33  N   UNL     1      34.135 -15.425 -24.928  0.00  0.00    -0.242 NA
ATOM     34  C   UNL     1      34.967 -17.636 -23.434  0.00  0.00    +0.055 C 
ATOM     35  C   UNL     1      35.357 -16.354 -23.061  0.00  0.00    +0.035 C 
ATOM     36  C   UNL     1      34.162 -17.813 -24.553  0.00  0.00    +0.035 C 
ATOM     37  C   UNL     1      34.918 -15.292 -23.834  0.00  0.00    +0.100 C 
ATOM     38  C   UNL     1      33.777 -16.684 -25.260  0.00  0.00    +0.100 C 
ENDBRANCH  29  34
ENDBRANCH  26  28
ENDBRANCH  16  21
TORSDOF 3
ENDMDL
