MODEL 1
REMARK VINA RESULT:     -11.2      0.000      0.000
REMARK  Name = 6918852
REMARK  5 active torsions:
REMARK  status: ('A' for Active; 'I' for Inactive)
REMARK    1  A    between atoms: N_1  and  C_13
REMARK    2  A    between atoms: C_7  and  C_23
REMARK    3  A    between atoms: N_12  and  S_18
REMARK    4  A    between atoms: C_23  and  C_26
REMARK    5  A    between atoms: C_27  and  O_32
REMARK                            x       y       z     vdW  Elec       q    Type
REMARK                         _______ _______ _______ _____ _____    ______ ____
ROOT
ATOM      1  N   UNL     1      35.807 -18.182 -21.291  0.00  0.00    -0.270 N 
ATOM      2  N   UNL     1      34.129 -19.632 -20.523  0.00  0.00    -0.323 NA
ATOM      3  N   UNL     1      36.460 -20.139 -20.174  0.00  0.00    -0.170 NA
ATOM      4  N   UNL     1      32.452 -21.113 -19.737  0.00  0.00    -0.332 N 
ATOM      5  C   UNL     1      35.455 -19.352 -20.643  0.00  0.00    +0.146 C 
ATOM      6  C   UNL     1      33.822 -20.781 -19.886  0.00  0.00    +0.194 C 
ATOM      7  C   UNL     1      34.765 -21.649 -19.372  0.00  0.00    +0.103 C 
ATOM      8  C   UNL     1      36.081 -21.272 -19.547  0.00  0.00    +0.119 C 
ATOM      9  H   UNL     1      36.764 -17.969 -21.382  0.00  0.00    +0.159 HD
ATOM     10  H   UNL     1      31.759 -20.511 -20.095  0.00  0.00    +0.145 HD
ATOM     11  H   UNL     1      32.194 -21.943 -19.278  0.00  0.00    +0.145 HD
ENDROOT
BRANCH   1  13
ATOM     12  N   UNL     1      34.328 -14.665 -23.068  0.00  0.00    -0.159 NA
ATOM     13  C   UNL     1      34.843 -17.252 -21.841  0.00  0.00    +0.082 C 
ATOM     14  C   UNL     1      34.856 -15.953 -21.032  0.00  0.00    +0.039 C 
ATOM     15  C   UNL     1      35.177 -16.969 -23.308  0.00  0.00    +0.039 C 
ATOM     16  C   UNL     1      33.932 -14.907 -21.649  0.00  0.00    +0.097 C 
ATOM     17  C   UNL     1      34.249 -15.908 -23.892  0.00  0.00    +0.097 C 
BRANCH  12  18
ATOM     18  S   UNL     1      33.648 -13.267 -23.788  0.00  0.00    +0.046 S 
ATOM     19  O   UNL     1      33.161 -13.613 -25.104  0.00  0.00    -0.157 OA
ATOM     20  O   UNL     1      34.547 -12.154 -23.577  0.00  0.00    -0.157 OA
ATOM     21  C   UNL     1      32.247 -13.053 -22.723  0.00  0.00    +0.196 C 
ENDBRANCH  12  18
ENDBRANCH   1  13
BRANCH   7  23
ATOM     22  O   UNL     1      34.181 -23.913 -19.334  0.00  0.00    -0.286 OA
ATOM     23  C   UNL     1      34.436 -22.888 -18.685  0.00  0.00    +0.206 C 
BRANCH  23  26
ATOM     24  F   UNL     1      36.758 -22.798 -17.140  0.00  0.00    -0.202 F 
ATOM     25  F   UNL     1      36.702 -22.982 -14.423  0.00  0.00    -0.202 F 
ATOM     26  C   UNL     1      34.390 -22.990 -17.196  0.00  0.00    +0.103 C 
ATOM     27  C   UNL     1      33.175 -23.133 -16.566  0.00  0.00    +0.144 C 
ATOM     28  C   UNL     1      35.583 -22.937 -16.510  0.00  0.00    +0.173 C 
ATOM     29  C   UNL     1      33.151 -23.226 -15.174  0.00  0.00    +0.039 C 
ATOM     30  C   UNL     1      35.557 -23.031 -15.118  0.00  0.00    +0.168 C 
ATOM     31  C   UNL     1      34.342 -23.175 -14.451  0.00  0.00    +0.035 C 
BRANCH  27  32
ATOM     32  O   UNL     1      32.000 -23.183 -17.254  0.00  0.00    -0.471 OA
ATOM     33  C   UNL     1      30.799 -23.101 -16.492  0.00  0.00    +0.252 C 
ENDBRANCH  27  32
ENDBRANCH  23  26
ENDBRANCH   7  23
TORSDOF 5
ENDMDL
MODEL 2
REMARK VINA RESULT:     -11.1      1.532      2.188
REMARK  Name = 6918852
REMARK  5 active torsions:
REMARK  status: ('A' for Active; 'I' for Inactive)
REMARK    1  A    between atoms: N_1  and  C_13
REMARK    2  A    between atoms: C_7  and  C_23
REMARK    3  A    between atoms: N_12  and  S_18
REMARK    4  A    between atoms: C_23  and  C_26
REMARK    5  A    between atoms: C_27  and  O_32
REMARK                            x       y       z     vdW  Elec       q    Type
REMARK                         _______ _______ _______ _____ _____    ______ ____
ROOT
ATOM      1  N   UNL     1      35.813 -18.209 -21.171  0.00  0.00    -0.270 N 
ATOM      2  N   UNL     1      34.116 -19.680 -20.491  0.00  0.00    -0.323 NA
ATOM      3  N   UNL     1      36.433 -20.168 -20.039  0.00  0.00    -0.170 NA
ATOM      4  N   UNL     1      32.420 -21.182 -19.792  0.00  0.00    -0.332 N 
ATOM      5  C   UNL     1      35.443 -19.388 -20.548  0.00  0.00    +0.146 C 
ATOM      6  C   UNL     1      33.792 -20.837 -19.876  0.00  0.00    +0.194 C 
ATOM      7  C   UNL     1      34.718 -21.699 -19.326  0.00  0.00    +0.103 C 
ATOM      8  C   UNL     1      36.037 -21.309 -19.438  0.00  0.00    +0.119 C 
ATOM      9  H   UNL     1      36.770 -17.987 -21.217  0.00  0.00    +0.159 HD
ATOM     10  H   UNL     1      31.738 -20.585 -20.176  0.00  0.00    +0.145 HD
ATOM     11  H   UNL     1      32.148 -22.019 -19.350  0.00  0.00    +0.145 HD
ENDROOT
BRANCH   1  13
ATOM     12  N   UNL     1      34.385 -14.701 -23.007  0.00  0.00    -0.159 NA
ATOM     13  C   UNL     1      34.866 -17.285 -21.759  0.00  0.00    +0.082 C 
ATOM     14  C   UNL     1      34.841 -15.985 -20.951  0.00  0.00    +0.039 C 
ATOM     15  C   UNL     1      35.254 -17.000 -23.212  0.00  0.00    +0.039 C 
ATOM     16  C   UNL     1      33.937 -14.944 -21.604  0.00  0.00    +0.097 C 
ATOM     17  C   UNL     1      34.344 -15.944 -23.831  0.00  0.00    +0.097 C 
BRANCH  12  18
ATOM     18  S   UNL     1      33.726 -13.307 -23.753  0.00  0.00    +0.046 S 
ATOM     19  O   UNL     1      33.275 -13.660 -25.080  0.00  0.00    -0.157 OA
ATOM     20  O   UNL     1      34.620 -12.193 -23.524  0.00  0.00    -0.157 OA
ATOM     21  C   UNL     1      32.296 -13.085 -22.728  0.00  0.00    +0.196 C 
ENDBRANCH  12  18
ENDBRANCH   1  13
BRANCH   7  23
ATOM     22  O   UNL     1      34.214 -23.983 -19.325  0.00  0.00    -0.286 OA
ATOM     23  C   UNL     1      34.371 -22.947 -18.663  0.00  0.00    +0.206 C 
BRANCH  23  26
ATOM     24  F   UNL     1      31.838 -23.160 -17.509  0.00  0.00    -0.202 F 
ATOM     25  F   UNL     1      31.482 -23.339 -14.814  0.00  0.00    -0.202 F 
ATOM     26  C   UNL     1      34.190 -23.044 -17.184  0.00  0.00    +0.103 C 
ATOM     27  C   UNL     1      35.296 -23.028 -16.366  0.00  0.00    +0.144 C 
ATOM     28  C   UNL     1      32.906 -23.146 -16.697  0.00  0.00    +0.173 C 
ATOM     29  C   UNL     1      35.109 -23.120 -14.986  0.00  0.00    +0.039 C 
ATOM     30  C   UNL     1      32.720 -23.239 -15.317  0.00  0.00    +0.168 C 
ATOM     31  C   UNL     1      33.821 -23.225 -14.463  0.00  0.00    +0.035 C 
BRANCH  27  32
ATOM     32  O   UNL     1      36.563 -22.927 -16.857  0.00  0.00    -0.471 OA
ATOM     33  C   UNL     1      37.532 -22.295 -16.025  0.00  0.00    +0.252 C 
ENDBRANCH  27  32
ENDBRANCH  23  26
ENDBRANCH   7  23
TORSDOF 5
ENDMDL
MODEL 3
REMARK VINA RESULT:     -10.1      3.644      5.880
REMARK  Name = 6918852
REMARK  5 active torsions:
REMARK  status: ('A' for Active; 'I' for Inactive)
REMARK    1  A    between atoms: N_1  and  C_13
REMARK    2  A    between atoms: C_7  and  C_23
REMARK    3  A    between atoms: N_12  and  S_18
REMARK    4  A    between atoms: C_23  and  C_26
REMARK    5  A    between atoms: C_27  and  O_32
REMARK                            x       y       z     vdW  Elec       q    Type
REMARK                         _______ _______ _______ _____ _____    ______ ____
ROOT
ATOM      1  N   UNL     1      32.860 -22.842 -18.398  0.00  0.00    -0.270 N 
ATOM      2  N   UNL     1      34.653 -22.922 -16.886  0.00  0.00    -0.323 NA
ATOM      3  N   UNL     1      32.491 -23.809 -16.293  0.00  0.00    -0.170 NA
ATOM      4  N   UNL     1      36.448 -23.015 -15.340  0.00  0.00    -0.332 N 
ATOM      5  C   UNL     1      33.349 -23.202 -17.155  0.00  0.00    +0.146 C 
ATOM      6  C   UNL     1      35.096 -23.287 -15.664  0.00  0.00    +0.194 C 
ATOM      7  C   UNL     1      34.308 -23.909 -14.717  0.00  0.00    +0.103 C 
ATOM      8  C   UNL     1      33.001 -24.147 -15.091  0.00  0.00    +0.119 C 
ATOM      9  H   UNL     1      31.918 -23.041 -18.604  0.00  0.00    +0.159 HD
ATOM     10  H   UNL     1      37.032 -22.573 -15.998  0.00  0.00    +0.145 HD
ATOM     11  H   UNL     1      36.803 -23.268 -14.458  0.00  0.00    +0.145 HD
ENDROOT
BRANCH   1  13
ATOM     12  N   UNL     1      35.149 -19.832 -20.247  0.00  0.00    -0.159 NA
ATOM     13  C   UNL     1      33.659 -22.188 -19.413  0.00  0.00    +0.082 C 
ATOM     14  C   UNL     1      32.961 -20.908 -19.878  0.00  0.00    +0.039 C 
ATOM     15  C   UNL     1      35.046 -21.863 -18.850  0.00  0.00    +0.039 C 
ATOM     16  C   UNL     1      33.825 -20.133 -20.867  0.00  0.00    +0.097 C 
ATOM     17  C   UNL     1      35.879 -21.073 -19.855  0.00  0.00    +0.097 C 
BRANCH  12  18
ATOM     18  S   UNL     1      36.090 -18.658 -21.065  0.00  0.00    +0.046 S 
ATOM     19  O   UNL     1      37.489 -18.977 -20.886  0.00  0.00    -0.157 OA
ATOM     20  O   UNL     1      35.563 -17.346 -20.760  0.00  0.00    -0.157 OA
ATOM     21  C   UNL     1      35.646 -19.054 -22.736  0.00  0.00    +0.196 C 
ENDBRANCH  12  18
ENDBRANCH   1  13
BRANCH   7  23
ATOM     22  O   UNL     1      34.020 -24.265 -12.423  0.00  0.00    -0.286 OA
ATOM     23  C   UNL     1      34.783 -24.303 -13.400  0.00  0.00    +0.206 C 
BRANCH  23  26
ATOM     24  F   UNL     1      36.494 -22.948 -11.660  0.00  0.00    -0.202 F 
ATOM     25  F   UNL     1      39.050 -23.769 -11.204  0.00  0.00    -0.202 F 
ATOM     26  C   UNL     1      36.183 -24.764 -13.160  0.00  0.00    +0.103 C 
ATOM     27  C   UNL     1      36.645 -25.886 -13.810  0.00  0.00    +0.144 C 
ATOM     28  C   UNL     1      36.960 -24.038 -12.285  0.00  0.00    +0.173 C 
ATOM     29  C   UNL     1      37.956 -26.303 -13.574  0.00  0.00    +0.039 C 
ATOM     30  C   UNL     1      38.270 -24.457 -12.049  0.00  0.00    +0.168 C 
ATOM     31  C   UNL     1      38.767 -25.588 -12.693  0.00  0.00    +0.035 C 
BRANCH  27  32
ATOM     32  O   UNL     1      35.868 -26.598 -14.673  0.00  0.00    -0.471 OA
ATOM     33  C   UNL     1      36.536 -27.498 -15.555  0.00  0.00    +0.252 C 
ENDBRANCH  27  32
ENDBRANCH  23  26
ENDBRANCH   7  23
TORSDOF 5
ENDMDL
MODEL 4
REMARK VINA RESULT:     -10.0      3.785      5.937
REMARK  Name = 6918852
REMARK  5 active torsions:
REMARK  status: ('A' for Active; 'I' for Inactive)
REMARK    1  A    between atoms: N_1  and  C_13
REMARK    2  A    between atoms: C_7  and  C_23
REMARK    3  A    between atoms: N_12  and  S_18
REMARK    4  A    between atoms: C_23  and  C_26
REMARK    5  A    between atoms: C_27  and  O_32
REMARK                            x       y       z     vdW  Elec       q    Type
REMARK                         _______ _______ _______ _____ _____    ______ ____
ROOT
ATOM      1  N   UNL     1      32.749 -22.742 -18.404  0.00  0.00    -0.270 N 
ATOM      2  N   UNL     1      34.607 -22.907 -16.980  0.00  0.00    -0.323 NA
ATOM      3  N   UNL     1      32.444 -23.720 -16.294  0.00  0.00    -0.170 NA
ATOM      4  N   UNL     1      36.469 -23.086 -15.523  0.00  0.00    -0.332 N 
ATOM      5  C   UNL     1      33.282 -23.135 -17.190  0.00  0.00    +0.146 C 
ATOM      6  C   UNL     1      35.093 -23.303 -15.785  0.00  0.00    +0.194 C 
ATOM      7  C   UNL     1      34.328 -23.906 -14.808  0.00  0.00    +0.103 C 
ATOM      8  C   UNL     1      32.997 -24.092 -15.121  0.00  0.00    +0.119 C 
ATOM      9  H   UNL     1      31.792 -22.903 -18.567  0.00  0.00    +0.159 HD
ATOM     10  H   UNL     1      37.037 -22.657 -16.204  0.00  0.00    +0.145 HD
ATOM     11  H   UNL     1      36.856 -23.363 -14.662  0.00  0.00    +0.145 HD
ENDROOT
BRANCH   1  13
ATOM     12  N   UNL     1      35.005 -19.771 -20.353  0.00  0.00    -0.159 NA
ATOM     13  C   UNL     1      33.523 -22.106 -19.449  0.00  0.00    +0.082 C 
ATOM     14  C   UNL     1      32.821 -20.826 -19.909  0.00  0.00    +0.039 C 
ATOM     15  C   UNL     1      34.927 -21.785 -18.930  0.00  0.00    +0.039 C 
ATOM     16  C   UNL     1      33.662 -20.069 -20.932  0.00  0.00    +0.097 C 
ATOM     17  C   UNL     1      35.737 -21.013 -19.968  0.00  0.00    +0.097 C 
BRANCH  12  18
ATOM     18  S   UNL     1      35.930 -18.613 -21.212  0.00  0.00    +0.046 S 
ATOM     19  O   UNL     1      37.329 -18.963 -21.101  0.00  0.00    -0.157 OA
ATOM     20  O   UNL     1      35.447 -17.292 -20.878  0.00  0.00    -0.157 OA
ATOM     21  C   UNL     1      35.399 -18.993 -22.861  0.00  0.00    +0.196 C 
ENDBRANCH  12  18
ENDBRANCH   1  13
BRANCH   7  23
ATOM     22  O   UNL     1      34.162 -24.213 -12.495  0.00  0.00    -0.286 OA
ATOM     23  C   UNL     1      34.850 -24.334 -13.519  0.00  0.00    +0.206 C 
BRANCH  23  26
ATOM     24  F   UNL     1      35.577 -26.687 -14.832  0.00  0.00    -0.202 F 
ATOM     25  F   UNL     1      38.052 -27.793 -14.566  0.00  0.00    -0.202 F 
ATOM     26  C   UNL     1      36.211 -24.929 -13.364  0.00  0.00    +0.103 C 
ATOM     27  C   UNL     1      37.133 -24.305 -12.555  0.00  0.00    +0.144 C 
ATOM     28  C   UNL     1      36.487 -26.092 -14.047  0.00  0.00    +0.173 C 
ATOM     29  C   UNL     1      38.400 -24.875 -12.422  0.00  0.00    +0.039 C 
ATOM     30  C   UNL     1      37.754 -26.661 -13.914  0.00  0.00    +0.168 C 
ATOM     31  C   UNL     1      38.710 -26.052 -13.102  0.00  0.00    +0.035 C 
BRANCH  27  32
ATOM     32  O   UNL     1      36.850 -23.154 -11.883  0.00  0.00    -0.471 OA
ATOM     33  C   UNL     1      36.772 -23.235 -10.462  0.00  0.00    +0.252 C 
ENDBRANCH  27  32
ENDBRANCH  23  26
ENDBRANCH   7  23
TORSDOF 5
ENDMDL
MODEL 5
REMARK VINA RESULT:      -9.8      4.295      9.423
REMARK  Name = 6918852
REMARK  5 active torsions:
REMARK  status: ('A' for Active; 'I' for Inactive)
REMARK    1  A    between atoms: N_1  and  C_13
REMARK    2  A    between atoms: C_7  and  C_23
REMARK    3  A    between atoms: N_12  and  S_18
REMARK    4  A    between atoms: C_23  and  C_26
REMARK    5  A    between atoms: C_27  and  O_32
REMARK                            x       y       z     vdW  Elec       q    Type
REMARK                         _______ _______ _______ _____ _____    ______ ____
ROOT
ATOM      1  N   UNL     1      32.791 -22.316 -18.689  0.00  0.00    -0.270 N 
ATOM      2  N   UNL     1      34.849 -21.384 -19.324  0.00  0.00    -0.323 NA
ATOM      3  N   UNL     1      32.796 -20.688 -20.378  0.00  0.00    -0.170 NA
ATOM      4  N   UNL     1      36.916 -20.426 -19.983  0.00  0.00    -0.332 N 
ATOM      5  C   UNL     1      33.500 -21.436 -19.488  0.00  0.00    +0.146 C 
ATOM      6  C   UNL     1      35.508 -20.514 -20.120  0.00  0.00    +0.194 C 
ATOM      7  C   UNL     1      34.889 -19.710 -21.054  0.00  0.00    +0.103 C 
ATOM      8  C   UNL     1      33.518 -19.840 -21.140  0.00  0.00    +0.119 C 
ATOM      9  H   UNL     1      31.814 -22.360 -18.798  0.00  0.00    +0.159 HD
ATOM     10  H   UNL     1      37.382 -20.989 -19.324  0.00  0.00    +0.145 HD
ATOM     11  H   UNL     1      37.427 -19.803 -20.548  0.00  0.00    +0.145 HD
ENDROOT
BRANCH   1  13
ATOM     12  N   UNL     1      34.382 -23.509 -14.980  0.00  0.00    -0.159 NA
ATOM     13  C   UNL     1      33.410 -23.174 -17.701  0.00  0.00    +0.082 C 
ATOM     14  C   UNL     1      34.727 -22.553 -17.227  0.00  0.00    +0.039 C 
ATOM     15  C   UNL     1      32.459 -23.372 -16.518  0.00  0.00    +0.039 C 
ATOM     16  C   UNL     1      35.354 -23.375 -16.105  0.00  0.00    +0.097 C 
ATOM     17  C   UNL     1      33.120 -24.181 -15.407  0.00  0.00    +0.097 C 
BRANCH  12  18
ATOM     18  S   UNL     1      35.047 -24.070 -13.504  0.00  0.00    +0.046 S 
ATOM     19  O   UNL     1      33.965 -24.354 -12.587  0.00  0.00    -0.157 OA
ATOM     20  O   UNL     1      36.151 -23.211 -13.137  0.00  0.00    -0.157 OA
ATOM     21  C   UNL     1      35.713 -25.615 -14.062  0.00  0.00    +0.196 C 
ENDBRANCH  12  18
ENDBRANCH   1  13
BRANCH   7  23
ATOM     22  O   UNL     1      36.693 -19.081 -22.404  0.00  0.00    -0.286 OA
ATOM     23  C   UNL     1      35.598 -18.772 -21.912  0.00  0.00    +0.206 C 
BRANCH  23  26
ATOM     24  F   UNL     1      35.410 -16.761 -19.986  0.00  0.00    -0.202 F 
ATOM     25  F   UNL     1      34.424 -14.288 -20.560  0.00  0.00    -0.202 F 
ATOM     26  C   UNL     1      35.055 -17.421 -22.241  0.00  0.00    +0.103 C 
ATOM     27  C   UNL     1      34.635 -17.155 -23.525  0.00  0.00    +0.144 C 
ATOM     28  C   UNL     1      34.997 -16.486 -21.231  0.00  0.00    +0.173 C 
ATOM     29  C   UNL     1      34.131 -15.887 -23.815  0.00  0.00    +0.039 C 
ATOM     30  C   UNL     1      34.493 -15.218 -21.522  0.00  0.00    +0.168 C 
ATOM     31  C   UNL     1      34.060 -14.919 -22.813  0.00  0.00    +0.035 C 
BRANCH  27  32
ATOM     32  O   UNL     1      34.697 -18.087 -24.517  0.00  0.00    -0.471 OA
ATOM     33  C   UNL     1      33.565 -18.937 -24.679  0.00  0.00    +0.252 C 
ENDBRANCH  27  32
ENDBRANCH  23  26
ENDBRANCH   7  23
TORSDOF 5
ENDMDL
MODEL 6
REMARK VINA RESULT:      -9.8      6.757     12.125
REMARK  Name = 6918852
REMARK  5 active torsions:
REMARK  status: ('A' for Active; 'I' for Inactive)
REMARK    1  A    between atoms: N_1  and  C_13
REMARK    2  A    between atoms: C_7  and  C_23
REMARK    3  A    between atoms: N_12  and  S_18
REMARK    4  A    between atoms: C_23  and  C_26
REMARK    5  A    between atoms: C_27  and  O_32
REMARK                            x       y       z     vdW  Elec       q    Type
REMARK                         _______ _______ _______ _____ _____    ______ ____
ROOT
ATOM      1  N   UNL     1      34.592 -13.665 -23.381  0.00  0.00    -0.270 N 
ATOM      2  N   UNL     1      32.600 -12.791 -22.500  0.00  0.00    -0.323 NA
ATOM      3  N   UNL     1      34.171 -11.374 -23.656  0.00  0.00    -0.170 NA
ATOM      4  N   UNL     1      30.595 -11.883 -21.619  0.00  0.00    -0.332 N 
ATOM      5  C   UNL     1      33.763 -12.578 -23.173  0.00  0.00    +0.146 C 
ATOM      6  C   UNL     1      31.816 -11.708 -22.315  0.00  0.00    +0.194 C 
ATOM      7  C   UNL     1      32.137 -10.443 -22.766  0.00  0.00    +0.103 C 
ATOM      8  C   UNL     1      33.338 -10.335 -23.437  0.00  0.00    +0.119 C 
ATOM      9  H   UNL     1      35.435 -13.522 -23.868  0.00  0.00    +0.159 HD
ATOM     10  H   UNL     1      30.342 -12.775 -21.287  0.00  0.00    +0.145 HD
ATOM     11  H   UNL     1      29.999 -11.115 -21.468  0.00  0.00    +0.145 HD
ENDROOT
BRANCH   1  13
ATOM     12  N   UNL     1      35.262 -17.613 -22.085  0.00  0.00    -0.159 NA
ATOM     13  C   UNL     1      34.285 -15.003 -22.920  0.00  0.00    +0.082 C 
ATOM     14  C   UNL     1      34.816 -16.031 -23.923  0.00  0.00    +0.039 C 
ATOM     15  C   UNL     1      34.912 -15.232 -21.542  0.00  0.00    +0.039 C 
ATOM     16  C   UNL     1      34.609 -17.455 -23.418  0.00  0.00    +0.097 C 
ATOM     17  C   UNL     1      34.704 -16.669 -21.072  0.00  0.00    +0.097 C 
BRANCH  12  18
ATOM     18  S   UNL     1      35.451 -19.230 -21.551  0.00  0.00    +0.046 S 
ATOM     19  O   UNL     1      35.426 -20.104 -22.702  0.00  0.00    -0.157 OA
ATOM     20  O   UNL     1      34.588 -19.446 -20.411  0.00  0.00    -0.157 OA
ATOM     21  C   UNL     1      37.123 -19.141 -20.966  0.00  0.00    +0.196 C 
ENDBRANCH  12  18
ENDBRANCH   1  13
BRANCH   7  23
ATOM     22  O   UNL     1      30.099  -9.303 -22.899  0.00  0.00    -0.286 OA
ATOM     23  C   UNL     1      31.293  -9.275 -22.568  0.00  0.00    +0.206 C 
BRANCH  23  26
ATOM     24  F   UNL     1      31.283  -6.872 -23.988  0.00  0.00    -0.202 F 
ATOM     25  F   UNL     1      32.217  -4.549 -22.917  0.00  0.00    -0.202 F 
ATOM     26  C   UNL     1      31.809  -8.008 -21.968  0.00  0.00    +0.103 C 
ATOM     27  C   UNL     1      32.302  -8.021 -20.683  0.00  0.00    +0.144 C 
ATOM     28  C   UNL     1      31.767  -6.867 -22.738  0.00  0.00    +0.173 C 
ATOM     29  C   UNL     1      32.779  -6.828 -20.138  0.00  0.00    +0.039 C 
ATOM     30  C   UNL     1      32.244  -5.675 -22.192  0.00  0.00    +0.168 C 
ATOM     31  C   UNL     1      32.750  -5.656 -20.893  0.00  0.00    +0.035 C 
BRANCH  27  32
ATOM     32  O   UNL     1      32.338  -9.155 -19.929  0.00  0.00    -0.471 OA
ATOM     33  C   UNL     1      31.440  -9.228 -18.825  0.00  0.00    +0.252 C 
ENDBRANCH  27  32
ENDBRANCH  23  26
ENDBRANCH   7  23
TORSDOF 5
ENDMDL
MODEL 7
REMARK VINA RESULT:      -9.6      6.108     12.130
REMARK  Name = 6918852
REMARK  5 active torsions:
REMARK  status: ('A' for Active; 'I' for Inactive)
REMARK    1  A    between atoms: N_1  and  C_13
REMARK    2  A    between atoms: C_7  and  C_23
REMARK    3  A    between atoms: N_12  and  S_18
REMARK    4  A    between atoms: C_23  and  C_26
REMARK    5  A    between atoms: C_27  and  O_32
REMARK                            x       y       z     vdW  Elec       q    Type
REMARK                         _______ _______ _______ _____ _____    ______ ____
ROOT
ATOM      1  N   UNL     1      34.601 -13.663 -23.356  0.00  0.00    -0.270 N 
ATOM      2  N   UNL     1      32.603 -12.791 -22.486  0.00  0.00    -0.323 NA
ATOM      3  N   UNL     1      34.177 -11.373 -23.636  0.00  0.00    -0.170 NA
ATOM      4  N   UNL     1      30.591 -11.887 -21.618  0.00  0.00    -0.332 N 
ATOM      5  C   UNL     1      33.769 -12.577 -23.153  0.00  0.00    +0.146 C 
ATOM      6  C   UNL     1      31.816 -11.710 -22.307  0.00  0.00    +0.194 C 
ATOM      7  C   UNL     1      32.137 -10.445 -22.757  0.00  0.00    +0.103 C 
ATOM      8  C   UNL     1      33.342 -10.335 -23.422  0.00  0.00    +0.119 C 
ATOM      9  H   UNL     1      35.447 -13.519 -23.838  0.00  0.00    +0.159 HD
ATOM     10  H   UNL     1      30.338 -12.779 -21.286  0.00  0.00    +0.145 HD
ATOM     11  H   UNL     1      29.994 -11.120 -21.470  0.00  0.00    +0.145 HD
ENDROOT
BRANCH   1  13
ATOM     12  N   UNL     1      35.272 -17.608 -22.053  0.00  0.00    -0.159 NA
ATOM     13  C   UNL     1      34.295 -15.001 -22.896  0.00  0.00    +0.082 C 
ATOM     14  C   UNL     1      34.832 -16.028 -23.895  0.00  0.00    +0.039 C 
ATOM     15  C   UNL     1      34.915 -15.228 -21.514  0.00  0.00    +0.039 C 
ATOM     16  C   UNL     1      34.626 -17.453 -23.390  0.00  0.00    +0.097 C 
ATOM     17  C   UNL     1      34.708 -16.665 -21.044  0.00  0.00    +0.097 C 
BRANCH  12  18
ATOM     18  S   UNL     1      35.462 -19.224 -21.517  0.00  0.00    +0.046 S 
ATOM     19  O   UNL     1      35.446 -20.099 -22.668  0.00  0.00    -0.157 OA
ATOM     20  O   UNL     1      34.593 -19.442 -20.382  0.00  0.00    -0.157 OA
ATOM     21  C   UNL     1      37.131 -19.131 -20.922  0.00  0.00    +0.196 C 
ENDBRANCH  12  18
ENDBRANCH   1  13
BRANCH   7  23
ATOM     22  O   UNL     1      30.085  -9.326 -22.854  0.00  0.00    -0.286 OA
ATOM     23  C   UNL     1      31.290  -9.278 -22.565  0.00  0.00    +0.206 C 
BRANCH  23  26
ATOM     24  F   UNL     1      32.203  -9.064 -19.936  0.00  0.00    -0.202 F 
ATOM     25  F   UNL     1      33.163  -6.727 -18.919  0.00  0.00    -0.202 F 
ATOM     26  C   UNL     1      31.814  -7.990 -22.020  0.00  0.00    +0.103 C 
ATOM     27  C   UNL     1      31.848  -6.878 -22.830  0.00  0.00    +0.144 C 
ATOM     28  C   UNL     1      32.244  -7.971 -20.712  0.00  0.00    +0.173 C 
ATOM     29  C   UNL     1      32.341  -5.683 -22.305  0.00  0.00    +0.039 C 
ATOM     30  C   UNL     1      32.737  -6.776 -20.188  0.00  0.00    +0.168 C 
ATOM     31  C   UNL     1      32.785  -5.632 -20.984  0.00  0.00    +0.035 C 
BRANCH  27  32
ATOM     32  O   UNL     1      31.421  -6.907 -24.124  0.00  0.00    -0.471 OA
ATOM     33  C   UNL     1      32.422  -6.938 -25.137  0.00  0.00    +0.252 C 
ENDBRANCH  27  32
ENDBRANCH  23  26
ENDBRANCH   7  23
TORSDOF 5
ENDMDL
MODEL 8
REMARK VINA RESULT:      -9.2      4.580      9.637
REMARK  Name = 6918852
REMARK  5 active torsions:
REMARK  status: ('A' for Active; 'I' for Inactive)
REMARK    1  A    between atoms: N_1  and  C_13
REMARK    2  A    between atoms: C_7  and  C_23
REMARK    3  A    between atoms: N_12  and  S_18
REMARK    4  A    between atoms: C_23  and  C_26
REMARK    5  A    between atoms: C_27  and  O_32
REMARK                            x       y       z     vdW  Elec       q    Type
REMARK                         _______ _______ _______ _____ _____    ______ ____
ROOT
ATOM      1  N   UNL     1      32.623 -22.684 -18.134  0.00  0.00    -0.270 N 
ATOM      2  N   UNL     1      34.757 -21.855 -18.647  0.00  0.00    -0.323 NA
ATOM      3  N   UNL     1      32.807 -21.077 -19.832  0.00  0.00    -0.170 NA
ATOM      4  N   UNL     1      36.902 -21.000 -19.184  0.00  0.00    -0.332 N 
ATOM      5  C   UNL     1      33.419 -21.847 -18.894  0.00  0.00    +0.146 C 
ATOM      6  C   UNL     1      35.503 -21.025 -19.407  0.00  0.00    +0.194 C 
ATOM      7  C   UNL     1      34.981 -20.203 -20.385  0.00  0.00    +0.103 C 
ATOM      8  C   UNL     1      33.613 -20.272 -20.555  0.00  0.00    +0.119 C 
ATOM      9  H   UNL     1      31.653 -22.685 -18.303  0.00  0.00    +0.159 HD
ATOM     10  H   UNL     1      37.301 -21.577 -18.492  0.00  0.00    +0.145 HD
ATOM     11  H   UNL     1      37.476 -20.407 -19.720  0.00  0.00    +0.145 HD
ENDROOT
BRANCH   1  13
ATOM     12  N   UNL     1      34.271 -23.838 -14.437  0.00  0.00    -0.159 NA
ATOM     13  C   UNL     1      33.139 -23.559 -17.102  0.00  0.00    +0.082 C 
ATOM     14  C   UNL     1      34.594 -23.198 -16.796  0.00  0.00    +0.039 C 
ATOM     15  C   UNL     1      32.283 -23.433 -15.839  0.00  0.00    +0.039 C 
ATOM     16  C   UNL     1      35.139 -24.026 -15.637  0.00  0.00    +0.097 C 
ATOM     17  C   UNL     1      32.862 -24.257 -14.694  0.00  0.00    +0.097 C 
BRANCH  12  18
ATOM     18  S   UNL     1      34.940 -24.387 -12.958  0.00  0.00    +0.046 S 
ATOM     19  O   UNL     1      33.873 -24.909 -12.133  0.00  0.00    -0.157 OA
ATOM     20  O   UNL     1      35.864 -23.389 -12.468  0.00  0.00    -0.157 OA
ATOM     21  C   UNL     1      35.883 -25.760 -13.567  0.00  0.00    +0.196 C 
ENDBRANCH  12  18
ENDBRANCH   1  13
BRANCH   7  23
ATOM     22  O   UNL     1      37.019 -19.295 -21.089  0.00  0.00    -0.286 OA
ATOM     23  C   UNL     1      35.784 -19.309 -21.204  0.00  0.00    +0.206 C 
BRANCH  23  26
ATOM     24  F   UNL     1      34.994 -20.198 -23.730  0.00  0.00    -0.202 F 
ATOM     25  F   UNL     1      33.888 -18.529 -25.575  0.00  0.00    -0.202 F 
ATOM     26  C   UNL     1      35.179 -18.383 -22.207  0.00  0.00    +0.103 C 
ATOM     27  C   UNL     1      35.004 -17.057 -21.882  0.00  0.00    +0.144 C 
ATOM     28  C   UNL     1      34.817 -18.903 -23.430  0.00  0.00    +0.173 C 
ATOM     29  C   UNL     1      34.437 -16.205 -22.831  0.00  0.00    +0.039 C 
ATOM     30  C   UNL     1      34.250 -18.051 -24.377  0.00  0.00    +0.168 C 
ATOM     31  C   UNL     1      34.060 -16.703 -24.078  0.00  0.00    +0.035 C 
BRANCH  27  32
ATOM     32  O   UNL     1      35.365 -16.551 -20.670  0.00  0.00    -0.471 OA
ATOM     33  C   UNL     1      34.586 -15.471 -20.160  0.00  0.00    +0.252 C 
ENDBRANCH  27  32
ENDBRANCH  23  26
ENDBRANCH   7  23
TORSDOF 5
ENDMDL
MODEL 9
REMARK VINA RESULT:      -9.1      7.058     13.163
REMARK  Name = 6918852
REMARK  5 active torsions:
REMARK  status: ('A' for Active; 'I' for Inactive)
REMARK    1  A    between atoms: N_1  and  C_13
REMARK    2  A    between atoms: C_7  and  C_23
REMARK    3  A    between atoms: N_12  and  S_18
REMARK    4  A    between atoms: C_23  and  C_26
REMARK    5  A    between atoms: C_27  and  O_32
REMARK                            x       y       z     vdW  Elec       q    Type
REMARK                         _______ _______ _______ _____ _____    ______ ____
ROOT
ATOM      1  N   UNL     1      32.891 -13.132 -22.743  0.00  0.00    -0.270 N 
ATOM      2  N   UNL     1      34.394 -11.436 -23.353  0.00  0.00    -0.323 NA
ATOM      3  N   UNL     1      32.065 -10.949 -22.969  0.00  0.00    -0.170 NA
ATOM      4  N   UNL     1      35.892  -9.705 -23.968  0.00  0.00    -0.332 N 
ATOM      5  C   UNL     1      33.123 -11.799 -23.030  0.00  0.00    +0.146 C 
ATOM      6  C   UNL     1      34.584 -10.128 -23.627  0.00  0.00    +0.194 C 
ATOM      7  C   UNL     1      33.578  -9.184 -23.593  0.00  0.00    +0.103 C 
ATOM      8  C   UNL     1      32.326  -9.656 -23.254  0.00  0.00    +0.119 C 
ATOM      9  H   UNL     1      31.976 -13.405 -22.507  0.00  0.00    +0.159 HD
ATOM     10  H   UNL     1      36.628 -10.358 -24.000  0.00  0.00    +0.145 HD
ATOM     11  H   UNL     1      36.065  -8.758 -24.173  0.00  0.00    +0.145 HD
ENDROOT
BRANCH   1  13
ATOM     12  N   UNL     1      34.626 -16.963 -22.563  0.00  0.00    -0.159 NA
ATOM     13  C   UNL     1      33.923 -14.147 -22.772  0.00  0.00    +0.082 C 
ATOM     14  C   UNL     1      33.972 -14.874 -21.426  0.00  0.00    +0.039 C 
ATOM     15  C   UNL     1      33.641 -15.140 -23.903  0.00  0.00    +0.039 C 
ATOM     16  C   UNL     1      34.973 -16.025 -21.454  0.00  0.00    +0.097 C 
ATOM     17  C   UNL     1      34.647 -16.288 -23.894  0.00  0.00    +0.097 C 
BRANCH  12  18
ATOM     18  S   UNL     1      35.408 -18.486 -22.503  0.00  0.00    +0.046 S 
ATOM     19  O   UNL     1      36.801 -18.280 -22.178  0.00  0.00    -0.157 OA
ATOM     20  O   UNL     1      35.000 -19.261 -23.654  0.00  0.00    -0.157 OA
ATOM     21  C   UNL     1      34.605 -19.160 -21.073  0.00  0.00    +0.196 C 
ENDBRANCH  12  18
ENDBRANCH   1  13
BRANCH   7  23
ATOM     22  O   UNL     1      34.674  -7.422 -24.672  0.00  0.00    -0.286 OA
ATOM     23  C   UNL     1      33.781  -7.774 -23.887  0.00  0.00    +0.206 C 
BRANCH  23  26
ATOM     24  F   UNL     1      32.231  -6.058 -25.451  0.00  0.00    -0.202 F 
ATOM     25  F   UNL     1      30.694  -4.092 -24.361  0.00  0.00    -0.202 F 
ATOM     26  C   UNL     1      32.942  -6.700 -23.276  0.00  0.00    +0.103 C 
ATOM     27  C   UNL     1      32.931  -6.548 -21.908  0.00  0.00    +0.144 C 
ATOM     28  C   UNL     1      32.208  -5.897 -24.120  0.00  0.00    +0.173 C 
ATOM     29  C   UNL     1      32.142  -5.540 -21.354  0.00  0.00    +0.039 C 
ATOM     30  C   UNL     1      31.419  -4.889 -23.565  0.00  0.00    +0.168 C 
ATOM     31  C   UNL     1      31.386  -4.710 -22.183  0.00  0.00    +0.035 C 
BRANCH  27  32
ATOM     32  O   UNL     1      33.661  -7.348 -21.082  0.00  0.00    -0.471 OA
ATOM     33  C   UNL     1      33.001  -7.859 -19.926  0.00  0.00    +0.252 C 
ENDBRANCH  27  32
ENDBRANCH  23  26
ENDBRANCH   7  23
TORSDOF 5
ENDMDL
