MODEL 1
REMARK VINA RESULT:     -11.6      0.000      0.000
REMARK  Name = 446277
REMARK  7 active torsions:
REMARK  status: ('A' for Active; 'I' for Inactive)
REMARK    1  A    between atoms: N_2  and  C_17
REMARK    2  A    between atoms: C_3  and  C_5
REMARK    3  A    between atoms: C_8  and  S_11
REMARK    4  A    between atoms: S_11  and  N_14
REMARK    5  A    between atoms: C_17  and  C_18
REMARK    6  A    between atoms: C_18  and  C_20
REMARK    7  A    between atoms: C_20  and  N_21
REMARK                            x       y       z     vdW  Elec       q    Type
REMARK                         _______ _______ _______ _____ _____    ______ ____
ROOT
ATOM      1  O   UNL     1      37.101 -18.661 -21.638  0.00  0.00    -0.270 OA
ATOM      2  N   UNL     1      34.958 -17.972 -22.203  0.00  0.00    -0.301 N 
ATOM      3  C   UNL     1      35.881 -18.780 -21.550  0.00  0.00    +0.246 C 
ATOM      4  H   UNL     1      33.999 -18.146 -22.069  0.00  0.00    +0.150 HD
ENDROOT
BRANCH   3   5
ATOM      5  C   UNL     1      35.318 -19.872 -20.713  0.00  0.00    +0.053 C 
ATOM      6  C   UNL     1      33.951 -20.047 -20.677  0.00  0.00    +0.006 C 
ATOM      7  C   UNL     1      36.183 -20.676 -19.999  0.00  0.00    +0.006 C 
ATOM      8  C   UNL     1      34.276 -21.898 -19.160  0.00  0.00    +0.122 C 
ATOM      9  C   UNL     1      33.423 -21.072 -19.891  0.00  0.00    +0.020 C 
ATOM     10  C   UNL     1      35.655 -21.700 -19.213  0.00  0.00    +0.020 C 
BRANCH   8  11
ATOM     11  S   UNL     1      33.615 -23.182 -18.177  0.00  0.00    +0.057 S 
ATOM     12  O   UNL     1      32.310 -22.760 -17.688  0.00  0.00    -0.153 OA
ATOM     13  O   UNL     1      33.744 -24.436 -18.906  0.00  0.00    -0.153 OA
BRANCH  11  14
ATOM     14  N   UNL     1      34.716 -23.193 -16.871  0.00  0.00    -0.203 NA
ATOM     15  H   UNL     1      35.504 -22.580 -17.085  0.00  0.00    +0.144 HD
ATOM     16  H   UNL     1      35.056 -24.143 -16.721  0.00  0.00    +0.144 HD
ENDBRANCH  11  14
ENDBRANCH   8  11
ENDBRANCH   3   5
BRANCH   2  17
ATOM     17  C   UNL     1      35.349 -16.891 -23.067  0.00  0.00    +0.091 C 
BRANCH  17  18
ATOM     18  C   UNL     1      34.225 -15.876 -23.327  0.00  0.00    +0.040 C 
ATOM     19  C   UNL     1      33.874 -15.813 -24.817  0.00  0.00    +0.004 C 
BRANCH  18  20
ATOM     20  C   UNL     1      34.592 -14.489 -22.762  0.00  0.00    +0.097 C 
BRANCH  20  21
ATOM     21  N   UNL     1      33.558 -13.909 -21.909  0.00  0.00    -0.286 N 
ATOM     22  C   UNL     1      32.921 -12.720 -22.143  0.00  0.00    +0.052 C 
ATOM     23  C   UNL     1      32.014 -12.540 -21.096  0.00  0.00    +0.015 C 
ATOM     24  C   UNL     1      33.103 -14.492 -20.766  0.00  0.00    +0.065 C 
ATOM     25  C   UNL     1      32.141 -13.665 -20.234  0.00  0.00    +0.017 C 
ATOM     26  C   UNL     1      33.065 -11.796 -23.184  0.00  0.00    +0.015 C 
ATOM     27  C   UNL     1      31.213 -11.380 -21.085  0.00  0.00    +0.001 C 
ATOM     28  C   UNL     1      32.260 -10.653 -23.152  0.00  0.00    +0.001 C 
ATOM     29  C   UNL     1      31.347 -10.447 -22.119  0.00  0.00    +0.000 C 
ENDBRANCH  20  21
ENDBRANCH  18  20
ENDBRANCH  17  18
ENDBRANCH   2  17
TORSDOF 7
ENDMDL
MODEL 2
REMARK VINA RESULT:     -11.2      0.770      1.991
REMARK  Name = 446277
REMARK  7 active torsions:
REMARK  status: ('A' for Active; 'I' for Inactive)
REMARK    1  A    between atoms: N_2  and  C_17
REMARK    2  A    between atoms: C_3  and  C_5
REMARK    3  A    between atoms: C_8  and  S_11
REMARK    4  A    between atoms: S_11  and  N_14
REMARK    5  A    between atoms: C_17  and  C_18
REMARK    6  A    between atoms: C_18  and  C_20
REMARK    7  A    between atoms: C_20  and  N_21
REMARK                            x       y       z     vdW  Elec       q    Type
REMARK                         _______ _______ _______ _____ _____    ______ ____
ROOT
ATOM      1  O   UNL     1      36.461 -18.286 -21.476  0.00  0.00    -0.270 OA
ATOM      2  N   UNL     1      34.638 -18.657 -22.862  0.00  0.00    -0.301 N 
ATOM      3  C   UNL     1      35.422 -18.888 -21.739  0.00  0.00    +0.246 C 
ATOM      4  H   UNL     1      33.821 -19.191 -22.985  0.00  0.00    +0.150 HD
ENDROOT
BRANCH   3   5
ATOM      5  C   UNL     1      34.956 -19.961 -20.824  0.00  0.00    +0.053 C 
ATOM      6  C   UNL     1      35.892 -20.733 -20.169  0.00  0.00    +0.006 C 
ATOM      7  C   UNL     1      33.599 -20.152 -20.659  0.00  0.00    +0.006 C 
ATOM      8  C   UNL     1      34.088 -21.954 -19.125  0.00  0.00    +0.122 C 
ATOM      9  C   UNL     1      35.454 -21.741 -19.310  0.00  0.00    +0.020 C 
ATOM     10  C   UNL     1      33.161 -21.159 -19.800  0.00  0.00    +0.020 C 
BRANCH   8  11
ATOM     11  S   UNL     1      33.538 -23.215 -18.049  0.00  0.00    +0.057 S 
ATOM     12  O   UNL     1      32.241 -22.827 -17.512  0.00  0.00    -0.153 OA
ATOM     13  O   UNL     1      33.688 -24.497 -18.724  0.00  0.00    -0.153 OA
BRANCH  11  14
ATOM     14  N   UNL     1      34.703 -23.111 -16.804  0.00  0.00    -0.203 NA
ATOM     15  H   UNL     1      35.605 -22.850 -17.203  0.00  0.00    +0.144 HD
ATOM     16  H   UNL     1      34.786 -24.016 -16.340  0.00  0.00    +0.144 HD
ENDBRANCH  11  14
ENDBRANCH   8  11
ENDBRANCH   3   5
BRANCH   2  17
ATOM     17  C   UNL     1      34.972 -17.668 -23.852  0.00  0.00    +0.091 C 
BRANCH  17  18
ATOM     18  C   UNL     1      34.109 -16.399 -23.767  0.00  0.00    +0.040 C 
ATOM     19  C   UNL     1      33.466 -16.080 -25.121  0.00  0.00    +0.004 C 
BRANCH  18  20
ATOM     20  C   UNL     1      34.927 -15.211 -23.223  0.00  0.00    +0.097 C 
BRANCH  20  21
ATOM     21  N   UNL     1      34.169 -13.966 -23.135  0.00  0.00    -0.286 N 
ATOM     22  C   UNL     1      33.353 -13.614 -22.094  0.00  0.00    +0.052 C 
ATOM     23  C   UNL     1      32.825 -12.359 -22.406  0.00  0.00    +0.015 C 
ATOM     24  C   UNL     1      34.185 -12.998 -24.093  0.00  0.00    +0.065 C 
ATOM     25  C   UNL     1      33.359 -11.983 -23.670  0.00  0.00    +0.017 C 
ATOM     26  C   UNL     1      33.039 -14.292 -20.911  0.00  0.00    +0.015 C 
ATOM     27  C   UNL     1      31.940 -11.749 -21.493  0.00  0.00    +0.001 C 
ATOM     28  C   UNL     1      32.159 -13.669 -20.021  0.00  0.00    +0.001 C 
ATOM     29  C   UNL     1      31.617 -12.416 -20.306  0.00  0.00    +0.000 C 
ENDBRANCH  20  21
ENDBRANCH  18  20
ENDBRANCH  17  18
ENDBRANCH   2  17
TORSDOF 7
ENDMDL
MODEL 3
REMARK VINA RESULT:     -11.1      5.465     10.960
REMARK  Name = 446277
REMARK  7 active torsions:
REMARK  status: ('A' for Active; 'I' for Inactive)
REMARK    1  A    between atoms: N_2  and  C_17
REMARK    2  A    between atoms: C_3  and  C_5
REMARK    3  A    between atoms: C_8  and  S_11
REMARK    4  A    between atoms: S_11  and  N_14
REMARK    5  A    between atoms: C_17  and  C_18
REMARK    6  A    between atoms: C_18  and  C_20
REMARK    7  A    between atoms: C_20  and  N_21
REMARK                            x       y       z     vdW  Elec       q    Type
REMARK                         _______ _______ _______ _____ _____    ______ ____
ROOT
ATOM      1  O   UNL     1      33.662 -24.410 -18.583  0.00  0.00    -0.270 OA
ATOM      2  N   UNL     1      32.973 -22.860 -16.998  0.00  0.00    -0.301 N 
ATOM      3  C   UNL     1      33.592 -23.251 -18.180  0.00  0.00    +0.246 C 
ATOM      4  H   UNL     1      32.969 -21.906 -16.761  0.00  0.00    +0.150 HD
ENDROOT
BRANCH   3   5
ATOM      5  C   UNL     1      34.225 -22.168 -18.976  0.00  0.00    +0.053 C 
ATOM      6  C   UNL     1      35.601 -22.067 -18.990  0.00  0.00    +0.006 C 
ATOM      7  C   UNL     1      33.416 -21.297 -19.677  0.00  0.00    +0.006 C 
ATOM      8  C   UNL     1      35.398 -20.157 -20.456  0.00  0.00    +0.122 C 
ATOM      9  C   UNL     1      36.194 -21.050 -19.738  0.00  0.00    +0.020 C 
ATOM     10  C   UNL     1      34.009 -20.281 -20.425  0.00  0.00    +0.020 C 
BRANCH   8  11
ATOM     11  S   UNL     1      36.141 -18.885 -21.393  0.00  0.00    +0.057 S 
ATOM     12  O   UNL     1      37.555 -18.823 -21.044  0.00  0.00    -0.153 OA
ATOM     13  O   UNL     1      35.746 -19.045 -22.786  0.00  0.00    -0.153 OA
BRANCH  11  14
ATOM     14  N   UNL     1      35.356 -17.509 -20.755  0.00  0.00    -0.203 NA
ATOM     15  H   UNL     1      35.949 -17.075 -20.047  0.00  0.00    +0.144 HD
ATOM     16  H   UNL     1      34.470 -17.788 -20.333  0.00  0.00    +0.144 HD
ENDBRANCH  11  14
ENDBRANCH   8  11
ENDBRANCH   3   5
BRANCH   2  17
ATOM     17  C   UNL     1      32.339 -23.796 -16.110  0.00  0.00    +0.091 C 
BRANCH  17  18
ATOM     18  C   UNL     1      33.232 -24.231 -14.937  0.00  0.00    +0.040 C 
ATOM     19  C   UNL     1      32.389 -24.762 -13.772  0.00  0.00    +0.004 C 
BRANCH  18  20
ATOM     20  C   UNL     1      34.165 -23.085 -14.498  0.00  0.00    +0.097 C 
BRANCH  20  21
ATOM     21  N   UNL     1      35.583 -23.376 -14.687  0.00  0.00    -0.286 N 
ATOM     22  C   UNL     1      36.307 -24.272 -13.949  0.00  0.00    +0.052 C 
ATOM     23  C   UNL     1      37.610 -24.245 -14.452  0.00  0.00    +0.015 C 
ATOM     24  C   UNL     1      36.360 -22.780 -15.633  0.00  0.00    +0.065 C 
ATOM     25  C   UNL     1      37.629 -23.299 -15.514  0.00  0.00    +0.017 C 
ATOM     26  C   UNL     1      35.925 -25.100 -12.887  0.00  0.00    +0.015 C 
ATOM     27  C   UNL     1      38.581 -25.084 -13.867  0.00  0.00    +0.001 C 
ATOM     28  C   UNL     1      36.905 -25.924 -12.323  0.00  0.00    +0.001 C 
ATOM     29  C   UNL     1      38.213 -25.917 -12.805  0.00  0.00    +0.000 C 
ENDBRANCH  20  21
ENDBRANCH  18  20
ENDBRANCH  17  18
ENDBRANCH   2  17
TORSDOF 7
ENDMDL
MODEL 4
REMARK VINA RESULT:     -11.1      5.547     11.110
REMARK  Name = 446277
REMARK  7 active torsions:
REMARK  status: ('A' for Active; 'I' for Inactive)
REMARK    1  A    between atoms: N_2  and  C_17
REMARK    2  A    between atoms: C_3  and  C_5
REMARK    3  A    between atoms: C_8  and  S_11
REMARK    4  A    between atoms: S_11  and  N_14
REMARK    5  A    between atoms: C_17  and  C_18
REMARK    6  A    between atoms: C_18  and  C_20
REMARK    7  A    between atoms: C_20  and  N_21
REMARK                            x       y       z     vdW  Elec       q    Type
REMARK                         _______ _______ _______ _____ _____    ______ ____
ROOT
ATOM      1  O   UNL     1      33.726 -24.448 -18.765  0.00  0.00    -0.270 OA
ATOM      2  N   UNL     1      33.036 -22.991 -17.096  0.00  0.00    -0.301 N 
ATOM      3  C   UNL     1      33.633 -23.310 -18.310  0.00  0.00    +0.246 C 
ATOM      4  H   UNL     1      33.010 -22.048 -16.817  0.00  0.00    +0.150 HD
ENDROOT
BRANCH   3   5
ATOM      5  C   UNL     1      34.211 -22.175 -19.074  0.00  0.00    +0.053 C 
ATOM      6  C   UNL     1      33.360 -21.317 -19.740  0.00  0.00    +0.006 C 
ATOM      7  C   UNL     1      35.582 -22.014 -19.093  0.00  0.00    +0.006 C 
ATOM      8  C   UNL     1      35.286 -20.067 -20.491  0.00  0.00    +0.122 C 
ATOM      9  C   UNL     1      33.904 -20.251 -20.457  0.00  0.00    +0.020 C 
ATOM     10  C   UNL     1      36.125 -20.948 -19.809  0.00  0.00    +0.020 C 
BRANCH   8  11
ATOM     11  S   UNL     1      35.966 -18.731 -21.388  0.00  0.00    +0.057 S 
ATOM     12  O   UNL     1      35.776 -18.989 -22.809  0.00  0.00    -0.153 OA
ATOM     13  O   UNL     1      35.479 -17.488 -20.807  0.00  0.00    -0.153 OA
BRANCH  11  14
ATOM     14  N   UNL     1      37.624 -18.898 -21.014  0.00  0.00    -0.203 NA
ATOM     15  H   UNL     1      38.136 -18.090 -21.368  0.00  0.00    +0.144 HD
ATOM     16  H   UNL     1      37.987 -19.747 -21.448  0.00  0.00    +0.144 HD
ENDBRANCH  11  14
ENDBRANCH   8  11
ENDBRANCH   3   5
BRANCH   2  17
ATOM     17  C   UNL     1      32.454 -23.983 -16.233  0.00  0.00    +0.091 C 
BRANCH  17  18
ATOM     18  C   UNL     1      32.849 -23.820 -14.757  0.00  0.00    +0.040 C 
ATOM     19  C   UNL     1      31.895 -22.863 -14.035  0.00  0.00    +0.004 C 
BRANCH  18  20
ATOM     20  C   UNL     1      34.320 -23.378 -14.624  0.00  0.00    +0.097 C 
BRANCH  20  21
ATOM     21  N   UNL     1      35.048 -24.067 -13.563  0.00  0.00    -0.286 N 
ATOM     22  C   UNL     1      36.342 -24.505 -13.652  0.00  0.00    +0.052 C 
ATOM     23  C   UNL     1      36.647 -25.104 -12.427  0.00  0.00    +0.015 C 
ATOM     24  C   UNL     1      34.515 -24.359 -12.344  0.00  0.00    +0.065 C 
ATOM     25  C   UNL     1      35.485 -25.005 -11.612  0.00  0.00    +0.017 C 
ATOM     26  C   UNL     1      37.263 -24.423 -14.702  0.00  0.00    +0.015 C 
ATOM     27  C   UNL     1      37.934 -25.649 -12.240  0.00  0.00    +0.001 C 
ATOM     28  C   UNL     1      38.533 -24.970 -14.494  0.00  0.00    +0.001 C 
ATOM     29  C   UNL     1      38.865 -25.574 -13.282  0.00  0.00    +0.000 C 
ENDBRANCH  20  21
ENDBRANCH  18  20
ENDBRANCH  17  18
ENDBRANCH   2  17
TORSDOF 7
ENDMDL
MODEL 5
REMARK VINA RESULT:     -11.0      1.166      2.077
REMARK  Name = 446277
REMARK  7 active torsions:
REMARK  status: ('A' for Active; 'I' for Inactive)
REMARK    1  A    between atoms: N_2  and  C_17
REMARK    2  A    between atoms: C_3  and  C_5
REMARK    3  A    between atoms: C_8  and  S_11
REMARK    4  A    between atoms: S_11  and  N_14
REMARK    5  A    between atoms: C_17  and  C_18
REMARK    6  A    between atoms: C_18  and  C_20
REMARK    7  A    between atoms: C_20  and  N_21
REMARK                            x       y       z     vdW  Elec       q    Type
REMARK                         _______ _______ _______ _____ _____    ______ ____
ROOT
ATOM      1  O   UNL     1      36.506 -18.882 -22.549  0.00  0.00    -0.270 OA
ATOM      2  N   UNL     1      34.921 -17.478 -21.599  0.00  0.00    -0.301 N 
ATOM      3  C   UNL     1      35.603 -18.681 -21.741  0.00  0.00    +0.246 C 
ATOM      4  H   UNL     1      34.212 -17.415 -20.920  0.00  0.00    +0.150 HD
ENDROOT
BRANCH   3   5
ATOM      5  C   UNL     1      35.168 -19.789 -20.852  0.00  0.00    +0.053 C 
ATOM      6  C   UNL     1      33.818 -20.034 -20.704  0.00  0.00    +0.006 C 
ATOM      7  C   UNL     1      36.128 -20.538 -20.203  0.00  0.00    +0.006 C 
ATOM      8  C   UNL     1      34.361 -21.847 -19.202  0.00  0.00    +0.122 C 
ATOM      9  C   UNL     1      33.410 -21.075 -19.869  0.00  0.00    +0.020 C 
ATOM     10  C   UNL     1      35.719 -21.579 -19.369  0.00  0.00    +0.020 C 
BRANCH   8  11
ATOM     11  S   UNL     1      33.849 -23.150 -18.158  0.00  0.00    +0.057 S 
ATOM     12  O   UNL     1      33.748 -24.365 -18.956  0.00  0.00    -0.153 OA
ATOM     13  O   UNL     1      34.680 -23.138 -16.962  0.00  0.00    -0.153 OA
BRANCH  11  14
ATOM     14  N   UNL     1      32.277 -22.633 -17.738  0.00  0.00    -0.203 NA
ATOM     15  H   UNL     1      32.158 -22.690 -16.726  0.00  0.00    +0.144 HD
ATOM     16  H   UNL     1      31.589 -23.232 -18.195  0.00  0.00    +0.144 HD
ENDBRANCH  11  14
ENDBRANCH   8  11
ENDBRANCH   3   5
BRANCH   2  17
ATOM     17  C   UNL     1      35.212 -16.323 -22.404  0.00  0.00    +0.091 C 
BRANCH  17  18
ATOM     18  C   UNL     1      34.638 -15.017 -21.833  0.00  0.00    +0.040 C 
ATOM     19  C   UNL     1      34.365 -15.147 -20.330  0.00  0.00    +0.004 C 
BRANCH  18  20
ATOM     20  C   UNL     1      33.381 -14.579 -22.611  0.00  0.00    +0.097 C 
BRANCH  20  21
ATOM     21  N   UNL     1      33.298 -13.137 -22.831  0.00  0.00    -0.286 N 
ATOM     22  C   UNL     1      32.559 -12.267 -22.076  0.00  0.00    +0.052 C 
ATOM     23  C   UNL     1      32.758 -10.996 -22.621  0.00  0.00    +0.015 C 
ATOM     24  C   UNL     1      33.957 -12.484 -23.828  0.00  0.00    +0.065 C 
ATOM     25  C   UNL     1      33.642 -11.148 -23.725  0.00  0.00    +0.017 C 
ATOM     26  C   UNL     1      31.737 -12.493 -20.967  0.00  0.00    +0.015 C 
ATOM     27  C   UNL     1      32.106  -9.895 -22.029  0.00  0.00    +0.001 C 
ATOM     28  C   UNL     1      31.100 -11.386 -20.397  0.00  0.00    +0.001 C 
ATOM     29  C   UNL     1      31.280 -10.106 -20.919  0.00  0.00    +0.000 C 
ENDBRANCH  20  21
ENDBRANCH  18  20
ENDBRANCH  17  18
ENDBRANCH   2  17
TORSDOF 7
ENDMDL
MODEL 6
REMARK VINA RESULT:     -10.9      2.670      4.372
REMARK  Name = 446277
REMARK  7 active torsions:
REMARK  status: ('A' for Active; 'I' for Inactive)
REMARK    1  A    between atoms: N_2  and  C_17
REMARK    2  A    between atoms: C_3  and  C_5
REMARK    3  A    between atoms: C_8  and  S_11
REMARK    4  A    between atoms: S_11  and  N_14
REMARK    5  A    between atoms: C_17  and  C_18
REMARK    6  A    between atoms: C_18  and  C_20
REMARK    7  A    between atoms: C_20  and  N_21
REMARK                            x       y       z     vdW  Elec       q    Type
REMARK                         _______ _______ _______ _____ _____    ______ ____
ROOT
ATOM      1  O   UNL     1      33.179 -21.725 -19.705  0.00  0.00    -0.270 OA
ATOM      2  N   UNL     1      35.188 -20.601 -19.993  0.00  0.00    -0.301 N 
ATOM      3  C   UNL     1      34.328 -21.480 -19.345  0.00  0.00    +0.246 C 
ATOM      4  H   UNL     1      36.092 -20.471 -19.627  0.00  0.00    +0.150 HD
ENDROOT
BRANCH   3   5
ATOM      5  C   UNL     1      34.858 -22.132 -18.120  0.00  0.00    +0.053 C 
ATOM      6  C   UNL     1      34.019 -22.934 -17.375  0.00  0.00    +0.006 C 
ATOM      7  C   UNL     1      36.175 -21.915 -17.768  0.00  0.00    +0.006 C 
ATOM      8  C   UNL     1      35.845 -23.343 -15.847  0.00  0.00    +0.122 C 
ATOM      9  C   UNL     1      34.518 -23.546 -16.225  0.00  0.00    +0.020 C 
ATOM     10  C   UNL     1      36.673 -22.528 -16.618  0.00  0.00    +0.020 C 
BRANCH   8  11
ATOM     11  S   UNL     1      36.470 -24.111 -14.408  0.00  0.00    +0.057 S 
ATOM     12  O   UNL     1      37.591 -23.321 -13.916  0.00  0.00    -0.153 OA
ATOM     13  O   UNL     1      35.353 -24.412 -13.523  0.00  0.00    -0.153 OA
BRANCH  11  14
ATOM     14  N   UNL     1      37.068 -25.575 -15.053  0.00  0.00    -0.203 NA
ATOM     15  H   UNL     1      36.967 -25.567 -16.068  0.00  0.00    +0.144 HD
ATOM     16  H   UNL     1      36.542 -26.358 -14.665  0.00  0.00    +0.144 HD
ENDBRANCH  11  14
ENDBRANCH   8  11
ENDBRANCH   3   5
BRANCH   2  17
ATOM     17  C   UNL     1      34.810 -19.877 -21.176  0.00  0.00    +0.091 C 
BRANCH  17  18
ATOM     18  C   UNL     1      35.890 -18.901 -21.669  0.00  0.00    +0.040 C 
ATOM     19  C   UNL     1      37.203 -19.101 -20.904  0.00  0.00    +0.004 C 
BRANCH  18  20
ATOM     20  C   UNL     1      35.395 -17.443 -21.593  0.00  0.00    +0.097 C 
BRANCH  20  21
ATOM     21  N   UNL     1      34.820 -16.951 -22.842  0.00  0.00    -0.286 N 
ATOM     22  C   UNL     1      34.437 -15.659 -23.077  0.00  0.00    +0.052 C 
ATOM     23  C   UNL     1      33.944 -15.618 -24.383  0.00  0.00    +0.015 C 
ATOM     24  C   UNL     1      34.594 -17.735 -23.933  0.00  0.00    +0.065 C 
ATOM     25  C   UNL     1      34.049 -16.935 -24.911  0.00  0.00    +0.017 C 
ATOM     26  C   UNL     1      34.484 -14.529 -22.253  0.00  0.00    +0.015 C 
ATOM     27  C   UNL     1      33.475 -14.391 -24.894  0.00  0.00    +0.001 C 
ATOM     28  C   UNL     1      34.013 -13.323 -22.780  0.00  0.00    +0.001 C 
ATOM     29  C   UNL     1      33.515 -13.253 -24.080  0.00  0.00    +0.000 C 
ENDBRANCH  20  21
ENDBRANCH  18  20
ENDBRANCH  17  18
ENDBRANCH   2  17
TORSDOF 7
ENDMDL
MODEL 7
REMARK VINA RESULT:     -10.7      2.824      4.638
REMARK  Name = 446277
REMARK  7 active torsions:
REMARK  status: ('A' for Active; 'I' for Inactive)
REMARK    1  A    between atoms: N_2  and  C_17
REMARK    2  A    between atoms: C_3  and  C_5
REMARK    3  A    between atoms: C_8  and  S_11
REMARK    4  A    between atoms: S_11  and  N_14
REMARK    5  A    between atoms: C_17  and  C_18
REMARK    6  A    between atoms: C_18  and  C_20
REMARK    7  A    between atoms: C_20  and  N_21
REMARK                            x       y       z     vdW  Elec       q    Type
REMARK                         _______ _______ _______ _____ _____    ______ ____
ROOT
ATOM      1  O   UNL     1      33.272 -22.200 -19.521  0.00  0.00    -0.270 OA
ATOM      2  N   UNL     1      35.122 -20.808 -19.669  0.00  0.00    -0.301 N 
ATOM      3  C   UNL     1      34.349 -21.802 -19.083  0.00  0.00    +0.246 C 
ATOM      4  H   UNL     1      35.973 -20.558 -19.242  0.00  0.00    +0.150 HD
ENDROOT
BRANCH   3   5
ATOM      5  C   UNL     1      34.879 -22.387 -17.823  0.00  0.00    +0.053 C 
ATOM      6  C   UNL     1      34.049 -23.173 -17.052  0.00  0.00    +0.006 C 
ATOM      7  C   UNL     1      36.185 -22.124 -17.466  0.00  0.00    +0.006 C 
ATOM      8  C   UNL     1      35.864 -23.471 -15.487  0.00  0.00    +0.122 C 
ATOM      9  C   UNL     1      34.547 -23.721 -15.870  0.00  0.00    +0.020 C 
ATOM     10  C   UNL     1      36.683 -22.672 -16.285  0.00  0.00    +0.020 C 
BRANCH   8  11
ATOM     11  S   UNL     1      36.488 -24.158 -14.007  0.00  0.00    +0.057 S 
ATOM     12  O   UNL     1      36.327 -25.605 -14.070  0.00  0.00    -0.153 OA
ATOM     13  O   UNL     1      37.803 -23.588 -13.751  0.00  0.00    -0.153 OA
BRANCH  11  14
ATOM     14  N   UNL     1      35.386 -23.529 -12.865  0.00  0.00    -0.203 NA
ATOM     15  H   UNL     1      35.666 -22.583 -12.606  0.00  0.00    +0.144 HD
ATOM     16  H   UNL     1      35.381 -24.122 -12.035  0.00  0.00    +0.144 HD
ENDBRANCH  11  14
ENDBRANCH   8  11
ENDBRANCH   3   5
BRANCH   2  17
ATOM     17  C   UNL     1      34.731 -20.132 -20.876  0.00  0.00    +0.091 C 
BRANCH  17  18
ATOM     18  C   UNL     1      35.808 -19.184 -21.426  0.00  0.00    +0.040 C 
ATOM     19  C   UNL     1      37.139 -19.380 -20.692  0.00  0.00    +0.004 C 
BRANCH  18  20
ATOM     20  C   UNL     1      35.333 -17.718 -21.378  0.00  0.00    +0.097 C 
BRANCH  20  21
ATOM     21  N   UNL     1      34.849 -17.214 -22.660  0.00  0.00    -0.286 N 
ATOM     22  C   UNL     1      34.492 -15.917 -22.911  0.00  0.00    +0.052 C 
ATOM     23  C   UNL     1      34.092 -15.864 -24.248  0.00  0.00    +0.015 C 
ATOM     24  C   UNL     1      34.694 -17.989 -23.769  0.00  0.00    +0.065 C 
ATOM     25  C   UNL     1      34.224 -17.178 -24.777  0.00  0.00    +0.017 C 
ATOM     26  C   UNL     1      34.491 -14.793 -22.078  0.00  0.00    +0.015 C 
ATOM     27  C   UNL     1      33.667 -14.630 -24.781  0.00  0.00    +0.001 C 
ATOM     28  C   UNL     1      34.065 -13.580 -22.627  0.00  0.00    +0.001 C 
ATOM     29  C   UNL     1      33.660 -13.498 -23.959  0.00  0.00    +0.000 C 
ENDBRANCH  20  21
ENDBRANCH  18  20
ENDBRANCH  17  18
ENDBRANCH   2  17
TORSDOF 7
ENDMDL
MODEL 8
REMARK VINA RESULT:     -10.6      3.217      5.744
REMARK  Name = 446277
REMARK  7 active torsions:
REMARK  status: ('A' for Active; 'I' for Inactive)
REMARK    1  A    between atoms: N_2  and  C_17
REMARK    2  A    between atoms: C_3  and  C_5
REMARK    3  A    between atoms: C_8  and  S_11
REMARK    4  A    between atoms: S_11  and  N_14
REMARK    5  A    between atoms: C_17  and  C_18
REMARK    6  A    between atoms: C_18  and  C_20
REMARK    7  A    between atoms: C_20  and  N_21
REMARK                            x       y       z     vdW  Elec       q    Type
REMARK                         _______ _______ _______ _____ _____    ______ ____
ROOT
ATOM      1  O   UNL     1      33.881 -23.680 -19.525  0.00  0.00    -0.270 OA
ATOM      2  N   UNL     1      33.760 -21.421 -19.009  0.00  0.00    -0.301 N 
ATOM      3  C   UNL     1      33.734 -22.777 -18.705  0.00  0.00    +0.246 C 
ATOM      4  H   UNL     1      33.633 -20.771 -18.281  0.00  0.00    +0.150 HD
ENDROOT
BRANCH   3   5
ATOM      5  C   UNL     1      33.483 -23.123 -17.282  0.00  0.00    +0.053 C 
ATOM      6  C   UNL     1      34.561 -23.323 -16.444  0.00  0.00    +0.006 C 
ATOM      7  C   UNL     1      32.179 -23.234 -16.844  0.00  0.00    +0.006 C 
ATOM      8  C   UNL     1      33.016 -23.766 -14.641  0.00  0.00    +0.122 C 
ATOM      9  C   UNL     1      34.325 -23.649 -15.108  0.00  0.00    +0.020 C 
ATOM     10  C   UNL     1      31.944 -23.559 -15.508  0.00  0.00    +0.020 C 
BRANCH   8  11
ATOM     11  S   UNL     1      32.721 -24.172 -12.968  0.00  0.00    +0.057 S 
ATOM     12  O   UNL     1      34.004 -24.271 -12.286  0.00  0.00    -0.153 OA
ATOM     13  O   UNL     1      31.693 -23.280 -12.449  0.00  0.00    -0.153 OA
BRANCH  11  14
ATOM     14  N   UNL     1      32.058 -25.739 -13.125  0.00  0.00    -0.203 NA
ATOM     15  H   UNL     1      32.752 -26.432 -12.847  0.00  0.00    +0.144 HD
ATOM     16  H   UNL     1      31.787 -25.897 -14.096  0.00  0.00    +0.144 HD
ENDBRANCH  11  14
ENDBRANCH   8  11
ENDBRANCH   3   5
BRANCH   2  17
ATOM     17  C   UNL     1      33.968 -20.930 -20.344  0.00  0.00    +0.091 C 
BRANCH  17  18
ATOM     18  C   UNL     1      35.436 -20.599 -20.656  0.00  0.00    +0.040 C 
ATOM     19  C   UNL     1      36.350 -21.012 -19.497  0.00  0.00    +0.004 C 
BRANCH  18  20
ATOM     20  C   UNL     1      35.602 -19.110 -21.020  0.00  0.00    +0.097 C 
BRANCH  20  21
ATOM     21  N   UNL     1      35.064 -18.762 -22.332  0.00  0.00    -0.286 N 
ATOM     22  C   UNL     1      34.826 -17.488 -22.772  0.00  0.00    +0.052 C 
ATOM     23  C   UNL     1      34.318 -17.601 -24.068  0.00  0.00    +0.015 C 
ATOM     24  C   UNL     1      34.731 -19.679 -23.283  0.00  0.00    +0.065 C 
ATOM     25  C   UNL     1      34.263 -18.988 -24.377  0.00  0.00    +0.017 C 
ATOM     26  C   UNL     1      35.017 -16.254 -22.140  0.00  0.00    +0.015 C 
ATOM     27  C   UNL     1      33.982 -16.425 -24.769  0.00  0.00    +0.001 C 
ATOM     28  C   UNL     1      34.676 -15.101 -22.855  0.00  0.00    +0.001 C 
ATOM     29  C   UNL     1      34.166 -15.184 -24.150  0.00  0.00    +0.000 C 
ENDBRANCH  20  21
ENDBRANCH  18  20
ENDBRANCH  17  18
ENDBRANCH   2  17
TORSDOF 7
ENDMDL
MODEL 9
REMARK VINA RESULT:     -10.4      4.567      8.977
REMARK  Name = 446277
REMARK  7 active torsions:
REMARK  status: ('A' for Active; 'I' for Inactive)
REMARK    1  A    between atoms: N_2  and  C_17
REMARK    2  A    between atoms: C_3  and  C_5
REMARK    3  A    between atoms: C_8  and  S_11
REMARK    4  A    between atoms: S_11  and  N_14
REMARK    5  A    between atoms: C_17  and  C_18
REMARK    6  A    between atoms: C_18  and  C_20
REMARK    7  A    between atoms: C_20  and  N_21
REMARK                            x       y       z     vdW  Elec       q    Type
REMARK                         _______ _______ _______ _____ _____    ______ ____
ROOT
ATOM      1  O   UNL     1      33.285 -14.602 -25.276  0.00  0.00    -0.270 OA
ATOM      2  N   UNL     1      34.278 -15.764 -23.530  0.00  0.00    -0.301 N 
ATOM      3  C   UNL     1      33.539 -14.724 -24.080  0.00  0.00    +0.246 C 
ATOM      4  H   UNL     1      34.427 -15.774 -22.558  0.00  0.00    +0.150 HD
ENDROOT
BRANCH   3   5
ATOM      5  C   UNL     1      33.057 -13.688 -23.129  0.00  0.00    +0.053 C 
ATOM      6  C   UNL     1      32.978 -12.378 -23.553  0.00  0.00    +0.006 C 
ATOM      7  C   UNL     1      32.704 -14.072 -21.851  0.00  0.00    +0.006 C 
ATOM      8  C   UNL     1      32.163 -11.768 -21.362  0.00  0.00    +0.122 C 
ATOM      9  C   UNL     1      32.526 -11.407 -22.660  0.00  0.00    +0.020 C 
ATOM     10  C   UNL     1      32.252 -13.100 -20.958  0.00  0.00    +0.020 C 
BRANCH   8  11
ATOM     11  S   UNL     1      31.595 -10.552 -20.244  0.00  0.00    +0.057 S 
ATOM     12  O   UNL     1      30.147 -10.668 -20.137  0.00  0.00    -0.153 OA
ATOM     13  O   UNL     1      32.417 -10.610 -19.043  0.00  0.00    -0.153 OA
BRANCH  11  14
ATOM     14  N   UNL     1      31.973  -9.123 -21.099  0.00  0.00    -0.203 NA
ATOM     15  H   UNL     1      31.144  -8.531 -21.156  0.00  0.00    +0.144 HD
ATOM     16  H   UNL     1      32.287  -9.362 -22.040  0.00  0.00    +0.144 HD
ENDBRANCH  11  14
ENDBRANCH   8  11
ENDBRANCH   3   5
BRANCH   2  17
ATOM     17  C   UNL     1      34.831 -16.827 -24.325  0.00  0.00    +0.091 C 
BRANCH  17  18
ATOM     18  C   UNL     1      35.028 -18.137 -23.546  0.00  0.00    +0.040 C 
ATOM     19  C   UNL     1      34.058 -19.218 -24.035  0.00  0.00    +0.004 C 
BRANCH  18  20
ATOM     20  C   UNL     1      34.911 -17.900 -22.027  0.00  0.00    +0.097 C 
BRANCH  20  21
ATOM     21  N   UNL     1      35.555 -18.932 -21.220  0.00  0.00    -0.286 N 
ATOM     22  C   UNL     1      34.903 -19.945 -20.571  0.00  0.00    +0.052 C 
ATOM     23  C   UNL     1      35.883 -20.701 -19.923  0.00  0.00    +0.015 C 
ATOM     24  C   UNL     1      36.900 -19.006 -21.016  0.00  0.00    +0.065 C 
ATOM     25  C   UNL     1      37.137 -20.097 -20.212  0.00  0.00    +0.017 C 
ATOM     26  C   UNL     1      33.541 -20.257 -20.502  0.00  0.00    +0.015 C 
ATOM     27  C   UNL     1      35.485 -21.824 -19.168  0.00  0.00    +0.001 C 
ATOM     28  C   UNL     1      33.169 -21.374 -19.748  0.00  0.00    +0.001 C 
ATOM     29  C   UNL     1      34.125 -22.147 -19.090  0.00  0.00    +0.000 C 
ENDBRANCH  20  21
ENDBRANCH  18  20
ENDBRANCH  17  18
ENDBRANCH   2  17
TORSDOF 7
ENDMDL
