MODEL 1
REMARK VINA RESULT:     -13.1      0.000      0.000
REMARK  Name = 11560856
REMARK  5 active torsions:
REMARK  status: ('A' for Active; 'I' for Inactive)
REMARK    1  A    between atoms: C_2  and  O_24
REMARK    2  A    between atoms: C_3  and  N_10
REMARK    3  A    between atoms: C_12  and  C_16
REMARK    4  A    between atoms: C_16  and  C_18
REMARK    5  A    between atoms: O_24  and  C_28
REMARK                            x       y       z     vdW  Elec       q    Type
REMARK                         _______ _______ _______ _____ _____    ______ ____
ROOT
ATOM      1  F   UNL     1      30.850 -12.084 -20.807  0.00  0.00    -0.201 F 
ATOM      2  C   UNL     1      32.425 -11.697 -22.538  0.00  0.00    +0.173 C 
ATOM      3  C   UNL     1      33.735 -14.037 -21.848  0.00  0.00    +0.054 C 
ATOM      4  C   UNL     1      31.939 -12.461 -21.490  0.00  0.00    +0.176 C 
ATOM      5  C   UNL     1      33.551 -12.077 -23.249  0.00  0.00    +0.041 C 
ATOM      6  C   UNL     1      32.599 -13.640 -21.143  0.00  0.00    +0.047 C 
ATOM      7  C   UNL     1      34.210 -13.256 -22.901  0.00  0.00    +0.018 C 
ENDROOT
BRANCH   3  10
ATOM      8  O   UNL     1      35.718 -18.902 -23.261  0.00  0.00    -0.274 OA
ATOM      9  O   UNL     1      34.455 -16.424 -23.521  0.00  0.00    -0.252 OA
ATOM     10  N   UNL     1      34.394 -15.217 -21.501  0.00  0.00    -0.268 N 
ATOM     11  N   UNL     1      35.383 -17.313 -21.586  0.00  0.00    -0.239 N 
ATOM     12  C   UNL     1      35.839 -18.531 -22.096  0.00  0.00    +0.234 C 
ATOM     13  C   UNL     1      34.713 -16.318 -22.325  0.00  0.00    +0.310 C 
ATOM     14  H   UNL     1      34.672 -15.292 -20.561  0.00  0.00    +0.156 HD
ATOM     15  H   UNL     1      35.544 -17.135 -20.632  0.00  0.00    +0.159 HD
BRANCH  12  16
ATOM     16  C   UNL     1      36.516 -19.359 -21.020  0.00  0.00    +0.112 C 
BRANCH  16  18
ATOM     17  F   UNL     1      33.022 -22.912 -18.419  0.00  0.00    -0.204 F 
ATOM     18  C   UNL     1      35.579 -20.311 -20.322  0.00  0.00    -0.013 C 
ATOM     19  C   UNL     1      34.211 -20.193 -20.523  0.00  0.00    -0.001 C 
ATOM     20  C   UNL     1      36.098 -21.292 -19.490  0.00  0.00    -0.001 C 
ATOM     21  C   UNL     1      33.344 -21.074 -19.877  0.00  0.00    +0.029 C 
ATOM     22  C   UNL     1      35.231 -22.173 -18.844  0.00  0.00    +0.029 C 
ATOM     23  C   UNL     1      33.855 -22.065 -19.038  0.00  0.00    +0.140 C 
ENDBRANCH  16  18
ENDBRANCH  12  16
ENDBRANCH   3  10
BRANCH   2  24
ATOM     24  O   UNL     1      31.771 -10.530 -22.883  0.00  0.00    -0.451 OA
BRANCH  24  28
ATOM     25  N   UNL     1      32.933  -7.255 -19.785  0.00  0.00    -0.297 N 
ATOM     26  N   UNL     1      33.707  -6.875 -22.034  0.00  0.00    -0.229 NA
ATOM     27  C   UNL     1      32.391  -8.808 -21.296  0.00  0.00    +0.067 C 
ATOM     28  C   UNL     1      32.393  -9.349 -22.592  0.00  0.00    +0.150 C 
ATOM     29  C   UNL     1      33.055  -7.599 -21.106  0.00  0.00    +0.135 C 
ATOM     30  C   UNL     1      31.859  -9.188 -20.036  0.00  0.00    +0.022 C 
ATOM     31  C   UNL     1      32.208  -8.213 -19.125  0.00  0.00    +0.063 C 
ATOM     32  C   UNL     1      33.055  -8.640 -23.592  0.00  0.00    +0.058 C 
ATOM     33  C   UNL     1      33.676  -7.442 -23.262  0.00  0.00    +0.103 C 
ATOM     34  H   UNL     1      33.309  -6.443 -19.373  0.00  0.00    +0.154 HD
ENDBRANCH  24  28
ENDBRANCH   2  24
TORSDOF 5
ENDMDL
MODEL 2
REMARK VINA RESULT:     -13.1      4.104     11.303
REMARK  Name = 11560856
REMARK  5 active torsions:
REMARK  status: ('A' for Active; 'I' for Inactive)
REMARK    1  A    between atoms: C_2  and  O_24
REMARK    2  A    between atoms: C_3  and  N_10
REMARK    3  A    between atoms: C_12  and  C_16
REMARK    4  A    between atoms: C_16  and  C_18
REMARK    5  A    between atoms: O_24  and  C_28
REMARK                            x       y       z     vdW  Elec       q    Type
REMARK                         _______ _______ _______ _____ _____    ______ ____
ROOT
ATOM      1  F   UNL     1      36.701 -22.472 -18.387  0.00  0.00    -0.201 F 
ATOM      2  C   UNL     1      34.362 -22.500 -18.783  0.00  0.00    +0.173 C 
ATOM      3  C   UNL     1      34.599 -20.171 -20.261  0.00  0.00    +0.054 C 
ATOM      4  C   UNL     1      35.611 -21.922 -18.939  0.00  0.00    +0.176 C 
ATOM      5  C   UNL     1      33.230 -21.940 -19.348  0.00  0.00    +0.041 C 
ATOM      6  C   UNL     1      35.730 -20.749 -19.685  0.00  0.00    +0.047 C 
ATOM      7  C   UNL     1      33.349 -20.767 -20.093  0.00  0.00    +0.018 C 
ENDROOT
BRANCH   3  10
ATOM      8  O   UNL     1      34.518 -17.634 -25.073  0.00  0.00    -0.274 OA
ATOM      9  O   UNL     1      34.361 -19.718 -23.219  0.00  0.00    -0.252 OA
ATOM     10  N   UNL     1      34.719 -18.999 -21.007  0.00  0.00    -0.268 N 
ATOM     11  N   UNL     1      34.790 -17.482 -22.761  0.00  0.00    -0.239 N 
ATOM     12  C   UNL     1      34.738 -16.973 -24.061  0.00  0.00    +0.234 C 
ATOM     13  C   UNL     1      34.599 -18.832 -22.403  0.00  0.00    +0.310 C 
ATOM     14  H   UNL     1      34.913 -18.182 -20.494  0.00  0.00    +0.156 HD
ATOM     15  H   UNL     1      34.976 -16.845 -22.034  0.00  0.00    +0.159 HD
BRANCH  12  16
ATOM     16  C   UNL     1      34.992 -15.478 -24.077  0.00  0.00    +0.112 C 
BRANCH  16  18
ATOM     17  F   UNL     1      31.959 -12.668 -20.269  0.00  0.00    -0.204 F 
ATOM     18  C   UNL     1      34.180 -14.724 -23.056  0.00  0.00    -0.013 C 
ATOM     19  C   UNL     1      33.135 -13.913 -23.478  0.00  0.00    -0.001 C 
ATOM     20  C   UNL     1      34.487 -14.852 -21.710  0.00  0.00    -0.001 C 
ATOM     21  C   UNL     1      32.383 -13.216 -22.533  0.00  0.00    +0.029 C 
ATOM     22  C   UNL     1      33.735 -14.154 -20.764  0.00  0.00    +0.029 C 
ATOM     23  C   UNL     1      32.683 -13.338 -21.176  0.00  0.00    +0.140 C 
ENDBRANCH  16  18
ENDBRANCH  12  16
ENDBRANCH   3  10
BRANCH   2  24
ATOM     24  O   UNL     1      34.244 -23.663 -18.046  0.00  0.00    -0.451 OA
BRANCH  24  28
ATOM     25  N   UNL     1      34.806 -23.453 -13.429  0.00  0.00    -0.297 N 
ATOM     26  N   UNL     1      32.526 -23.357 -14.201  0.00  0.00    -0.229 NA
ATOM     27  C   UNL     1      34.502 -23.552 -15.639  0.00  0.00    +0.067 C 
ATOM     28  C   UNL     1      33.704 -23.564 -16.794  0.00  0.00    +0.150 C 
ATOM     29  C   UNL     1      33.852 -23.447 -14.412  0.00  0.00    +0.135 C 
ATOM     30  C   UNL     1      35.893 -23.622 -15.363  0.00  0.00    +0.022 C 
ATOM     31  C   UNL     1      36.050 -23.558 -13.994  0.00  0.00    +0.063 C 
ATOM     32  C   UNL     1      32.323 -23.473 -16.632  0.00  0.00    +0.058 C 
ATOM     33  C   UNL     1      31.807 -23.375 -15.346  0.00  0.00    +0.103 C 
ATOM     34  H   UNL     1      34.625 -23.390 -12.462  0.00  0.00    +0.154 HD
ENDBRANCH  24  28
ENDBRANCH   2  24
TORSDOF 5
ENDMDL
MODEL 3
REMARK VINA RESULT:     -12.9      0.640      1.891
REMARK  Name = 11560856
REMARK  5 active torsions:
REMARK  status: ('A' for Active; 'I' for Inactive)
REMARK    1  A    between atoms: C_2  and  O_24
REMARK    2  A    between atoms: C_3  and  N_10
REMARK    3  A    between atoms: C_12  and  C_16
REMARK    4  A    between atoms: C_16  and  C_18
REMARK    5  A    between atoms: O_24  and  C_28
REMARK                            x       y       z     vdW  Elec       q    Type
REMARK                         _______ _______ _______ _____ _____    ______ ____
ROOT
ATOM      1  F   UNL     1      31.095 -11.965 -20.651  0.00  0.00    -0.201 F 
ATOM      2  C   UNL     1      32.507 -11.744 -22.544  0.00  0.00    +0.173 C 
ATOM      3  C   UNL     1      33.803 -14.085 -21.832  0.00  0.00    +0.054 C 
ATOM      4  C   UNL     1      32.101 -12.424 -21.407  0.00  0.00    +0.176 C 
ATOM      5  C   UNL     1      33.547 -12.208 -23.332  0.00  0.00    +0.041 C 
ATOM      6  C   UNL     1      32.753 -13.604 -21.050  0.00  0.00    +0.047 C 
ATOM      7  C   UNL     1      34.199 -13.388 -22.973  0.00  0.00    +0.018 C 
ENDROOT
BRANCH   3  10
ATOM      8  O   UNL     1      35.736 -18.985 -23.196  0.00  0.00    -0.274 OA
ATOM      9  O   UNL     1      34.493 -16.499 -23.479  0.00  0.00    -0.252 OA
ATOM     10  N   UNL     1      34.454 -15.266 -21.474  0.00  0.00    -0.268 N 
ATOM     11  N   UNL     1      35.426 -17.371 -21.539  0.00  0.00    -0.239 N 
ATOM     12  C   UNL     1      35.868 -18.600 -22.036  0.00  0.00    +0.234 C 
ATOM     13  C   UNL     1      34.758 -16.380 -22.286  0.00  0.00    +0.310 C 
ATOM     14  H   UNL     1      34.737 -15.332 -20.535  0.00  0.00    +0.156 HD
ATOM     15  H   UNL     1      35.593 -17.183 -20.588  0.00  0.00    +0.159 HD
BRANCH  12  16
ATOM     16  C   UNL     1      36.544 -19.420 -20.954  0.00  0.00    +0.112 C 
BRANCH  16  18
ATOM     17  F   UNL     1      33.053 -22.957 -18.329  0.00  0.00    -0.204 F 
ATOM     18  C   UNL     1      35.609 -20.369 -20.252  0.00  0.00    -0.013 C 
ATOM     19  C   UNL     1      36.127 -21.328 -19.393  0.00  0.00    -0.001 C 
ATOM     20  C   UNL     1      34.243 -20.268 -20.472  0.00  0.00    -0.001 C 
ATOM     21  C   UNL     1      35.260 -22.206 -18.742  0.00  0.00    +0.029 C 
ATOM     22  C   UNL     1      33.376 -21.146 -19.821  0.00  0.00    +0.029 C 
ATOM     23  C   UNL     1      33.884 -22.114 -18.955  0.00  0.00    +0.140 C 
ENDBRANCH  16  18
ENDBRANCH  12  16
ENDBRANCH   3  10
BRANCH   2  24
ATOM     24  O   UNL     1      31.861 -10.576 -22.899  0.00  0.00    -0.451 OA
BRANCH  24  28
ATOM     25  N   UNL     1      34.916  -7.068 -22.703  0.00  0.00    -0.297 N 
ATOM     26  N   UNL     1      33.145  -6.992 -21.071  0.00  0.00    -0.229 NA
ATOM     27  C   UNL     1      33.434  -8.737 -22.769  0.00  0.00    +0.067 C 
ATOM     28  C   UNL     1      32.290  -9.416 -22.319  0.00  0.00    +0.150 C 
ATOM     29  C   UNL     1      33.784  -7.562 -22.109  0.00  0.00    +0.135 C 
ATOM     30  C   UNL     1      34.400  -8.939 -23.790  0.00  0.00    +0.022 C 
ATOM     31  C   UNL     1      35.299  -7.896 -23.725  0.00  0.00    +0.063 C 
ATOM     32  C   UNL     1      31.589  -8.867 -21.246  0.00  0.00    +0.058 C 
ATOM     33  C   UNL     1      32.052  -7.687 -20.678  0.00  0.00    +0.103 C 
ATOM     34  H   UNL     1      35.383  -6.243 -22.435  0.00  0.00    +0.154 HD
ENDBRANCH  24  28
ENDBRANCH   2  24
TORSDOF 5
ENDMDL
MODEL 4
REMARK VINA RESULT:     -12.6      5.505      9.352
REMARK  Name = 11560856
REMARK  5 active torsions:
REMARK  status: ('A' for Active; 'I' for Inactive)
REMARK    1  A    between atoms: C_2  and  O_24
REMARK    2  A    between atoms: C_3  and  N_10
REMARK    3  A    between atoms: C_12  and  C_16
REMARK    4  A    between atoms: C_16  and  C_18
REMARK    5  A    between atoms: O_24  and  C_28
REMARK                            x       y       z     vdW  Elec       q    Type
REMARK                         _______ _______ _______ _____ _____    ______ ____
ROOT
ATOM      1  F   UNL     1      36.974 -21.468 -19.938  0.00  0.00    -0.201 F 
ATOM      2  C   UNL     1      35.028 -20.342 -20.694  0.00  0.00    +0.173 C 
ATOM      3  C   UNL     1      33.505 -21.805 -18.903  0.00  0.00    +0.054 C 
ATOM      4  C   UNL     1      35.651 -21.269 -19.874  0.00  0.00    +0.176 C 
ATOM      5  C   UNL     1      33.661 -20.130 -20.637  0.00  0.00    +0.041 C 
ATOM      6  C   UNL     1      34.883 -22.005 -18.972  0.00  0.00    +0.047 C 
ATOM      7  C   UNL     1      32.894 -20.867 -19.735  0.00  0.00    +0.018 C 
ENDROOT
BRANCH   3  10
ATOM      8  O   UNL     1      33.120 -24.607 -14.255  0.00  0.00    -0.274 OA
ATOM      9  O   UNL     1      34.273 -23.099 -16.305  0.00  0.00    -0.252 OA
ATOM     10  N   UNL     1      32.738 -22.541 -17.999  0.00  0.00    -0.268 N 
ATOM     11  N   UNL     1      32.060 -23.790 -16.166  0.00  0.00    -0.239 N 
ATOM     12  C   UNL     1      32.117 -24.479 -14.952  0.00  0.00    +0.234 C 
ATOM     13  C   UNL     1      33.143 -23.133 -16.784  0.00  0.00    +0.310 C 
ATOM     14  H   UNL     1      31.792 -22.663 -18.240  0.00  0.00    +0.156 HD
ATOM     15  H   UNL     1      31.192 -23.761 -16.629  0.00  0.00    +0.159 HD
BRANCH  12  16
ATOM     16  C   UNL     1      30.765 -25.064 -14.588  0.00  0.00    +0.112 C 
BRANCH  16  18
ATOM     17  F   UNL     1      26.443 -22.170 -16.720  0.00  0.00    -0.204 F 
ATOM     18  C   UNL     1      29.606 -24.289 -15.158  0.00  0.00    -0.013 C 
ATOM     19  C   UNL     1      29.316 -23.027 -14.658  0.00  0.00    -0.001 C 
ATOM     20  C   UNL     1      28.847 -24.847 -16.176  0.00  0.00    -0.001 C 
ATOM     21  C   UNL     1      28.243 -22.309 -15.188  0.00  0.00    +0.029 C 
ATOM     22  C   UNL     1      27.774 -24.129 -16.706  0.00  0.00    +0.029 C 
ATOM     23  C   UNL     1      27.473 -22.861 -16.212  0.00  0.00    +0.140 C 
ENDBRANCH  16  18
ENDBRANCH  12  16
ENDBRANCH   3  10
BRANCH   2  24
ATOM     24  O   UNL     1      35.788 -19.612 -21.587  0.00  0.00    -0.451 OA
BRANCH  24  28
ATOM     25  N   UNL     1      34.234 -15.862 -23.867  0.00  0.00    -0.297 N 
ATOM     26  N   UNL     1      33.798 -17.978 -24.934  0.00  0.00    -0.229 NA
ATOM     27  C   UNL     1      34.966 -17.681 -22.798  0.00  0.00    +0.067 C 
ATOM     28  C   UNL     1      35.146 -19.067 -22.663  0.00  0.00    +0.150 C 
ATOM     29  C   UNL     1      34.300 -17.229 -23.934  0.00  0.00    +0.135 C 
ATOM     30  C   UNL     1      35.304 -16.532 -22.035  0.00  0.00    +0.022 C 
ATOM     31  C   UNL     1      34.841 -15.427 -22.718  0.00  0.00    +0.063 C 
ATOM     32  C   UNL     1      34.646 -19.889 -23.672  0.00  0.00    +0.058 C 
ATOM     33  C   UNL     1      33.999 -19.303 -24.752  0.00  0.00    +0.103 C 
ATOM     34  H   UNL     1      33.814 -15.280 -24.542  0.00  0.00    +0.154 HD
ENDBRANCH  24  28
ENDBRANCH   2  24
TORSDOF 5
ENDMDL
MODEL 5
REMARK VINA RESULT:     -12.4      2.823     11.156
REMARK  Name = 11560856
REMARK  5 active torsions:
REMARK  status: ('A' for Active; 'I' for Inactive)
REMARK    1  A    between atoms: C_2  and  O_24
REMARK    2  A    between atoms: C_3  and  N_10
REMARK    3  A    between atoms: C_12  and  C_16
REMARK    4  A    between atoms: C_16  and  C_18
REMARK    5  A    between atoms: O_24  and  C_28
REMARK                            x       y       z     vdW  Elec       q    Type
REMARK                         _______ _______ _______ _____ _____    ______ ____
ROOT
ATOM      1  F   UNL     1      34.921 -18.862 -24.188  0.00  0.00    -0.201 F 
ATOM      2  C   UNL     1      35.282 -18.166 -21.950  0.00  0.00    +0.173 C 
ATOM      3  C   UNL     1      34.511 -15.598 -22.639  0.00  0.00    +0.054 C 
ATOM      4  C   UNL     1      34.910 -17.899 -23.257  0.00  0.00    +0.176 C 
ATOM      5  C   UNL     1      35.277 -17.178 -20.980  0.00  0.00    +0.041 C 
ATOM      6  C   UNL     1      34.521 -16.606 -23.603  0.00  0.00    +0.047 C 
ATOM      7  C   UNL     1      34.888 -15.885 -21.327  0.00  0.00    +0.018 C 
ENDROOT
BRANCH   3  10
ATOM      8  O   UNL     1      31.444 -11.203 -21.701  0.00  0.00    -0.274 OA
ATOM      9  O   UNL     1      32.505 -13.765 -21.362  0.00  0.00    -0.252 OA
ATOM     10  N   UNL     1      34.121 -14.304 -22.986  0.00  0.00    -0.268 N 
ATOM     11  N   UNL     1      33.068 -12.238 -23.019  0.00  0.00    -0.239 N 
ATOM     12  C   UNL     1      32.220 -11.189 -22.654  0.00  0.00    +0.234 C 
ATOM     13  C   UNL     1      33.169 -13.476 -22.354  0.00  0.00    +0.310 C 
ATOM     14  H   UNL     1      34.566 -13.919 -23.774  0.00  0.00    +0.156 HD
ATOM     15  H   UNL     1      33.643 -12.100 -23.806  0.00  0.00    +0.159 HD
BRANCH  12  16
ATOM     16  C   UNL     1      32.372 -10.007 -23.592  0.00  0.00    +0.112 C 
BRANCH  16  18
ATOM     17  F   UNL     1      32.262  -5.045 -20.952  0.00  0.00    -0.204 F 
ATOM     18  C   UNL     1      32.343  -8.677 -22.885  0.00  0.00    -0.013 C 
ATOM     19  C   UNL     1      31.199  -7.893 -22.951  0.00  0.00    -0.001 C 
ATOM     20  C   UNL     1      33.459  -8.255 -22.178  0.00  0.00    -0.001 C 
ATOM     21  C   UNL     1      31.172  -6.662 -22.296  0.00  0.00    +0.029 C 
ATOM     22  C   UNL     1      33.432  -7.024 -21.523  0.00  0.00    +0.029 C 
ATOM     23  C   UNL     1      32.289  -6.228 -21.581  0.00  0.00    +0.140 C 
ENDBRANCH  16  18
ENDBRANCH  12  16
ENDBRANCH   3  10
BRANCH   2  24
ATOM     24  O   UNL     1      35.666 -19.448 -21.605  0.00  0.00    -0.451 OA
BRANCH  24  28
ATOM     25  N   UNL     1      35.052 -22.365 -18.029  0.00  0.00    -0.297 N 
ATOM     26  N   UNL     1      33.036 -21.634 -19.129  0.00  0.00    -0.229 NA
ATOM     27  C   UNL     1      35.312 -20.965 -19.749  0.00  0.00    +0.067 C 
ATOM     28  C   UNL     1      34.829 -20.162 -20.795  0.00  0.00    +0.150 C 
ATOM     29  C   UNL     1      34.374 -21.651 -18.982  0.00  0.00    +0.135 C 
ATOM     30  C   UNL     1      36.590 -21.291 -19.224  0.00  0.00    +0.022 C 
ATOM     31  C   UNL     1      36.398 -22.154 -18.166  0.00  0.00    +0.063 C 
ATOM     32  C   UNL     1      33.450 -20.108 -20.990  0.00  0.00    +0.058 C 
ATOM     33  C   UNL     1      32.627 -20.847 -20.150  0.00  0.00    +0.103 C 
ATOM     34  H   UNL     1      34.634 -22.941 -17.348  0.00  0.00    +0.154 HD
ENDBRANCH  24  28
ENDBRANCH   2  24
TORSDOF 5
ENDMDL
MODEL 6
REMARK VINA RESULT:     -12.2      4.940      8.274
REMARK  Name = 11560856
REMARK  5 active torsions:
REMARK  status: ('A' for Active; 'I' for Inactive)
REMARK    1  A    between atoms: C_2  and  O_24
REMARK    2  A    between atoms: C_3  and  N_10
REMARK    3  A    between atoms: C_12  and  C_16
REMARK    4  A    between atoms: C_16  and  C_18
REMARK    5  A    between atoms: O_24  and  C_28
REMARK                            x       y       z     vdW  Elec       q    Type
REMARK                         _______ _______ _______ _____ _____    ______ ____
ROOT
ATOM      1  F   UNL     1      37.919 -18.641 -21.675  0.00  0.00    -0.201 F 
ATOM      2  C   UNL     1      35.579 -19.022 -21.773  0.00  0.00    +0.173 C 
ATOM      3  C   UNL     1      35.815 -20.901 -19.753  0.00  0.00    +0.054 C 
ATOM      4  C   UNL     1      36.828 -19.283 -21.233  0.00  0.00    +0.176 C 
ATOM      5  C   UNL     1      34.446 -19.680 -21.326  0.00  0.00    +0.041 C 
ATOM      6  C   UNL     1      36.946 -20.228 -20.215  0.00  0.00    +0.047 C 
ATOM      7  C   UNL     1      34.565 -20.626 -20.308  0.00  0.00    +0.018 C 
ENDROOT
BRANCH   3  10
ATOM      8  O   UNL     1      37.766 -22.341 -14.883  0.00  0.00    -0.274 OA
ATOM      9  O   UNL     1      37.275 -20.761 -17.133  0.00  0.00    -0.252 OA
ATOM     10  N   UNL     1      35.934 -21.846 -18.734  0.00  0.00    -0.268 N 
ATOM     11  N   UNL     1      36.504 -22.919 -16.759  0.00  0.00    -0.239 N 
ATOM     12  C   UNL     1      37.073 -23.145 -15.502  0.00  0.00    +0.234 C 
ATOM     13  C   UNL     1      36.634 -21.737 -17.514  0.00  0.00    +0.310 C 
ATOM     14  H   UNL     1      35.470 -22.700 -18.885  0.00  0.00    +0.156 HD
ATOM     15  H   UNL     1      35.969 -23.647 -17.149  0.00  0.00    +0.159 HD
BRANCH  12  16
ATOM     16  C   UNL     1      36.729 -24.528 -14.983  0.00  0.00    +0.112 C 
BRANCH  16  18
ATOM     17  F   UNL     1      35.628 -24.624  -9.472  0.00  0.00    -0.204 F 
ATOM     18  C   UNL     1      36.434 -24.555 -13.506  0.00  0.00    -0.013 C 
ATOM     19  C   UNL     1      37.454 -24.843 -12.611  0.00  0.00    -0.001 C 
ATOM     20  C   UNL     1      35.146 -24.290 -13.063  0.00  0.00    -0.001 C 
ATOM     21  C   UNL     1      37.181 -24.867 -11.243  0.00  0.00    +0.029 C 
ATOM     22  C   UNL     1      34.873 -24.314 -11.695  0.00  0.00    +0.029 C 
ATOM     23  C   UNL     1      35.890 -24.601 -10.786  0.00  0.00    +0.140 C 
ENDBRANCH  16  18
ENDBRANCH  12  16
ENDBRANCH   3  10
BRANCH   2  24
ATOM     24  O   UNL     1      35.462 -18.084 -22.780  0.00  0.00    -0.451 OA
BRANCH  24  28
ATOM     25  N   UNL     1      33.410 -14.092 -24.019  0.00  0.00    -0.297 N 
ATOM     26  N   UNL     1      33.976 -14.286 -21.685  0.00  0.00    -0.229 NA
ATOM     27  C   UNL     1      34.397 -15.995 -23.392  0.00  0.00    +0.067 C 
ATOM     28  C   UNL     1      34.976 -16.852 -22.442  0.00  0.00    +0.150 C 
ATOM     29  C   UNL     1      33.932 -14.762 -22.943  0.00  0.00    +0.135 C 
ATOM     30  C   UNL     1      34.136 -16.050 -24.787  0.00  0.00    +0.022 C 
ATOM     31  C   UNL     1      33.528 -14.865 -25.144  0.00  0.00    +0.063 C 
ATOM     32  C   UNL     1      35.047 -16.408 -21.123  0.00  0.00    +0.058 C 
ATOM     33  C   UNL     1      34.545 -15.151 -20.814  0.00  0.00    +0.103 C 
ATOM     34  H   UNL     1      33.011 -13.192 -23.987  0.00  0.00    +0.154 HD
ENDBRANCH  24  28
ENDBRANCH   2  24
TORSDOF 5
ENDMDL
MODEL 7
REMARK VINA RESULT:     -12.2      5.479     13.058
REMARK  Name = 11560856
REMARK  5 active torsions:
REMARK  status: ('A' for Active; 'I' for Inactive)
REMARK    1  A    between atoms: C_2  and  O_24
REMARK    2  A    between atoms: C_3  and  N_10
REMARK    3  A    between atoms: C_12  and  C_16
REMARK    4  A    between atoms: C_16  and  C_18
REMARK    5  A    between atoms: O_24  and  C_28
REMARK                            x       y       z     vdW  Elec       q    Type
REMARK                         _______ _______ _______ _____ _____    ______ ____
ROOT
ATOM      1  F   UNL     1      32.812 -24.258 -16.477  0.00  0.00    -0.201 F 
ATOM      2  C   UNL     1      34.995 -23.798 -15.671  0.00  0.00    +0.173 C 
ATOM      3  C   UNL     1      35.426 -22.127 -17.837  0.00  0.00    +0.054 C 
ATOM      4  C   UNL     1      33.987 -23.627 -16.606  0.00  0.00    +0.176 C 
ATOM      5  C   UNL     1      36.214 -23.152 -15.796  0.00  0.00    +0.041 C 
ATOM      6  C   UNL     1      34.204 -22.784 -17.696  0.00  0.00    +0.047 C 
ATOM      7  C   UNL     1      36.431 -22.310 -16.886  0.00  0.00    +0.018 C 
ENDROOT
BRANCH   3  10
ATOM      8  O   UNL     1      33.585 -19.719 -22.355  0.00  0.00    -0.274 OA
ATOM      9  O   UNL     1      33.581 -21.314 -20.061  0.00  0.00    -0.252 OA
ATOM     10  N   UNL     1      35.642 -21.283 -18.927  0.00  0.00    -0.268 N 
ATOM     11  N   UNL     1      35.353 -20.048 -20.868  0.00  0.00    -0.239 N 
ATOM     12  C   UNL     1      34.741 -19.504 -22.001  0.00  0.00    +0.234 C 
ATOM     13  C   UNL     1      34.741 -20.928 -19.953  0.00  0.00    +0.310 C 
ATOM     14  H   UNL     1      36.539 -20.884 -18.988  0.00  0.00    +0.156 HD
ATOM     15  H   UNL     1      36.288 -19.796 -20.696  0.00  0.00    +0.159 HD
BRANCH  12  16
ATOM     16  C   UNL     1      35.694 -18.599 -22.759  0.00  0.00    +0.112 C 
BRANCH  16  18
ATOM     17  F   UNL     1      33.420 -13.662 -24.190  0.00  0.00    -0.204 F 
ATOM     18  C   UNL     1      35.083 -17.277 -23.142  0.00  0.00    -0.013 C 
ATOM     19  C   UNL     1      35.025 -16.255 -22.205  0.00  0.00    -0.001 C 
ATOM     20  C   UNL     1      34.590 -17.099 -24.427  0.00  0.00    -0.001 C 
ATOM     21  C   UNL     1      34.460 -15.029 -22.560  0.00  0.00    +0.029 C 
ATOM     22  C   UNL     1      34.025 -15.874 -24.782  0.00  0.00    +0.029 C 
ATOM     23  C   UNL     1      33.961 -14.839 -23.849  0.00  0.00    +0.140 C 
ENDBRANCH  16  18
ENDBRANCH  12  16
ENDBRANCH   3  10
BRANCH   2  24
ATOM     24  O   UNL     1      34.780 -24.631 -14.591  0.00  0.00    -0.451 OA
BRANCH  24  28
ATOM     25  N   UNL     1      37.989 -24.566 -11.218  0.00  0.00    -0.297 N 
ATOM     26  N   UNL     1      38.168 -26.388 -12.785  0.00  0.00    -0.229 NA
ATOM     27  C   UNL     1      36.465 -24.626 -12.849  0.00  0.00    +0.067 C 
ATOM     28  C   UNL     1      35.877 -25.187 -13.994  0.00  0.00    +0.150 C 
ATOM     29  C   UNL     1      37.579 -25.271 -12.319  0.00  0.00    +0.135 C 
ATOM     30  C   UNL     1      36.213 -23.497 -12.026  0.00  0.00    +0.022 C 
ATOM     31  C   UNL     1      37.167 -23.486 -11.030  0.00  0.00    +0.063 C 
ATOM     32  C   UNL     1      36.448 -26.346 -14.518  0.00  0.00    +0.058 C 
ATOM     33  C   UNL     1      37.562 -26.884 -13.888  0.00  0.00    +0.103 C 
ATOM     34  H   UNL     1      38.758 -24.800 -10.649  0.00  0.00    +0.154 HD
ENDBRANCH  24  28
ENDBRANCH   2  24
TORSDOF 5
ENDMDL
MODEL 8
REMARK VINA RESULT:     -12.1      4.078     11.194
REMARK  Name = 11560856
REMARK  5 active torsions:
REMARK  status: ('A' for Active; 'I' for Inactive)
REMARK    1  A    between atoms: C_2  and  O_24
REMARK    2  A    between atoms: C_3  and  N_10
REMARK    3  A    between atoms: C_12  and  C_16
REMARK    4  A    between atoms: C_16  and  C_18
REMARK    5  A    between atoms: O_24  and  C_28
REMARK                            x       y       z     vdW  Elec       q    Type
REMARK                         _______ _______ _______ _____ _____    ______ ____
ROOT
ATOM      1  F   UNL     1      32.189 -22.281 -18.701  0.00  0.00    -0.201 F 
ATOM      2  C   UNL     1      34.551 -22.497 -18.718  0.00  0.00    +0.173 C 
ATOM      3  C   UNL     1      34.735 -20.198 -20.250  0.00  0.00    +0.054 C 
ATOM      4  C   UNL     1      33.392 -21.830 -19.079  0.00  0.00    +0.176 C 
ATOM      5  C   UNL     1      35.799 -22.041 -19.105  0.00  0.00    +0.041 C 
ATOM      6  C   UNL     1      33.486 -20.671 -19.850  0.00  0.00    +0.047 C 
ATOM      7  C   UNL     1      35.892 -20.883 -19.877  0.00  0.00    +0.018 C 
ENDROOT
BRANCH   3  10
ATOM      8  O   UNL     1      34.435 -17.734 -25.091  0.00  0.00    -0.274 OA
ATOM      9  O   UNL     1      34.352 -19.788 -23.199  0.00  0.00    -0.252 OA
ATOM     10  N   UNL     1      34.828 -19.038 -21.019  0.00  0.00    -0.268 N 
ATOM     11  N   UNL     1      34.824 -17.550 -22.798  0.00  0.00    -0.239 N 
ATOM     12  C   UNL     1      34.712 -17.060 -24.102  0.00  0.00    +0.234 C 
ATOM     13  C   UNL     1      34.639 -18.891 -22.410  0.00  0.00    +0.310 C 
ATOM     14  H   UNL     1      35.056 -18.216 -20.530  0.00  0.00    +0.156 HD
ATOM     15  H   UNL     1      35.053 -16.903 -22.091  0.00  0.00    +0.159 HD
BRANCH  12  16
ATOM     16  C   UNL     1      34.978 -15.567 -24.154  0.00  0.00    +0.112 C 
BRANCH  16  18
ATOM     17  F   UNL     1      32.042 -12.651 -20.350  0.00  0.00    -0.204 F 
ATOM     18  C   UNL     1      34.192 -14.785 -23.135  0.00  0.00    -0.013 C 
ATOM     19  C   UNL     1      33.153 -13.966 -23.555  0.00  0.00    -0.001 C 
ATOM     20  C   UNL     1      34.517 -14.895 -21.791  0.00  0.00    -0.001 C 
ATOM     21  C   UNL     1      32.425 -13.242 -22.611  0.00  0.00    +0.029 C 
ATOM     22  C   UNL     1      33.789 -14.171 -20.846  0.00  0.00    +0.029 C 
ATOM     23  C   UNL     1      32.742 -13.346 -21.256  0.00  0.00    +0.140 C 
ENDBRANCH  16  18
ENDBRANCH  12  16
ENDBRANCH   3  10
BRANCH   2  24
ATOM     24  O   UNL     1      34.459 -23.644 -17.953  0.00  0.00    -0.451 OA
BRANCH  24  28
ATOM     25  N   UNL     1      32.497 -23.380 -13.739  0.00  0.00    -0.297 N 
ATOM     26  N   UNL     1      34.902 -23.233 -13.774  0.00  0.00    -0.229 NA
ATOM     27  C   UNL     1      33.470 -23.502 -15.746  0.00  0.00    +0.067 C 
ATOM     28  C   UNL     1      34.585 -23.512 -16.599  0.00  0.00    +0.150 C 
ATOM     29  C   UNL     1      33.708 -23.363 -14.381  0.00  0.00    +0.135 C 
ATOM     30  C   UNL     1      32.063 -23.604 -15.910  0.00  0.00    +0.022 C 
ATOM     31  C   UNL     1      31.491 -23.526 -14.657  0.00  0.00    +0.063 C 
ATOM     32  C   UNL     1      35.847 -23.381 -16.022  0.00  0.00    +0.058 C 
ATOM     33  C   UNL     1      35.939 -23.247 -14.642  0.00  0.00    +0.103 C 
ATOM     34  H   UNL     1      32.371 -23.299 -12.766  0.00  0.00    +0.154 HD
ENDBRANCH  24  28
ENDBRANCH   2  24
TORSDOF 5
ENDMDL
MODEL 9
REMARK VINA RESULT:     -11.8      5.545     13.061
REMARK  Name = 11560856
REMARK  5 active torsions:
REMARK  status: ('A' for Active; 'I' for Inactive)
REMARK    1  A    between atoms: C_2  and  O_24
REMARK    2  A    between atoms: C_3  and  N_10
REMARK    3  A    between atoms: C_12  and  C_16
REMARK    4  A    between atoms: C_16  and  C_18
REMARK    5  A    between atoms: O_24  and  C_28
REMARK                            x       y       z     vdW  Elec       q    Type
REMARK                         _______ _______ _______ _____ _____    ______ ____
ROOT
ATOM      1  F   UNL     1      33.321 -24.237 -16.169  0.00  0.00    -0.201 F 
ATOM      2  C   UNL     1      35.481 -23.541 -15.476  0.00  0.00    +0.173 C 
ATOM      3  C   UNL     1      35.721 -22.036 -17.788  0.00  0.00    +0.054 C 
ATOM      4  C   UNL     1      34.438 -23.531 -16.389  0.00  0.00    +0.176 C 
ATOM      5  C   UNL     1      36.640 -22.817 -15.694  0.00  0.00    +0.041 C 
ATOM      6  C   UNL     1      34.560 -22.771 -17.552  0.00  0.00    +0.047 C 
ATOM      7  C   UNL     1      36.761 -22.059 -16.858  0.00  0.00    +0.018 C 
ENDROOT
BRANCH   3  10
ATOM      8  O   UNL     1      33.447 -19.796 -22.194  0.00  0.00    -0.274 OA
ATOM      9  O   UNL     1      33.651 -21.245 -19.814  0.00  0.00    -0.252 OA
ATOM     10  N   UNL     1      35.841 -21.276 -18.951  0.00  0.00    -0.268 N 
ATOM     11  N   UNL     1      35.371 -20.145 -20.921  0.00  0.00    -0.239 N 
ATOM     12  C   UNL     1      34.650 -19.634 -22.003  0.00  0.00    +0.234 C 
ATOM     13  C   UNL     1      34.836 -20.927 -19.879  0.00  0.00    +0.310 C 
ATOM     14  H   UNL     1      36.743 -20.939 -19.152  0.00  0.00    +0.156 HD
ATOM     15  H   UNL     1      36.334 -19.943 -20.885  0.00  0.00    +0.159 HD
BRANCH  12  16
ATOM     16  C   UNL     1      35.545 -18.839 -22.935  0.00  0.00    +0.112 C 
BRANCH  16  18
ATOM     17  F   UNL     1      33.569 -13.705 -24.089  0.00  0.00    -0.204 F 
ATOM     18  C   UNL     1      35.015 -17.463 -23.244  0.00  0.00    -0.013 C 
ATOM     19  C   UNL     1      35.095 -16.468 -22.280  0.00  0.00    -0.001 C 
ATOM     20  C   UNL     1      34.455 -17.212 -24.488  0.00  0.00    -0.001 C 
ATOM     21  C   UNL     1      34.604 -15.194 -22.566  0.00  0.00    +0.029 C 
ATOM     22  C   UNL     1      33.964 -15.937 -24.774  0.00  0.00    +0.029 C 
ATOM     23  C   UNL     1      34.039 -14.929 -23.814  0.00  0.00    +0.140 C 
ENDBRANCH  16  18
ENDBRANCH  12  16
ENDBRANCH   3  10
BRANCH   2  24
ATOM     24  O   UNL     1      35.361 -24.292 -14.323  0.00  0.00    -0.451 OA
BRANCH  24  28
ATOM     25  N   UNL     1      39.544 -25.882 -13.038  0.00  0.00    -0.297 N 
ATOM     26  N   UNL     1      38.581 -24.212 -11.593  0.00  0.00    -0.229 NA
ATOM     27  C   UNL     1      37.537 -25.099 -13.626  0.00  0.00    +0.067 C 
ATOM     28  C   UNL     1      36.411 -24.279 -13.449  0.00  0.00    +0.150 C 
ATOM     29  C   UNL     1      38.552 -25.007 -12.678  0.00  0.00    +0.135 C 
ATOM     30  C   UNL     1      37.950 -26.066 -14.580  0.00  0.00    +0.022 C 
ATOM     31  C   UNL     1      39.189 -26.530 -14.192  0.00  0.00    +0.063 C 
ATOM     32  C   UNL     1      36.389 -23.434 -12.340  0.00  0.00    +0.058 C 
ATOM     33  C   UNL     1      37.472 -23.446 -11.471  0.00  0.00    +0.103 C 
ATOM     34  H   UNL     1      40.384 -26.022 -12.543  0.00  0.00    +0.154 HD
ENDBRANCH  24  28
ENDBRANCH   2  24
TORSDOF 5
ENDMDL
