MODEL 1
REMARK VINA RESULT:     -13.0      0.000      0.000
REMARK  Name = 16750097
REMARK  3 active torsions:
REMARK  status: ('A' for Active; 'I' for Inactive)
REMARK    1  A    between atoms: N_3  and  C_10
REMARK    2  A    between atoms: N_3  and  C_23
REMARK    3  A    between atoms: C_23  and  C_24
REMARK                            x       y       z     vdW  Elec       q    Type
REMARK                         _______ _______ _______ _____ _____    ______ ____
ROOT
ATOM      1  O   UNL     1      33.455 -15.658 -25.914  0.00  0.00    -0.209 OA
ATOM      2  N   UNL     1      34.981 -19.377 -22.531  0.00  0.00    -0.305 N 
ATOM      3  N   UNL     1      35.578 -18.368 -20.644  0.00  0.00    -0.305 N 
ATOM      4  N   UNL     1      34.544 -13.893 -22.488  0.00  0.00    -0.275 N 
ATOM      5  N   UNL     1      33.728 -13.725 -24.717  0.00  0.00    -0.302 NA
ATOM      6  N   UNL     1      34.057 -11.834 -23.373  0.00  0.00    -0.320 N 
ATOM      7  C   UNL     1      34.790 -18.037 -22.755  0.00  0.00    +0.061 C 
ATOM      8  C   UNL     1      35.169 -17.429 -21.563  0.00  0.00    +0.061 C 
ATOM      9  C   UNL     1      35.453 -19.524 -21.256  0.00  0.00    +0.208 C 
ATOM     10  C   UNL     1      34.637 -15.287 -22.550  0.00  0.00    +0.064 C 
ATOM     11  C   UNL     1      34.263 -15.936 -23.736  0.00  0.00    +0.110 C 
ATOM     12  C   UNL     1      34.330 -17.331 -23.869  0.00  0.00    +0.030 C 
ATOM     13  C   UNL     1      35.094 -16.031 -21.450  0.00  0.00    +0.031 C 
ATOM     14  C   UNL     1      33.785 -15.098 -24.873  0.00  0.00    +0.208 C 
ATOM     15  C   UNL     1      34.093 -13.190 -23.581  0.00  0.00    +0.248 C 
ATOM     16  H   UNL     1      34.810 -20.103 -23.172  0.00  0.00    +0.150 HD
ATOM     17  H   UNL     1      35.896 -18.208 -19.726  0.00  0.00    +0.150 HD
ATOM     18  H   UNL     1      34.801 -13.417 -21.666  0.00  0.00    +0.156 HD
ATOM     19  H   UNL     1      34.339 -11.462 -22.506  0.00  0.00    +0.146 HD
ATOM     20  H   UNL     1      33.751 -11.234 -24.091  0.00  0.00    +0.146 HD
ENDROOT
BRANCH   9  21
ATOM     21  N   UNL     1      35.717 -20.771 -20.811  0.00  0.00    -0.263 NA
ATOM     22  H   UNL     1      35.465 -21.528 -21.389  0.00  0.00    +0.127 HD
BRANCH  21  23
ATOM     23  C   UNL     1      36.348 -21.075 -19.539  0.00  0.00    +0.098 C 
BRANCH  23  24
ATOM     24  C   UNL     1      35.400 -21.825 -18.645  0.00  0.00    -0.006 C 
ATOM     25  C   UNL     1      35.797 -22.333 -17.398  0.00  0.00    -0.003 C 
ATOM     26  C   UNL     1      34.855 -23.030 -16.603  0.00  0.00    -0.000 C 
ATOM     27  C   UNL     1      34.093 -22.001 -19.102  0.00  0.00    -0.003 C 
ATOM     28  C   UNL     1      37.107 -22.165 -16.921  0.00  0.00    -0.000 C 
ATOM     29  C   UNL     1      33.545 -23.199 -17.080  0.00  0.00    -0.000 C 
ATOM     30  C   UNL     1      33.168 -22.686 -18.322  0.00  0.00    -0.000 C 
ATOM     31  C   UNL     1      35.252 -23.539 -15.356  0.00  0.00    -0.000 C 
ATOM     32  C   UNL     1      37.484 -22.678 -15.679  0.00  0.00    -0.000 C 
ATOM     33  C   UNL     1      36.558 -23.363 -14.898  0.00  0.00    -0.000 C 
ENDBRANCH  23  24
ENDBRANCH  21  23
ENDBRANCH   9  21
TORSDOF 3
ENDMDL
MODEL 2
REMARK VINA RESULT:     -12.5      3.289      9.400
REMARK  Name = 16750097
REMARK  3 active torsions:
REMARK  status: ('A' for Active; 'I' for Inactive)
REMARK    1  A    between atoms: N_3  and  C_10
REMARK    2  A    between atoms: N_3  and  C_23
REMARK    3  A    between atoms: C_23  and  C_24
REMARK                            x       y       z     vdW  Elec       q    Type
REMARK                         _______ _______ _______ _____ _____    ______ ____
ROOT
ATOM      1  O   UNL     1      32.865 -23.860 -16.717  0.00  0.00    -0.209 OA
ATOM      2  N   UNL     1      33.891 -20.608 -20.714  0.00  0.00    -0.305 N 
ATOM      3  N   UNL     1      36.034 -20.034 -20.584  0.00  0.00    -0.305 N 
ATOM      4  N   UNL     1      36.720 -22.791 -16.531  0.00  0.00    -0.275 N 
ATOM      5  N   UNL     1      34.882 -24.015 -15.644  0.00  0.00    -0.302 NA
ATOM      6  N   UNL     1      37.004 -24.076 -14.653  0.00  0.00    -0.320 N 
ATOM      7  C   UNL     1      34.380 -21.263 -19.612  0.00  0.00    +0.061 C 
ATOM      8  C   UNL     1      35.718 -20.889 -19.553  0.00  0.00    +0.061 C 
ATOM      9  C   UNL     1      34.916 -19.887 -21.260  0.00  0.00    +0.208 C 
ATOM     10  C   UNL     1      35.957 -22.262 -17.577  0.00  0.00    +0.064 C 
ATOM     11  C   UNL     1      34.603 -22.617 -17.671  0.00  0.00    +0.110 C 
ATOM     12  C   UNL     1      33.778 -22.125 -18.693  0.00  0.00    +0.030 C 
ATOM     13  C   UNL     1      36.528 -21.393 -18.521  0.00  0.00    +0.031 C 
ATOM     14  C   UNL     1      34.049 -23.543 -16.642  0.00  0.00    +0.208 C 
ATOM     15  C   UNL     1      36.135 -23.640 -15.621  0.00  0.00    +0.248 C 
ATOM     16  H   UNL     1      32.968 -20.649 -21.052  0.00  0.00    +0.150 HD
ATOM     17  H   UNL     1      36.907 -19.622 -20.774  0.00  0.00    +0.150 HD
ATOM     18  H   UNL     1      37.672 -22.556 -16.446  0.00  0.00    +0.156 HD
ATOM     19  H   UNL     1      37.942 -23.776 -14.663  0.00  0.00    +0.146 HD
ATOM     20  H   UNL     1      36.691 -24.689 -13.949  0.00  0.00    +0.146 HD
ENDROOT
BRANCH   9  21
ATOM     21  N   UNL     1      34.666 -19.153 -22.366  0.00  0.00    -0.263 NA
ATOM     22  H   UNL     1      33.870 -19.384 -22.899  0.00  0.00    +0.127 HD
BRANCH  21  23
ATOM     23  C   UNL     1      35.488 -18.048 -22.825  0.00  0.00    +0.098 C 
BRANCH  23  24
ATOM     24  C   UNL     1      34.953 -16.742 -22.306  0.00  0.00    -0.006 C 
ATOM     25  C   UNL     1      34.371 -15.786 -23.153  0.00  0.00    -0.003 C 
ATOM     26  C   UNL     1      33.886 -14.576 -22.602  0.00  0.00    -0.000 C 
ATOM     27  C   UNL     1      35.057 -16.507 -20.934  0.00  0.00    -0.003 C 
ATOM     28  C   UNL     1      34.258 -16.005 -24.536  0.00  0.00    -0.000 C 
ATOM     29  C   UNL     1      33.999 -14.357 -21.219  0.00  0.00    -0.000 C 
ATOM     30  C   UNL     1      34.581 -15.318 -20.392  0.00  0.00    -0.000 C 
ATOM     31  C   UNL     1      33.303 -13.620 -23.450  0.00  0.00    -0.000 C 
ATOM     32  C   UNL     1      33.677 -15.043 -25.363  0.00  0.00    -0.000 C 
ATOM     33  C   UNL     1      33.199 -13.853 -24.821  0.00  0.00    -0.000 C 
ENDBRANCH  23  24
ENDBRANCH  21  23
ENDBRANCH   9  21
TORSDOF 3
ENDMDL
MODEL 3
REMARK VINA RESULT:     -12.5      0.701      1.956
REMARK  Name = 16750097
REMARK  3 active torsions:
REMARK  status: ('A' for Active; 'I' for Inactive)
REMARK    1  A    between atoms: N_3  and  C_10
REMARK    2  A    between atoms: N_3  and  C_23
REMARK    3  A    between atoms: C_23  and  C_24
REMARK                            x       y       z     vdW  Elec       q    Type
REMARK                         _______ _______ _______ _____ _____    ______ ____
ROOT
ATOM      1  O   UNL     1      33.588 -15.671 -25.942  0.00  0.00    -0.209 OA
ATOM      2  N   UNL     1      35.171 -19.207 -22.393  0.00  0.00    -0.305 N 
ATOM      3  N   UNL     1      35.556 -18.127 -20.490  0.00  0.00    -0.305 N 
ATOM      4  N   UNL     1      34.299 -13.776 -22.486  0.00  0.00    -0.275 N 
ATOM      5  N   UNL     1      33.625 -13.705 -24.768  0.00  0.00    -0.302 NA
ATOM      6  N   UNL     1      33.712 -11.775 -23.442  0.00  0.00    -0.320 N 
ATOM      7  C   UNL     1      34.890 -17.890 -22.656  0.00  0.00    +0.061 C 
ATOM      8  C   UNL     1      35.138 -17.237 -21.452  0.00  0.00    +0.061 C 
ATOM      9  C   UNL     1      35.565 -19.298 -21.087  0.00  0.00    +0.208 C 
ATOM     10  C   UNL     1      34.506 -15.158 -22.515  0.00  0.00    +0.064 C 
ATOM     11  C   UNL     1      34.266 -15.853 -23.710  0.00  0.00    +0.110 C 
ATOM     12  C   UNL     1      34.453 -17.239 -23.811  0.00  0.00    +0.030 C 
ATOM     13  C   UNL     1      34.945 -15.848 -21.372  0.00  0.00    +0.031 C 
ATOM     14  C   UNL     1      33.801 -15.072 -24.893  0.00  0.00    +0.208 C 
ATOM     15  C   UNL     1      33.869 -13.127 -23.621  0.00  0.00    +0.248 C 
ATOM     16  H   UNL     1      35.102 -19.954 -23.030  0.00  0.00    +0.150 HD
ATOM     17  H   UNL     1      35.798 -17.929 -19.556  0.00  0.00    +0.150 HD
ATOM     18  H   UNL     1      34.461 -13.269 -21.659  0.00  0.00    +0.156 HD
ATOM     19  H   UNL     1      33.904 -11.369 -22.566  0.00  0.00    +0.146 HD
ATOM     20  H   UNL     1      33.408 -11.212 -24.190  0.00  0.00    +0.146 HD
ENDROOT
BRANCH   9  21
ATOM     21  N   UNL     1      35.897 -20.513 -20.601  0.00  0.00    -0.263 NA
ATOM     22  H   UNL     1      36.845 -20.776 -20.631  0.00  0.00    +0.127 HD
BRANCH  21  23
ATOM     23  C   UNL     1      34.952 -21.460 -20.035  0.00  0.00    +0.098 C 
BRANCH  23  24
ATOM     24  C   UNL     1      35.399 -21.899 -18.669  0.00  0.00    -0.006 C 
ATOM     25  C   UNL     1      34.511 -22.465 -17.740  0.00  0.00    -0.003 C 
ATOM     26  C   UNL     1      34.994 -22.858 -16.469  0.00  0.00    -0.000 C 
ATOM     27  C   UNL     1      36.746 -21.723 -18.348  0.00  0.00    -0.003 C 
ATOM     28  C   UNL     1      33.152 -22.649 -18.044  0.00  0.00    -0.000 C 
ATOM     29  C   UNL     1      36.353 -22.673 -16.165  0.00  0.00    -0.000 C 
ATOM     30  C   UNL     1      37.222 -22.110 -17.100  0.00  0.00    -0.000 C 
ATOM     31  C   UNL     1      34.106 -23.423 -15.541  0.00  0.00    -0.000 C 
ATOM     32  C   UNL     1      32.283 -23.212 -17.109  0.00  0.00    -0.000 C 
ATOM     33  C   UNL     1      32.759 -23.599 -15.860  0.00  0.00    -0.000 C 
ENDBRANCH  23  24
ENDBRANCH  21  23
ENDBRANCH   9  21
TORSDOF 3
ENDMDL
MODEL 4
REMARK VINA RESULT:     -12.4      3.374      9.363
REMARK  Name = 16750097
REMARK  3 active torsions:
REMARK  status: ('A' for Active; 'I' for Inactive)
REMARK    1  A    between atoms: N_3  and  C_10
REMARK    2  A    between atoms: N_3  and  C_23
REMARK    3  A    between atoms: C_23  and  C_24
REMARK                            x       y       z     vdW  Elec       q    Type
REMARK                         _______ _______ _______ _____ _____    ______ ____
ROOT
ATOM      1  O   UNL     1      36.071 -23.295 -16.358  0.00  0.00    -0.209 OA
ATOM      2  N   UNL     1      36.118 -20.172 -20.584  0.00  0.00    -0.305 N 
ATOM      3  N   UNL     1      34.018 -19.932 -21.268  0.00  0.00    -0.305 N 
ATOM      4  N   UNL     1      32.305 -22.826 -17.637  0.00  0.00    -0.275 N 
ATOM      5  N   UNL     1      33.847 -23.772 -16.092  0.00  0.00    -0.302 NA
ATOM      6  N   UNL     1      31.544 -24.172 -15.944  0.00  0.00    -0.320 N 
ATOM      7  C   UNL     1      35.361 -20.912 -19.711  0.00  0.00    +0.061 C 
ATOM      8  C   UNL     1      34.055 -20.745 -20.159  0.00  0.00    +0.061 C 
ATOM      9  C   UNL     1      35.271 -19.607 -21.496  0.00  0.00    +0.208 C 
ATOM     10  C   UNL     1      33.312 -22.171 -18.353  0.00  0.00    +0.064 C 
ATOM     11  C   UNL     1      34.642 -22.314 -17.931  0.00  0.00    +0.110 C 
ATOM     12  C   UNL     1      35.703 -21.687 -18.601  0.00  0.00    +0.030 C 
ATOM     13  C   UNL     1      33.007 -21.382 -19.474  0.00  0.00    +0.031 C 
ATOM     14  C   UNL     1      34.910 -23.164 -16.735  0.00  0.00    +0.208 C 
ATOM     15  C   UNL     1      32.633 -23.592 -16.543  0.00  0.00    +0.248 C 
ATOM     16  H   UNL     1      37.096 -20.067 -20.559  0.00  0.00    +0.150 HD
ATOM     17  H   UNL     1      33.225 -19.654 -21.781  0.00  0.00    +0.150 HD
ATOM     18  H   UNL     1      31.365 -22.739 -17.915  0.00  0.00    +0.156 HD
ATOM     19  H   UNL     1      30.642 -24.018 -16.308  0.00  0.00    +0.146 HD
ATOM     20  H   UNL     1      31.664 -24.744 -15.151  0.00  0.00    +0.146 HD
ENDROOT
BRANCH   9  21
ATOM     21  N   UNL     1      35.800 -18.827 -22.464  0.00  0.00    -0.263 NA
ATOM     22  H   UNL     1      36.778 -18.835 -22.575  0.00  0.00    +0.127 HD
BRANCH  21  23
ATOM     23  C   UNL     1      35.025 -17.979 -23.352  0.00  0.00    +0.098 C 
BRANCH  23  24
ATOM     24  C   UNL     1      34.748 -16.651 -22.704  0.00  0.00    -0.006 C 
ATOM     25  C   UNL     1      34.246 -15.559 -23.430  0.00  0.00    -0.003 C 
ATOM     26  C   UNL     1      34.006 -14.334 -22.762  0.00  0.00    -0.000 C 
ATOM     27  C   UNL     1      35.010 -16.537 -21.339  0.00  0.00    -0.003 C 
ATOM     28  C   UNL     1      33.977 -15.654 -24.805  0.00  0.00    -0.000 C 
ATOM     29  C   UNL     1      34.276 -14.238 -21.386  0.00  0.00    -0.000 C 
ATOM     30  C   UNL     1      34.774 -15.335 -20.681  0.00  0.00    -0.000 C 
ATOM     31  C   UNL     1      33.505 -13.242 -23.487  0.00  0.00    -0.000 C 
ATOM     32  C   UNL     1      33.479 -14.558 -25.511  0.00  0.00    -0.000 C 
ATOM     33  C   UNL     1      33.243 -13.354 -24.853  0.00  0.00    -0.000 C 
ENDBRANCH  23  24
ENDBRANCH  21  23
ENDBRANCH   9  21
TORSDOF 3
ENDMDL
MODEL 5
REMARK VINA RESULT:     -12.3      2.788      4.985
REMARK  Name = 16750097
REMARK  3 active torsions:
REMARK  status: ('A' for Active; 'I' for Inactive)
REMARK    1  A    between atoms: N_3  and  C_10
REMARK    2  A    between atoms: N_3  and  C_23
REMARK    3  A    between atoms: C_23  and  C_24
REMARK                            x       y       z     vdW  Elec       q    Type
REMARK                         _______ _______ _______ _____ _____    ______ ____
ROOT
ATOM      1  O   UNL     1      31.522 -11.433 -19.504  0.00  0.00    -0.209 OA
ATOM      2  N   UNL     1      34.153 -15.401 -21.726  0.00  0.00    -0.305 N 
ATOM      3  N   UNL     1      34.569 -14.838 -23.835  0.00  0.00    -0.305 N 
ATOM      4  N   UNL     1      32.298 -10.471 -23.313  0.00  0.00    -0.275 N 
ATOM      5  N   UNL     1      31.343  -9.912 -21.206  0.00  0.00    -0.302 NA
ATOM      6  N   UNL     1      31.238  -8.456 -23.039  0.00  0.00    -0.320 N 
ATOM      7  C   UNL     1      33.605 -14.154 -21.887  0.00  0.00    +0.061 C 
ATOM      8  C   UNL     1      33.879 -13.824 -23.211  0.00  0.00    +0.061 C 
ATOM      9  C   UNL     1      34.716 -15.767 -22.917  0.00  0.00    +0.208 C 
ATOM     10  C   UNL     1      32.749 -11.714 -22.861  0.00  0.00    +0.064 C 
ATOM     11  C   UNL     1      32.494 -12.082 -21.531  0.00  0.00    +0.110 C 
ATOM     12  C   UNL     1      32.916 -13.314 -21.009  0.00  0.00    +0.030 C 
ATOM     13  C   UNL     1      33.447 -12.585 -23.714  0.00  0.00    +0.031 C 
ATOM     14  C   UNL     1      31.749 -11.120 -20.669  0.00  0.00    +0.208 C 
ATOM     15  C   UNL     1      31.618  -9.638 -22.455  0.00  0.00    +0.248 C 
ATOM     16  H   UNL     1      34.143 -15.938 -20.901  0.00  0.00    +0.150 HD
ATOM     17  H   UNL     1      34.883 -14.862 -24.767  0.00  0.00    +0.150 HD
ATOM     18  H   UNL     1      32.467 -10.192 -24.242  0.00  0.00    +0.156 HD
ATOM     19  H   UNL     1      31.460  -8.279 -23.981  0.00  0.00    +0.146 HD
ATOM     20  H   UNL     1      30.743  -7.785 -22.515  0.00  0.00    +0.146 HD
ENDROOT
BRANCH   9  21
ATOM     21  N   UNL     1      35.321 -16.972 -22.997  0.00  0.00    -0.263 NA
ATOM     22  H   UNL     1      36.271 -16.992 -23.255  0.00  0.00    +0.127 HD
BRANCH  21  23
ATOM     23  C   UNL     1      34.668 -18.240 -22.726  0.00  0.00    +0.098 C 
BRANCH  23  24
ATOM     24  C   UNL     1      35.442 -19.025 -21.704  0.00  0.00    -0.006 C 
ATOM     25  C   UNL     1      34.823 -19.953 -20.852  0.00  0.00    -0.003 C 
ATOM     26  C   UNL     1      35.608 -20.661 -19.910  0.00  0.00    -0.000 C 
ATOM     27  C   UNL     1      36.817 -18.797 -21.628  0.00  0.00    -0.003 C 
ATOM     28  C   UNL     1      33.441 -20.196 -20.913  0.00  0.00    -0.000 C 
ATOM     29  C   UNL     1      36.991 -20.417 -19.848  0.00  0.00    -0.000 C 
ATOM     30  C   UNL     1      37.589 -19.491 -20.703  0.00  0.00    -0.000 C 
ATOM     31  C   UNL     1      34.989 -21.589 -19.059  0.00  0.00    -0.000 C 
ATOM     32  C   UNL     1      32.842 -21.122 -20.059  0.00  0.00    -0.000 C 
ATOM     33  C   UNL     1      33.615 -21.818 -19.133  0.00  0.00    -0.000 C 
ENDBRANCH  23  24
ENDBRANCH  21  23
ENDBRANCH   9  21
TORSDOF 3
ENDMDL
MODEL 6
REMARK VINA RESULT:     -12.3      3.239      9.026
REMARK  Name = 16750097
REMARK  3 active torsions:
REMARK  status: ('A' for Active; 'I' for Inactive)
REMARK    1  A    between atoms: N_3  and  C_10
REMARK    2  A    between atoms: N_3  and  C_23
REMARK    3  A    between atoms: C_23  and  C_24
REMARK                            x       y       z     vdW  Elec       q    Type
REMARK                         _______ _______ _______ _____ _____    ______ ____
ROOT
ATOM      1  O   UNL     1      36.474 -22.859 -16.937  0.00  0.00    -0.209 OA
ATOM      2  N   UNL     1      35.823 -19.841 -21.188  0.00  0.00    -0.305 N 
ATOM      3  N   UNL     1      33.653 -19.801 -21.661  0.00  0.00    -0.305 N 
ATOM      4  N   UNL     1      32.573 -22.751 -17.836  0.00  0.00    -0.275 N 
ATOM      5  N   UNL     1      34.340 -23.524 -16.442  0.00  0.00    -0.302 NA
ATOM      6  N   UNL     1      32.107 -24.120 -16.057  0.00  0.00    -0.320 N 
ATOM      7  C   UNL     1      35.226 -20.624 -20.234  0.00  0.00    +0.061 C 
ATOM      8  C   UNL     1      33.871 -20.582 -20.550  0.00  0.00    +0.061 C 
ATOM      9  C   UNL     1      34.843 -19.372 -22.018  0.00  0.00    +0.208 C 
ATOM     10  C   UNL     1      33.442 -22.027 -18.659  0.00  0.00    +0.064 C 
ATOM     11  C   UNL     1      34.815 -22.044 -18.371  0.00  0.00    +0.110 C 
ATOM     12  C   UNL     1      35.744 -21.341 -19.153  0.00  0.00    +0.030 C 
ATOM     13  C   UNL     1      32.957 -21.293 -19.754  0.00  0.00    +0.031 C 
ATOM     14  C   UNL     1      35.275 -22.839 -17.197  0.00  0.00    +0.208 C 
ATOM     15  C   UNL     1      33.076 -23.461 -16.770  0.00  0.00    +0.248 C 
ATOM     16  H   UNL     1      36.785 -19.650 -21.264  0.00  0.00    +0.150 HD
ATOM     17  H   UNL     1      32.791 -19.605 -22.095  0.00  0.00    +0.150 HD
ATOM     18  H   UNL     1      31.606 -22.753 -18.019  0.00  0.00    +0.156 HD
ATOM     19  H   UNL     1      31.164 -24.053 -16.330  0.00  0.00    +0.146 HD
ATOM     20  H   UNL     1      32.356 -24.661 -15.272  0.00  0.00    +0.146 HD
ENDROOT
BRANCH   9  21
ATOM     21  N   UNL     1      35.201 -18.572 -23.045  0.00  0.00    -0.263 NA
ATOM     22  H   UNL     1      35.059 -18.908 -23.960  0.00  0.00    +0.127 HD
BRANCH  21  23
ATOM     23  C   UNL     1      35.780 -17.248 -22.895  0.00  0.00    +0.098 C 
BRANCH  23  24
ATOM     24  C   UNL     1      34.820 -16.195 -23.374  0.00  0.00    -0.006 C 
ATOM     25  C   UNL     1      34.219 -15.280 -22.495  0.00  0.00    -0.003 C 
ATOM     26  C   UNL     1      33.323 -14.312 -23.009  0.00  0.00    -0.000 C 
ATOM     27  C   UNL     1      34.541 -16.157 -24.741  0.00  0.00    -0.003 C 
ATOM     28  C   UNL     1      34.486 -15.304 -21.117  0.00  0.00    -0.000 C 
ATOM     29  C   UNL     1      33.054 -14.289 -24.388  0.00  0.00    -0.000 C 
ATOM     30  C   UNL     1      33.661 -15.206 -25.247  0.00  0.00    -0.000 C 
ATOM     31  C   UNL     1      32.722 -13.397 -22.131  0.00  0.00    -0.000 C 
ATOM     32  C   UNL     1      33.879 -14.387 -20.258  0.00  0.00    -0.000 C 
ATOM     33  C   UNL     1      32.999 -13.435 -20.764  0.00  0.00    -0.000 C 
ENDBRANCH  23  24
ENDBRANCH  21  23
ENDBRANCH   9  21
TORSDOF 3
ENDMDL
MODEL 7
REMARK VINA RESULT:     -12.2      3.797      9.642
REMARK  Name = 16750097
REMARK  3 active torsions:
REMARK  status: ('A' for Active; 'I' for Inactive)
REMARK    1  A    between atoms: N_3  and  C_10
REMARK    2  A    between atoms: N_3  and  C_23
REMARK    3  A    between atoms: C_23  and  C_24
REMARK                            x       y       z     vdW  Elec       q    Type
REMARK                         _______ _______ _______ _____ _____    ______ ____
ROOT
ATOM      1  O   UNL     1      37.923 -23.145 -15.139  0.00  0.00    -0.209 OA
ATOM      2  N   UNL     1      36.182 -20.769 -19.489  0.00  0.00    -0.305 N 
ATOM      3  N   UNL     1      34.049 -21.330 -19.756  0.00  0.00    -0.305 N 
ATOM      4  N   UNL     1      34.076 -24.122 -15.670  0.00  0.00    -0.275 N 
ATOM      5  N   UNL     1      36.083 -24.293 -14.403  0.00  0.00    -0.302 NA
ATOM      6  N   UNL     1      34.123 -25.410 -13.772  0.00  0.00    -0.320 N 
ATOM      7  C   UNL     1      35.885 -21.596 -18.435  0.00  0.00    +0.061 C 
ATOM      8  C   UNL     1      34.549 -21.931 -18.624  0.00  0.00    +0.061 C 
ATOM      9  C   UNL     1      35.053 -20.641 -20.250  0.00  0.00    +0.208 C 
ATOM     10  C   UNL     1      34.659 -23.272 -16.614  0.00  0.00    +0.064 C 
ATOM     11  C   UNL     1      36.005 -22.910 -16.457  0.00  0.00    +0.110 C 
ATOM     12  C   UNL     1      36.654 -22.061 -17.366  0.00  0.00    +0.030 C 
ATOM     13  C   UNL     1      33.917 -22.783 -17.703  0.00  0.00    +0.031 C 
ATOM     14  C   UNL     1      36.745 -23.457 -15.284  0.00  0.00    +0.208 C 
ATOM     15  C   UNL     1      34.827 -24.585 -14.614  0.00  0.00    +0.248 C 
ATOM     16  H   UNL     1      37.051 -20.344 -19.667  0.00  0.00    +0.150 HD
ATOM     17  H   UNL     1      33.136 -21.401 -20.118  0.00  0.00    +0.150 HD
ATOM     18  H   UNL     1      33.133 -24.389 -15.760  0.00  0.00    +0.156 HD
ATOM     19  H   UNL     1      33.177 -25.611 -13.959  0.00  0.00    +0.146 HD
ATOM     20  H   UNL     1      34.563 -25.799 -12.983  0.00  0.00    +0.146 HD
ENDROOT
BRANCH   9  21
ATOM     21  N   UNL     1      35.109 -19.866 -21.354  0.00  0.00    -0.263 NA
ATOM     22  H   UNL     1      34.640 -20.182 -22.161  0.00  0.00    +0.127 HD
BRANCH  21  23
ATOM     23  C   UNL     1      35.812 -18.598 -21.435  0.00  0.00    +0.098 C 
BRANCH  23  24
ATOM     24  C   UNL     1      35.185 -17.713 -22.478  0.00  0.00    -0.006 C 
ATOM     25  C   UNL     1      34.755 -16.409 -22.187  0.00  0.00    -0.003 C 
ATOM     26  C   UNL     1      34.173 -15.627 -23.213  0.00  0.00    -0.000 C 
ATOM     27  C   UNL     1      35.044 -18.239 -23.762  0.00  0.00    -0.003 C 
ATOM     28  C   UNL     1      34.889 -15.863 -20.900  0.00  0.00    -0.000 C 
ATOM     29  C   UNL     1      34.038 -16.173 -24.500  0.00  0.00    -0.000 C 
ATOM     30  C   UNL     1      34.472 -17.471 -24.771  0.00  0.00    -0.000 C 
ATOM     31  C   UNL     1      33.742 -14.323 -22.922  0.00  0.00    -0.000 C 
ATOM     32  C   UNL     1      34.455 -14.565 -20.629  0.00  0.00    -0.000 C 
ATOM     33  C   UNL     1      33.883 -13.796 -21.638  0.00  0.00    -0.000 C 
ENDBRANCH  23  24
ENDBRANCH  21  23
ENDBRANCH   9  21
TORSDOF 3
ENDMDL
MODEL 8
REMARK VINA RESULT:     -12.1      3.395      5.847
REMARK  Name = 16750097
REMARK  3 active torsions:
REMARK  status: ('A' for Active; 'I' for Inactive)
REMARK    1  A    between atoms: N_3  and  C_10
REMARK    2  A    between atoms: N_3  and  C_23
REMARK    3  A    between atoms: C_23  and  C_24
REMARK                            x       y       z     vdW  Elec       q    Type
REMARK                         _______ _______ _______ _____ _____    ______ ____
ROOT
ATOM      1  O   UNL     1      37.947 -19.049 -20.999  0.00  0.00    -0.209 OA
ATOM      2  N   UNL     1      35.201 -22.328 -17.947  0.00  0.00    -0.305 N 
ATOM      3  N   UNL     1      33.111 -22.358 -18.699  0.00  0.00    -0.305 N 
ATOM      4  N   UNL     1      34.164 -19.144 -22.311  0.00  0.00    -0.275 N 
ATOM      5  N   UNL     1      36.386 -18.314 -22.505  0.00  0.00    -0.302 NA
ATOM      6  N   UNL     1      34.685 -17.652 -23.974  0.00  0.00    -0.320 N 
ATOM      7  C   UNL     1      35.185 -21.473 -19.019  0.00  0.00    +0.061 C 
ATOM      8  C   UNL     1      33.870 -21.510 -19.471  0.00  0.00    +0.061 C 
ATOM      9  C   UNL     1      33.939 -22.831 -17.795  0.00  0.00    +0.208 C 
ATOM     10  C   UNL     1      34.479 -19.936 -21.204  0.00  0.00    +0.064 C 
ATOM     11  C   UNL     1      35.796 -19.926 -20.719  0.00  0.00    +0.110 C 
ATOM     12  C   UNL     1      36.182 -20.696 -19.611  0.00  0.00    +0.030 C 
ATOM     13  C   UNL     1      33.502 -20.732 -20.582  0.00  0.00    +0.031 C 
ATOM     14  C   UNL     1      36.792 -19.064 -21.416  0.00  0.00    +0.208 C 
ATOM     15  C   UNL     1      35.141 -18.375 -22.901  0.00  0.00    +0.248 C 
ATOM     16  H   UNL     1      35.981 -22.541 -17.386  0.00  0.00    +0.150 HD
ATOM     17  H   UNL     1      32.154 -22.566 -18.801  0.00  0.00    +0.150 HD
ATOM     18  H   UNL     1      33.247 -19.136 -22.669  0.00  0.00    +0.156 HD
ATOM     19  H   UNL     1      33.741 -17.719 -24.247  0.00  0.00    +0.146 HD
ATOM     20  H   UNL     1      35.301 -17.065 -24.470  0.00  0.00    +0.146 HD
ENDROOT
BRANCH   9  21
ATOM     21  N   UNL     1      33.714 -23.704 -16.789  0.00  0.00    -0.263 NA
ATOM     22  H   UNL     1      33.611 -24.655 -17.022  0.00  0.00    +0.127 HD
BRANCH  21  23
ATOM     23  C   UNL     1      33.615 -23.338 -15.387  0.00  0.00    +0.098 C 
BRANCH  23  24
ATOM     24  C   UNL     1      32.486 -24.080 -14.727  0.00  0.00    -0.006 C 
ATOM     25  C   UNL     1      31.151 -23.913 -15.127  0.00  0.00    -0.003 C 
ATOM     26  C   UNL     1      30.133 -24.641 -14.465  0.00  0.00    -0.000 C 
ATOM     27  C   UNL     1      32.814 -24.952 -13.689  0.00  0.00    -0.003 C 
ATOM     28  C   UNL     1      30.801 -23.039 -16.170  0.00  0.00    -0.000 C 
ATOM     29  C   UNL     1      30.482 -25.514 -13.421  0.00  0.00    -0.000 C 
ATOM     30  C   UNL     1      31.815 -25.668 -13.038  0.00  0.00    -0.000 C 
ATOM     31  C   UNL     1      28.798 -24.474 -14.864  0.00  0.00    -0.000 C 
ATOM     32  C   UNL     1      29.468 -22.885 -16.553  0.00  0.00    -0.000 C 
ATOM     33  C   UNL     1      28.469 -23.602 -15.902  0.00  0.00    -0.000 C 
ENDBRANCH  23  24
ENDBRANCH  21  23
ENDBRANCH   9  21
TORSDOF 3
ENDMDL
MODEL 9
REMARK VINA RESULT:     -12.0      4.485     10.409
REMARK  Name = 16750097
REMARK  3 active torsions:
REMARK  status: ('A' for Active; 'I' for Inactive)
REMARK    1  A    between atoms: N_3  and  C_10
REMARK    2  A    between atoms: N_3  and  C_23
REMARK    3  A    between atoms: C_23  and  C_24
REMARK                            x       y       z     vdW  Elec       q    Type
REMARK                         _______ _______ _______ _____ _____    ______ ____
ROOT
ATOM      1  O   UNL     1      35.779 -18.116 -20.706  0.00  0.00    -0.209 OA
ATOM      2  N   UNL     1      34.355 -13.352 -22.405  0.00  0.00    -0.305 N 
ATOM      3  N   UNL     1      33.596 -13.575 -24.481  0.00  0.00    -0.305 N 
ATOM      4  N   UNL     1      34.400 -18.458 -24.450  0.00  0.00    -0.275 N 
ATOM      5  N   UNL     1      35.312 -19.465 -22.497  0.00  0.00    -0.302 NA
ATOM      6  N   UNL     1      34.786 -20.719 -24.404  0.00  0.00    -0.320 N 
ATOM      7  C   UNL     1      34.463 -14.688 -22.692  0.00  0.00    +0.061 C 
ATOM      8  C   UNL     1      33.982 -14.802 -23.993  0.00  0.00    +0.061 C 
ATOM      9  C   UNL     1      33.834 -12.728 -23.504  0.00  0.00    +0.208 C 
ATOM     10  C   UNL     1      34.410 -17.180 -23.885  0.00  0.00    +0.064 C 
ATOM     11  C   UNL     1      34.886 -17.025 -22.574  0.00  0.00    +0.110 C 
ATOM     12  C   UNL     1      34.925 -15.772 -21.944  0.00  0.00    +0.030 C 
ATOM     13  C   UNL     1      33.951 -16.066 -24.607  0.00  0.00    +0.031 C 
ATOM     14  C   UNL     1      35.361 -18.241 -21.853  0.00  0.00    +0.208 C 
ATOM     15  C   UNL     1      34.855 -19.532 -23.719  0.00  0.00    +0.248 C 
ATOM     16  H   UNL     1      34.609 -12.917 -21.559  0.00  0.00    +0.150 HD
ATOM     17  H   UNL     1      33.224 -13.374 -25.370  0.00  0.00    +0.150 HD
ATOM     18  H   UNL     1      34.070 -18.590 -25.368  0.00  0.00    +0.156 HD
ATOM     19  H   UNL     1      34.436 -20.736 -25.324  0.00  0.00    +0.146 HD
ATOM     20  H   UNL     1      35.087 -21.552 -23.976  0.00  0.00    +0.146 HD
ENDROOT
BRANCH   9  21
ATOM     21  N   UNL     1      33.639 -11.393 -23.451  0.00  0.00    -0.263 NA
ATOM     22  H   UNL     1      34.431 -10.811 -23.511  0.00  0.00    +0.127 HD
BRANCH  21  23
ATOM     23  C   UNL     1      32.341 -10.755 -23.314  0.00  0.00    +0.098 C 
BRANCH  23  24
ATOM     24  C   UNL     1      32.138 -10.271 -21.905  0.00  0.00    -0.006 C 
ATOM     25  C   UNL     1      32.390  -8.942 -21.531  0.00  0.00    -0.003 C 
ATOM     26  C   UNL     1      32.179  -8.548 -20.187  0.00  0.00    -0.000 C 
ATOM     27  C   UNL     1      31.685 -11.200 -20.968  0.00  0.00    -0.003 C 
ATOM     28  C   UNL     1      32.847  -7.993 -22.460  0.00  0.00    -0.000 C 
ATOM     29  C   UNL     1      31.723  -9.497 -19.258  0.00  0.00    -0.000 C 
ATOM     30  C   UNL     1      31.477 -10.814 -19.647  0.00  0.00    -0.000 C 
ATOM     31  C   UNL     1      32.432  -7.219 -19.813  0.00  0.00    -0.000 C 
ATOM     32  C   UNL     1      33.093  -6.675 -22.070  0.00  0.00    -0.000 C 
ATOM     33  C   UNL     1      32.885  -6.289 -20.749  0.00  0.00    -0.000 C 
ENDBRANCH  23  24
ENDBRANCH  21  23
ENDBRANCH   9  21
TORSDOF 3
ENDMDL
