MODEL 1
REMARK VINA RESULT:     -11.3      0.000      0.000
REMARK  Name = 1150567
REMARK  6 active torsions:
REMARK  status: ('A' for Active; 'I' for Inactive)
REMARK    1  A    between atoms: C_1  and  C_3
REMARK    2  A    between atoms: C_1  and  C_17
REMARK    3  A    between atoms: C_10  and  O_12
REMARK    4  A    between atoms: C_11  and  O_14
REMARK    5  A    between atoms: N_16  and  C_23
REMARK    6  A    between atoms: C_23  and  C_24
REMARK                            x       y       z     vdW  Elec       q    Type
REMARK                         _______ _______ _______ _____ _____    ______ ____
ROOT
ATOM      1  C   UNL     1      34.952 -20.209 -22.170  0.00  0.00    +0.008 C 
ENDROOT
BRANCH   1   3
ATOM      2  O   UNL     1      32.378 -20.590 -20.636  0.00  0.00    -0.291 OA
ATOM      3  C   UNL     1      34.761 -20.030 -20.676  0.00  0.00    +0.066 C 
ATOM      4  C   UNL     1      35.908 -20.660 -19.851  0.00  0.00    +0.034 C 
ATOM      5  C   UNL     1      33.504 -20.732 -20.194  0.00  0.00    +0.173 C 
ATOM      6  C   UNL     1      35.211 -21.568 -18.890  0.00  0.00    -0.016 C 
ATOM      7  C   UNL     1      33.838 -21.620 -19.091  0.00  0.00    +0.034 C 
ATOM      8  C   UNL     1      35.786 -22.331 -17.886  0.00  0.00    +0.036 C 
ATOM      9  C   UNL     1      32.993 -22.405 -18.330  0.00  0.00    +0.043 C 
ATOM     10  C   UNL     1      34.958 -23.135 -17.097  0.00  0.00    +0.172 C 
ATOM     11  C   UNL     1      33.571 -23.172 -17.318  0.00  0.00    +0.172 C 
BRANCH  10  12
ATOM     12  O   UNL     1      35.514 -23.890 -16.107  0.00  0.00    -0.468 OA
ATOM     13  C   UNL     1      36.576 -23.298 -15.362  0.00  0.00    +0.253 C 
ENDBRANCH  10  12
BRANCH  11  14
ATOM     14  O   UNL     1      32.774 -23.963 -16.543  0.00  0.00    -0.468 OA
ATOM     15  C   UNL     1      31.616 -23.355 -15.976  0.00  0.00    +0.253 C 
ENDBRANCH  11  14
ENDBRANCH   1   3
BRANCH   1  17
ATOM     16  N   UNL     1      34.285 -16.164 -23.531  0.00  0.00    +0.390 N 
ATOM     17  C   UNL     1      35.191 -18.872 -22.865  0.00  0.00    -0.004 C 
ATOM     18  C   UNL     1      34.117 -18.601 -23.924  0.00  0.00    -0.023 C 
ATOM     19  C   UNL     1      35.221 -17.722 -21.853  0.00  0.00    -0.023 C 
ATOM     20  C   UNL     1      34.293 -17.217 -24.554  0.00  0.00    -0.077 C 
ATOM     21  C   UNL     1      35.361 -16.368 -22.551  0.00  0.00    -0.077 C 
ATOM     22  H   UNL     1      33.395 -16.213 -23.036  0.00  0.00    -0.079 HD
BRANCH  16  23
ATOM     23  C   UNL     1      34.402 -14.845 -24.152  0.00  0.00    -0.050 C 
BRANCH  23  24
ATOM     24  C   UNL     1      33.634 -13.797 -23.392  0.00  0.00    -0.043 C 
ATOM     25  C   UNL     1      33.583 -12.499 -23.883  0.00  0.00    -0.006 C 
ATOM     26  C   UNL     1      32.990 -14.141 -22.213  0.00  0.00    -0.006 C 
ATOM     27  C   UNL     1      32.872 -11.526 -23.180  0.00  0.00    -0.000 C 
ATOM     28  C   UNL     1      32.278 -13.167 -21.509  0.00  0.00    -0.000 C 
ATOM     29  C   UNL     1      32.220 -11.860 -21.994  0.00  0.00    -0.000 C 
ENDBRANCH  23  24
ENDBRANCH  16  23
ENDBRANCH   1  17
TORSDOF 6
ENDMDL
MODEL 2
REMARK VINA RESULT:     -11.0      1.943      3.603
REMARK  Name = 1150567
REMARK  6 active torsions:
REMARK  status: ('A' for Active; 'I' for Inactive)
REMARK    1  A    between atoms: C_1  and  C_3
REMARK    2  A    between atoms: C_1  and  C_17
REMARK    3  A    between atoms: C_10  and  O_12
REMARK    4  A    between atoms: C_11  and  O_14
REMARK    5  A    between atoms: N_16  and  C_23
REMARK    6  A    between atoms: C_23  and  C_24
REMARK                            x       y       z     vdW  Elec       q    Type
REMARK                         _______ _______ _______ _____ _____    ______ ____
ROOT
ATOM      1  C   UNL     1      36.520 -20.673 -18.976  0.00  0.00    +0.008 C 
ENDROOT
BRANCH   1   3
ATOM      2  O   UNL     1      37.347 -22.263 -16.544  0.00  0.00    -0.291 OA
ATOM      3  C   UNL     1      36.069 -22.077 -18.624  0.00  0.00    +0.066 C 
ATOM      4  C   UNL     1      34.552 -22.286 -18.840  0.00  0.00    +0.034 C 
ATOM      5  C   UNL     1      36.298 -22.378 -17.154  0.00  0.00    +0.173 C 
ATOM      6  C   UNL     1      34.063 -22.802 -17.524  0.00  0.00    -0.016 C 
ATOM      7  C   UNL     1      35.058 -22.845 -16.556  0.00  0.00    +0.034 C 
ATOM      8  C   UNL     1      32.775 -23.201 -17.203  0.00  0.00    +0.036 C 
ATOM      9  C   UNL     1      34.831 -23.274 -15.261  0.00  0.00    +0.043 C 
ATOM     10  C   UNL     1      32.515 -23.642 -15.902  0.00  0.00    +0.172 C 
ATOM     11  C   UNL     1      33.536 -23.677 -14.938  0.00  0.00    +0.172 C 
BRANCH  10  12
ATOM     12  O   UNL     1      31.251 -24.036 -15.576  0.00  0.00    -0.468 OA
ATOM     13  C   UNL     1      30.177 -23.240 -16.072  0.00  0.00    +0.253 C 
ENDBRANCH  10  12
BRANCH  11  14
ATOM     14  O   UNL     1      33.268 -24.107 -13.671  0.00  0.00    -0.468 OA
ATOM     15  C   UNL     1      34.374 -24.566 -12.897  0.00  0.00    +0.253 C 
ENDBRANCH  11  14
ENDBRANCH   1   3
BRANCH   1  17
ATOM     16  N   UNL     1      35.168 -18.423 -22.405  0.00  0.00    +0.390 N 
ATOM     17  C   UNL     1      36.191 -20.327 -20.424  0.00  0.00    -0.004 C 
ATOM     18  C   UNL     1      34.696 -20.044 -20.598  0.00  0.00    -0.023 C 
ATOM     19  C   UNL     1      37.005 -19.119 -20.901  0.00  0.00    -0.023 C 
ATOM     20  C   UNL     1      34.375 -19.599 -22.026  0.00  0.00    -0.077 C 
ATOM     21  C   UNL     1      36.608 -18.704 -22.319  0.00  0.00    -0.077 C 
ATOM     22  H   UNL     1      34.954 -17.673 -21.748  0.00  0.00    -0.079 HD
BRANCH  16  23
ATOM     23  C   UNL     1      34.814 -17.978 -23.753  0.00  0.00    -0.050 C 
BRANCH  23  24
ATOM     24  C   UNL     1      34.440 -16.520 -23.783  0.00  0.00    -0.043 C 
ATOM     25  C   UNL     1      34.828 -15.695 -22.736  0.00  0.00    -0.006 C 
ATOM     26  C   UNL     1      33.713 -16.022 -24.855  0.00  0.00    -0.006 C 
ATOM     27  C   UNL     1      34.482 -14.343 -22.763  0.00  0.00    -0.000 C 
ATOM     28  C   UNL     1      33.367 -14.670 -24.881  0.00  0.00    -0.000 C 
ATOM     29  C   UNL     1      33.753 -13.831 -23.835  0.00  0.00    -0.000 C 
ENDBRANCH  23  24
ENDBRANCH  16  23
ENDBRANCH   1  17
TORSDOF 6
ENDMDL
MODEL 3
REMARK VINA RESULT:     -10.9      4.342      9.823
REMARK  Name = 1150567
REMARK  6 active torsions:
REMARK  status: ('A' for Active; 'I' for Inactive)
REMARK    1  A    between atoms: C_1  and  C_3
REMARK    2  A    between atoms: C_1  and  C_17
REMARK    3  A    between atoms: C_10  and  O_12
REMARK    4  A    between atoms: C_11  and  O_14
REMARK    5  A    between atoms: N_16  and  C_23
REMARK    6  A    between atoms: C_23  and  C_24
REMARK                            x       y       z     vdW  Elec       q    Type
REMARK                         _______ _______ _______ _____ _____    ______ ____
ROOT
ATOM      1  C   UNL     1      34.159 -15.586 -23.660  0.00  0.00    +0.008 C 
ENDROOT
BRANCH   1   3
ATOM      2  O   UNL     1      34.334 -12.760 -24.712  0.00  0.00    -0.291 OA
ATOM      3  C   UNL     1      34.400 -14.334 -22.838  0.00  0.00    +0.066 C 
ATOM      4  C   UNL     1      33.568 -14.309 -21.535  0.00  0.00    +0.034 C 
ATOM      5  C   UNL     1      33.975 -13.088 -23.595  0.00  0.00    +0.173 C 
ATOM      6  C   UNL     1      32.837 -13.006 -21.593  0.00  0.00    -0.016 C 
ATOM      7  C   UNL     1      33.060 -12.311 -22.775  0.00  0.00    +0.034 C 
ATOM      8  C   UNL     1      31.992 -12.472 -20.633  0.00  0.00    +0.036 C 
ATOM      9  C   UNL     1      32.475 -11.090 -23.054  0.00  0.00    +0.043 C 
ATOM     10  C   UNL     1      31.386 -11.237 -20.884  0.00  0.00    +0.172 C 
ATOM     11  C   UNL     1      31.626 -10.551 -22.087  0.00  0.00    +0.172 C 
BRANCH  10  12
ATOM     12  O   UNL     1      30.553 -10.703 -19.946  0.00  0.00    -0.468 OA
ATOM     13  C   UNL     1      31.163 -10.125 -18.794  0.00  0.00    +0.253 C 
ENDBRANCH  10  12
BRANCH  11  14
ATOM     14  O   UNL     1      31.027  -9.349 -22.321  0.00  0.00    -0.468 OA
ATOM     15  C   UNL     1      31.841  -8.185 -22.191  0.00  0.00    +0.253 C 
ENDBRANCH  11  14
ENDBRANCH   1   3
BRANCH   1  17
ATOM     16  N   UNL     1      35.093 -19.218 -21.518  0.00  0.00    +0.390 N 
ATOM     17  C   UNL     1      34.960 -16.768 -23.123  0.00  0.00    -0.004 C 
ATOM     18  C   UNL     1      35.014 -16.747 -21.592  0.00  0.00    -0.023 C 
ATOM     19  C   UNL     1      34.367 -18.097 -23.601  0.00  0.00    -0.023 C 
ATOM     20  C   UNL     1      35.729 -17.983 -21.043  0.00  0.00    -0.077 C 
ATOM     21  C   UNL     1      35.103 -19.290 -22.986  0.00  0.00    -0.077 C 
ATOM     22  H   UNL     1      34.121 -19.210 -21.210  0.00  0.00    -0.079 HD
BRANCH  16  23
ATOM     23  C   UNL     1      35.754 -20.389 -20.944  0.00  0.00    -0.050 C 
BRANCH  23  24
ATOM     24  C   UNL     1      34.860 -21.124 -19.981  0.00  0.00    -0.043 C 
ATOM     25  C   UNL     1      33.498 -20.858 -19.977  0.00  0.00    -0.006 C 
ATOM     26  C   UNL     1      35.410 -22.055 -19.112  0.00  0.00    -0.006 C 
ATOM     27  C   UNL     1      32.668 -21.537 -19.084  0.00  0.00    -0.000 C 
ATOM     28  C   UNL     1      34.579 -22.735 -18.219  0.00  0.00    -0.000 C 
ATOM     29  C   UNL     1      33.209 -22.476 -18.206  0.00  0.00    -0.000 C 
ENDBRANCH  23  24
ENDBRANCH  16  23
ENDBRANCH   1  17
TORSDOF 6
ENDMDL
MODEL 4
REMARK VINA RESULT:     -10.6      2.171      3.839
REMARK  Name = 1150567
REMARK  6 active torsions:
REMARK  status: ('A' for Active; 'I' for Inactive)
REMARK    1  A    between atoms: C_1  and  C_3
REMARK    2  A    between atoms: C_1  and  C_17
REMARK    3  A    between atoms: C_10  and  O_12
REMARK    4  A    between atoms: C_11  and  O_14
REMARK    5  A    between atoms: N_16  and  C_23
REMARK    6  A    between atoms: C_23  and  C_24
REMARK                            x       y       z     vdW  Elec       q    Type
REMARK                         _______ _______ _______ _____ _____    ______ ____
ROOT
ATOM      1  C   UNL     1      34.495 -22.875 -19.175  0.00  0.00    +0.008 C 
ENDROOT
BRANCH   1   3
ATOM      2  O   UNL     1      31.913 -22.721 -17.615  0.00  0.00    -0.291 OA
ATOM      3  C   UNL     1      34.320 -22.308 -17.779  0.00  0.00    +0.066 C 
ATOM      4  C   UNL     1      35.438 -22.759 -16.810  0.00  0.00    +0.034 C 
ATOM      5  C   UNL     1      33.032 -22.800 -17.142  0.00  0.00    +0.173 C 
ATOM      6  C   UNL     1      34.702 -23.353 -15.653  0.00  0.00    -0.016 C 
ATOM      7  C   UNL     1      33.327 -23.388 -15.845  0.00  0.00    +0.034 C 
ATOM      8  C   UNL     1      35.244 -23.859 -14.482  0.00  0.00    +0.036 C 
ATOM      9  C   UNL     1      32.448 -23.909 -14.914  0.00  0.00    +0.043 C 
ATOM     10  C   UNL     1      34.380 -24.391 -13.519  0.00  0.00    +0.172 C 
ATOM     11  C   UNL     1      32.993 -24.416 -13.734  0.00  0.00    +0.172 C 
BRANCH  10  12
ATOM     12  O   UNL     1      34.904 -24.891 -12.363  0.00  0.00    -0.468 OA
ATOM     13  C   UNL     1      35.611 -23.979 -11.525  0.00  0.00    +0.253 C 
ENDBRANCH  10  12
BRANCH  11  14
ATOM     14  O   UNL     1      32.162 -24.940 -12.788  0.00  0.00    -0.468 OA
ATOM     15  C   UNL     1      30.782 -25.049 -13.129  0.00  0.00    +0.253 C 
ENDBRANCH  11  14
ENDBRANCH   1   3
BRANCH   1  17
ATOM     16  N   UNL     1      35.667 -19.034 -20.765  0.00  0.00    +0.390 N 
ATOM     17  C   UNL     1      35.064 -21.833 -20.132  0.00  0.00    -0.004 C 
ATOM     18  C   UNL     1      33.985 -20.837 -20.569  0.00  0.00    -0.023 C 
ATOM     19  C   UNL     1      36.235 -21.078 -19.493  0.00  0.00    -0.023 C 
ATOM     20  C   UNL     1      34.570 -19.730 -21.449  0.00  0.00    -0.077 C 
ATOM     21  C   UNL     1      36.747 -19.964 -20.409  0.00  0.00    -0.077 C 
ATOM     22  H   UNL     1      35.297 -18.636 -19.901  0.00  0.00    -0.079 HD
BRANCH  16  23
ATOM     23  C   UNL     1      36.182 -17.947 -21.597  0.00  0.00    -0.050 C 
BRANCH  23  24
ATOM     24  C   UNL     1      35.293 -16.732 -21.547  0.00  0.00    -0.043 C 
ATOM     25  C   UNL     1      34.937 -16.098 -22.730  0.00  0.00    -0.006 C 
ATOM     26  C   UNL     1      34.844 -16.263 -20.322  0.00  0.00    -0.006 C 
ATOM     27  C   UNL     1      34.115 -14.972 -22.686  0.00  0.00    -0.000 C 
ATOM     28  C   UNL     1      34.020 -15.137 -20.277  0.00  0.00    -0.000 C 
ATOM     29  C   UNL     1      33.656 -14.492 -21.460  0.00  0.00    -0.000 C 
ENDBRANCH  23  24
ENDBRANCH  16  23
ENDBRANCH   1  17
TORSDOF 6
ENDMDL
MODEL 5
REMARK VINA RESULT:     -10.3      2.170      4.382
REMARK  Name = 1150567
REMARK  6 active torsions:
REMARK  status: ('A' for Active; 'I' for Inactive)
REMARK    1  A    between atoms: C_1  and  C_3
REMARK    2  A    between atoms: C_1  and  C_17
REMARK    3  A    between atoms: C_10  and  O_12
REMARK    4  A    between atoms: C_11  and  O_14
REMARK    5  A    between atoms: N_16  and  C_23
REMARK    6  A    between atoms: C_23  and  C_24
REMARK                            x       y       z     vdW  Elec       q    Type
REMARK                         _______ _______ _______ _____ _____    ______ ____
ROOT
ATOM      1  C   UNL     1      34.504 -22.810 -18.775  0.00  0.00    +0.008 C 
ENDROOT
BRANCH   1   3
ATOM      2  O   UNL     1      33.013 -23.384 -16.212  0.00  0.00    -0.291 OA
ATOM      3  C   UNL     1      34.859 -22.294 -17.394  0.00  0.00    +0.066 C 
ATOM      4  C   UNL     1      36.374 -22.384 -17.098  0.00  0.00    +0.034 C 
ATOM      5  C   UNL     1      34.200 -23.126 -16.309  0.00  0.00    +0.173 C 
ATOM      6  C   UNL     1      36.451 -23.146 -15.814  0.00  0.00    -0.016 C 
ATOM      7  C   UNL     1      35.210 -23.581 -15.367  0.00  0.00    +0.034 C 
ATOM      8  C   UNL     1      37.589 -23.452 -15.084  0.00  0.00    +0.036 C 
ATOM      9  C   UNL     1      35.041 -24.318 -14.209  0.00  0.00    +0.043 C 
ATOM     10  C   UNL     1      37.451 -24.195 -13.907  0.00  0.00    +0.172 C 
ATOM     11  C   UNL     1      36.186 -24.625 -13.473  0.00  0.00    +0.172 C 
BRANCH  10  12
ATOM     12  O   UNL     1      38.565 -24.501 -13.182  0.00  0.00    -0.468 OA
ATOM     13  C   UNL     1      39.290 -25.665 -13.572  0.00  0.00    +0.253 C 
ENDBRANCH  10  12
BRANCH  11  14
ATOM     14  O   UNL     1      36.065 -25.350 -12.325  0.00  0.00    -0.468 OA
ATOM     15  C   UNL     1      35.650 -24.647 -11.156  0.00  0.00    +0.253 C 
ENDBRANCH  11  14
ENDBRANCH   1   3
BRANCH   1  17
ATOM     16  N   UNL     1      35.624 -19.155 -20.785  0.00  0.00    +0.390 N 
ATOM     17  C   UNL     1      35.003 -21.870 -19.868  0.00  0.00    -0.004 C 
ATOM     18  C   UNL     1      33.916 -20.870 -20.274  0.00  0.00    -0.023 C 
ATOM     19  C   UNL     1      36.257 -21.114 -19.414  0.00  0.00    -0.023 C 
ATOM     20  C   UNL     1      34.441 -19.860 -21.296  0.00  0.00    -0.077 C 
ATOM     21  C   UNL     1      36.706 -20.096 -20.464  0.00  0.00    -0.077 C 
ATOM     22  H   UNL     1      35.358 -18.676 -19.925  0.00  0.00    -0.079 HD
BRANCH  16  23
ATOM     23  C   UNL     1      36.083 -18.158 -21.751  0.00  0.00    -0.050 C 
BRANCH  23  24
ATOM     24  C   UNL     1      35.302 -16.875 -21.650  0.00  0.00    -0.043 C 
ATOM     25  C   UNL     1      34.933 -16.398 -20.399  0.00  0.00    -0.006 C 
ATOM     26  C   UNL     1      34.959 -16.189 -22.806  0.00  0.00    -0.006 C 
ATOM     27  C   UNL     1      34.208 -15.209 -20.304  0.00  0.00    -0.000 C 
ATOM     28  C   UNL     1      34.234 -15.000 -22.711  0.00  0.00    -0.000 C 
ATOM     29  C   UNL     1      33.859 -14.511 -21.459  0.00  0.00    -0.000 C 
ENDBRANCH  23  24
ENDBRANCH  16  23
ENDBRANCH   1  17
TORSDOF 6
ENDMDL
MODEL 6
REMARK VINA RESULT:     -10.3      4.976     11.479
REMARK  Name = 1150567
REMARK  6 active torsions:
REMARK  status: ('A' for Active; 'I' for Inactive)
REMARK    1  A    between atoms: C_1  and  C_3
REMARK    2  A    between atoms: C_1  and  C_17
REMARK    3  A    between atoms: C_10  and  O_12
REMARK    4  A    between atoms: C_11  and  O_14
REMARK    5  A    between atoms: N_16  and  C_23
REMARK    6  A    between atoms: C_23  and  C_24
REMARK                            x       y       z     vdW  Elec       q    Type
REMARK                         _______ _______ _______ _____ _____    ______ ____
ROOT
ATOM      1  C   UNL     1      32.649 -13.021 -21.750  0.00  0.00    +0.008 C 
ENDROOT
BRANCH   1   3
ATOM      2  O   UNL     1      30.587 -10.839 -22.086  0.00  0.00    -0.291 OA
ATOM      3  C   UNL     1      32.577 -12.020 -22.887  0.00  0.00    +0.066 C 
ATOM      4  C   UNL     1      33.960 -11.431 -23.249  0.00  0.00    +0.034 C 
ATOM      5  C   UNL     1      31.729 -10.818 -22.509  0.00  0.00    +0.173 C 
ATOM      6  C   UNL     1      33.759  -9.951 -23.172  0.00  0.00    -0.016 C 
ATOM      7  C   UNL     1      32.488  -9.599 -22.738  0.00  0.00    +0.034 C 
ATOM      8  C   UNL     1      34.685  -8.961 -23.461  0.00  0.00    +0.036 C 
ATOM      9  C   UNL     1      32.083  -8.287 -22.577  0.00  0.00    +0.043 C 
ATOM     10  C   UNL     1      34.305  -7.623 -23.309  0.00  0.00    +0.172 C 
ATOM     11  C   UNL     1      33.013  -7.289 -22.870  0.00  0.00    +0.172 C 
BRANCH  10  12
ATOM     12  O   UNL     1      35.208  -6.641 -23.592  0.00  0.00    -0.468 OA
ATOM     13  C   UNL     1      35.251  -6.169 -24.936  0.00  0.00    +0.253 C 
ENDBRANCH  10  12
BRANCH  11  14
ATOM     14  O   UNL     1      32.656  -5.981 -22.723  0.00  0.00    -0.468 OA
ATOM     15  C   UNL     1      32.302  -5.550 -21.411  0.00  0.00    +0.253 C 
ENDBRANCH  11  14
ENDBRANCH   1   3
BRANCH   1  17
ATOM     16  N   UNL     1      34.772 -16.759 -22.166  0.00  0.00    +0.390 N 
ATOM     17  C   UNL     1      33.802 -14.001 -21.943  0.00  0.00    -0.004 C 
ATOM     18  C   UNL     1      33.951 -14.922 -20.727  0.00  0.00    -0.023 C 
ATOM     19  C   UNL     1      33.604 -14.843 -23.208  0.00  0.00    -0.023 C 
ATOM     20  C   UNL     1      35.039 -15.973 -20.955  0.00  0.00    -0.077 C 
ATOM     21  C   UNL     1      34.703 -15.896 -23.355  0.00  0.00    -0.077 C 
ATOM     22  H   UNL     1      33.865 -17.212 -22.054  0.00  0.00    -0.079 HD
BRANCH  16  23
ATOM     23  C   UNL     1      35.792 -17.792 -22.343  0.00  0.00    -0.050 C 
BRANCH  23  24
ATOM     24  C   UNL     1      35.568 -18.964 -21.425  0.00  0.00    -0.043 C 
ATOM     25  C   UNL     1      36.646 -19.509 -20.739  0.00  0.00    -0.006 C 
ATOM     26  C   UNL     1      34.291 -19.484 -21.278  0.00  0.00    -0.006 C 
ATOM     27  C   UNL     1      36.440 -20.596 -19.889  0.00  0.00    -0.000 C 
ATOM     28  C   UNL     1      34.085 -20.571 -20.426  0.00  0.00    -0.000 C 
ATOM     29  C   UNL     1      35.160 -21.126 -19.732  0.00  0.00    -0.000 C 
ENDBRANCH  23  24
ENDBRANCH  16  23
ENDBRANCH   1  17
TORSDOF 6
ENDMDL
MODEL 7
REMARK VINA RESULT:     -10.0      4.749     11.329
REMARK  Name = 1150567
REMARK  6 active torsions:
REMARK  status: ('A' for Active; 'I' for Inactive)
REMARK    1  A    between atoms: C_1  and  C_3
REMARK    2  A    between atoms: C_1  and  C_17
REMARK    3  A    between atoms: C_10  and  O_12
REMARK    4  A    between atoms: C_11  and  O_14
REMARK    5  A    between atoms: N_16  and  C_23
REMARK    6  A    between atoms: C_23  and  C_24
REMARK                            x       y       z     vdW  Elec       q    Type
REMARK                         _______ _______ _______ _____ _____    ______ ____
ROOT
ATOM      1  C   UNL     1      32.950 -13.709 -23.512  0.00  0.00    +0.008 C 
ENDROOT
BRANCH   1   3
ATOM      2  O   UNL     1      34.939 -11.514 -24.105  0.00  0.00    -0.291 OA
ATOM      3  C   UNL     1      33.246 -12.505 -22.640  0.00  0.00    +0.066 C 
ATOM      4  C   UNL     1      31.964 -11.849 -22.076  0.00  0.00    +0.034 C 
ATOM      5  C   UNL     1      33.929 -11.405 -23.433  0.00  0.00    +0.173 C 
ATOM      6  C   UNL     1      32.078 -10.415 -22.482  0.00  0.00    -0.016 C 
ATOM      7  C   UNL     1      33.195 -10.160 -23.267  0.00  0.00    +0.034 C 
ATOM      8  C   UNL     1      31.206  -9.382 -22.174  0.00  0.00    +0.036 C 
ATOM      9  C   UNL     1      33.495  -8.908 -23.769  0.00  0.00    +0.043 C 
ATOM     10  C   UNL     1      31.483  -8.102 -22.667  0.00  0.00    +0.172 C 
ATOM     11  C   UNL     1      32.619  -7.867 -23.459  0.00  0.00    +0.172 C 
BRANCH  10  12
ATOM     12  O   UNL     1      30.631  -7.079 -22.370  0.00  0.00    -0.468 OA
ATOM     13  C   UNL     1      31.024  -6.192 -21.325  0.00  0.00    +0.253 C 
ENDBRANCH  10  12
BRANCH  11  14
ATOM     14  O   UNL     1      32.876  -6.616 -23.935  0.00  0.00    -0.468 OA
ATOM     15  C   UNL     1      34.204  -6.122 -23.772  0.00  0.00    +0.253 C 
ENDBRANCH  11  14
ENDBRANCH   1   3
BRANCH   1  17
ATOM     16  N   UNL     1      34.845 -17.493 -22.649  0.00  0.00    +0.390 N 
ATOM     17  C   UNL     1      34.036 -14.772 -23.383  0.00  0.00    -0.004 C 
ATOM     18  C   UNL     1      34.203 -15.216 -21.926  0.00  0.00    -0.023 C 
ATOM     19  C   UNL     1      33.725 -15.988 -24.262  0.00  0.00    -0.023 C 
ATOM     20  C   UNL     1      35.220 -16.353 -21.803  0.00  0.00    -0.077 C 
ATOM     21  C   UNL     1      34.757 -17.099 -24.062  0.00  0.00    -0.077 C 
ATOM     22  H   UNL     1      33.923 -17.814 -22.354  0.00  0.00    -0.079 HD
BRANCH  16  23
ATOM     23  C   UNL     1      35.797 -18.590 -22.481  0.00  0.00    -0.050 C 
BRANCH  23  24
ATOM     24  C   UNL     1      35.353 -19.563 -21.422  0.00  0.00    -0.043 C 
ATOM     25  C   UNL     1      33.998 -19.814 -21.250  0.00  0.00    -0.006 C 
ATOM     26  C   UNL     1      36.302 -20.193 -20.630  0.00  0.00    -0.006 C 
ATOM     27  C   UNL     1      33.585 -20.714 -20.268  0.00  0.00    -0.000 C 
ATOM     28  C   UNL     1      35.888 -21.094 -19.648  0.00  0.00    -0.000 C 
ATOM     29  C   UNL     1      34.529 -21.354 -19.467  0.00  0.00    -0.000 C 
ENDBRANCH  23  24
ENDBRANCH  16  23
ENDBRANCH   1  17
TORSDOF 6
ENDMDL
MODEL 8
REMARK VINA RESULT:      -9.9      1.756      3.127
REMARK  Name = 1150567
REMARK  6 active torsions:
REMARK  status: ('A' for Active; 'I' for Inactive)
REMARK    1  A    between atoms: C_1  and  C_3
REMARK    2  A    between atoms: C_1  and  C_17
REMARK    3  A    between atoms: C_10  and  O_12
REMARK    4  A    between atoms: C_11  and  O_14
REMARK    5  A    between atoms: N_16  and  C_23
REMARK    6  A    between atoms: C_23  and  C_24
REMARK                            x       y       z     vdW  Elec       q    Type
REMARK                         _______ _______ _______ _____ _____    ______ ____
ROOT
ATOM      1  C   UNL     1      33.898 -20.603 -19.878  0.00  0.00    +0.008 C 
ENDROOT
BRANCH   1   3
ATOM      2  O   UNL     1      36.791 -20.807 -19.035  0.00  0.00    -0.291 OA
ATOM      3  C   UNL     1      34.636 -21.873 -19.500  0.00  0.00    +0.066 C 
ATOM      4  C   UNL     1      33.803 -22.793 -18.578  0.00  0.00    +0.034 C 
ATOM      5  C   UNL     1      35.893 -21.562 -18.707  0.00  0.00    +0.173 C 
ATOM      6  C   UNL     1      34.692 -23.033 -17.400  0.00  0.00    -0.016 C 
ATOM      7  C   UNL     1      35.883 -22.322 -17.467  0.00  0.00    +0.034 C 
ATOM      8  C   UNL     1      34.437 -23.843 -16.305  0.00  0.00    +0.036 C 
ATOM      9  C   UNL     1      36.851 -22.378 -16.481  0.00  0.00    +0.043 C 
ATOM     10  C   UNL     1      35.397 -23.923 -15.291  0.00  0.00    +0.172 C 
ATOM     11  C   UNL     1      36.595 -23.195 -15.379  0.00  0.00    +0.172 C 
BRANCH  10  12
ATOM     12  O   UNL     1      35.155 -24.717 -14.210  0.00  0.00    -0.468 OA
ATOM     13  C   UNL     1      33.889 -24.572 -13.571  0.00  0.00    +0.253 C 
ENDBRANCH  10  12
BRANCH  11  14
ATOM     14  O   UNL     1      37.523 -23.279 -14.383  0.00  0.00    -0.468 OA
ATOM     15  C   UNL     1      38.381 -24.417 -14.392  0.00  0.00    +0.253 C 
ENDBRANCH  11  14
ENDBRANCH   1   3
BRANCH   1  17
ATOM     16  N   UNL     1      34.546 -17.766 -23.069  0.00  0.00    +0.390 N 
ATOM     17  C   UNL     1      34.533 -19.928 -21.090  0.00  0.00    -0.004 C 
ATOM     18  C   UNL     1      33.561 -19.890 -22.273  0.00  0.00    -0.023 C 
ATOM     19  C   UNL     1      34.991 -18.506 -20.751  0.00  0.00    -0.023 C 
ATOM     20  C   UNL     1      34.155 -19.126 -23.458  0.00  0.00    -0.077 C 
ATOM     21  C   UNL     1      35.539 -17.787 -21.986  0.00  0.00    -0.077 C 
ATOM     22  H   UNL     1      33.714 -17.286 -22.724  0.00  0.00    -0.079 HD
BRANCH  16  23
ATOM     23  C   UNL     1      35.063 -17.031 -24.223  0.00  0.00    -0.050 C 
BRANCH  23  24
ATOM     24  C   UNL     1      34.478 -15.647 -24.317  0.00  0.00    -0.043 C 
ATOM     25  C   UNL     1      33.788 -15.274 -25.463  0.00  0.00    -0.006 C 
ATOM     26  C   UNL     1      34.637 -14.764 -23.259  0.00  0.00    -0.006 C 
ATOM     27  C   UNL     1      33.245 -13.992 -25.551  0.00  0.00    -0.000 C 
ATOM     28  C   UNL     1      34.093 -13.481 -23.348  0.00  0.00    -0.000 C 
ATOM     29  C   UNL     1      33.397 -13.096 -24.494  0.00  0.00    -0.000 C 
ENDBRANCH  23  24
ENDBRANCH  16  23
ENDBRANCH   1  17
TORSDOF 6
ENDMDL
MODEL 9
REMARK VINA RESULT:      -9.9      4.402     10.910
REMARK  Name = 1150567
REMARK  6 active torsions:
REMARK  status: ('A' for Active; 'I' for Inactive)
REMARK    1  A    between atoms: C_1  and  C_3
REMARK    2  A    between atoms: C_1  and  C_17
REMARK    3  A    between atoms: C_10  and  O_12
REMARK    4  A    between atoms: C_11  and  O_14
REMARK    5  A    between atoms: N_16  and  C_23
REMARK    6  A    between atoms: C_23  and  C_24
REMARK                            x       y       z     vdW  Elec       q    Type
REMARK                         _______ _______ _______ _____ _____    ______ ____
ROOT
ATOM      1  C   UNL     1      34.155 -13.700 -21.680  0.00  0.00    +0.008 C 
ENDROOT
BRANCH   1   3
ATOM      2  O   UNL     1      31.903 -12.326 -20.210  0.00  0.00    -0.291 OA
ATOM      3  C   UNL     1      32.932 -13.059 -22.307  0.00  0.00    +0.066 C 
ATOM      4  C   UNL     1      33.278 -12.211 -23.553  0.00  0.00    +0.034 C 
ATOM      5  C   UNL     1      32.267 -12.088 -21.347  0.00  0.00    +0.173 C 
ATOM      6  C   UNL     1      32.680 -10.872 -23.262  0.00  0.00    -0.016 C 
ATOM      7  C   UNL     1      32.111 -10.796 -21.997  0.00  0.00    +0.034 C 
ATOM      8  C   UNL     1      32.662  -9.762 -24.090  0.00  0.00    +0.036 C 
ATOM      9  C   UNL     1      31.514  -9.650 -21.507  0.00  0.00    +0.043 C 
ATOM     10  C   UNL     1      32.062  -8.587 -23.624  0.00  0.00    +0.172 C 
ATOM     11  C   UNL     1      31.493  -8.532 -22.341  0.00  0.00    +0.172 C 
BRANCH  10  12
ATOM     12  O   UNL     1      32.039  -7.488 -24.431  0.00  0.00    -0.468 OA
ATOM     13  C   UNL     1      33.268  -6.787 -24.605  0.00  0.00    +0.253 C 
ENDBRANCH  10  12
BRANCH  11  14
ATOM     14  O   UNL     1      30.914  -7.380 -21.896  0.00  0.00    -0.468 OA
ATOM     15  C   UNL     1      31.704  -6.542 -21.056  0.00  0.00    +0.253 C 
ENDBRANCH  11  14
ENDBRANCH   1   3
BRANCH   1  17
ATOM     16  N   UNL     1      35.658 -17.709 -22.247  0.00  0.00    +0.390 N 
ATOM     17  C   UNL     1      34.166 -15.210 -21.896  0.00  0.00    -0.004 C 
ATOM     18  C   UNL     1      34.863 -15.574 -23.211  0.00  0.00    -0.023 C 
ATOM     19  C   UNL     1      34.853 -15.929 -20.730  0.00  0.00    -0.023 C 
ATOM     20  C   UNL     1      34.967 -17.091 -23.385  0.00  0.00    -0.077 C 
ATOM     21  C   UNL     1      34.956 -17.434 -20.985  0.00  0.00    -0.077 C 
ATOM     22  H   UNL     1      36.590 -17.300 -22.184  0.00  0.00    -0.079 HD
BRANCH  16  23
ATOM     23  C   UNL     1      35.795 -19.151 -22.452  0.00  0.00    -0.050 C 
BRANCH  23  24
ATOM     24  C   UNL     1      35.144 -19.940 -21.348  0.00  0.00    -0.043 C 
ATOM     25  C   UNL     1      35.938 -20.629 -20.441  0.00  0.00    -0.006 C 
ATOM     26  C   UNL     1      33.760 -19.969 -21.252  0.00  0.00    -0.006 C 
ATOM     27  C   UNL     1      35.335 -21.361 -19.418  0.00  0.00    -0.000 C 
ATOM     28  C   UNL     1      33.157 -20.701 -20.228  0.00  0.00    -0.000 C 
ATOM     29  C   UNL     1      33.946 -21.396 -19.311  0.00  0.00    -0.000 C 
ENDBRANCH  23  24
ENDBRANCH  16  23
ENDBRANCH   1  17
TORSDOF 6
ENDMDL
