MODEL 1
REMARK VINA RESULT:     -11.6      0.000      0.000
REMARK  Name = 11394238
REMARK  5 active torsions:
REMARK  status: ('A' for Active; 'I' for Inactive)
REMARK    1  A    between atoms: C_4  and  C_19
REMARK    2  A    between atoms: C_9  and  O_10
REMARK    3  A    between atoms: O_10  and  C_11
REMARK    4  A    between atoms: C_11  and  C_12
REMARK    5  A    between atoms: C_19  and  N_20
REMARK                            x       y       z     vdW  Elec       q    Type
REMARK                         _______ _______ _______ _____ _____    ______ ____
ROOT
ATOM      1  F   UNL     1      35.882 -21.472 -17.800  0.00  0.00    -0.235 F 
ATOM      2  O   UNL     1      37.411 -18.964 -20.439  0.00  0.00    -0.226 OA
ATOM      3  N   UNL     1      35.515 -20.309 -20.417  0.00  0.00    -0.243 N 
ATOM      4  C   UNL     1      34.137 -22.459 -19.047  0.00  0.00    +0.056 C 
ATOM      5  C   UNL     1      35.648 -22.247 -18.898  0.00  0.00    +0.182 C 
ATOM      6  C   UNL     1      33.440 -21.127 -19.368  0.00  0.00    +0.026 C 
ATOM      7  C   UNL     1      36.248 -21.538 -20.107  0.00  0.00    +0.132 C 
ATOM      8  C   UNL     1      34.067 -20.462 -20.591  0.00  0.00    +0.097 C 
ATOM      9  C   UNL     1      36.198 -19.100 -20.584  0.00  0.00    +0.405 C 
ENDROOT
BRANCH   9  10
ATOM     10  O   UNL     1      35.367 -18.067 -20.931  0.00  0.00    -0.430 OA
BRANCH  10  11
ATOM     11  C   UNL     1      35.680 -17.389 -22.152  0.00  0.00    +0.237 C 
BRANCH  11  12
ATOM     12  C   UNL     1      34.888 -16.116 -22.222  0.00  0.00    +0.021 C 
ATOM     13  C   UNL     1      34.560 -15.445 -21.049  0.00  0.00    -0.001 C 
ATOM     14  C   UNL     1      34.490 -15.620 -23.458  0.00  0.00    -0.001 C 
ATOM     15  C   UNL     1      33.420 -13.758 -22.350  0.00  0.00    -0.022 C 
ATOM     16  C   UNL     1      33.823 -14.262 -21.114  0.00  0.00    -0.004 C 
ATOM     17  C   UNL     1      33.753 -14.436 -23.522  0.00  0.00    -0.004 C 
ATOM     18  C   UNL     1      32.633 -12.493 -22.419  0.00  0.00    +0.031 C 
ENDBRANCH  11  12
ENDBRANCH  10  11
ENDBRANCH   9  10
BRANCH   4  19
ATOM     19  C   UNL     1      33.543 -23.088 -17.788  0.00  0.00    +0.100 C 
BRANCH  19  20
ATOM     20  N   UNL     1      32.155 -22.727 -17.673  0.00  0.00    -0.278 N 
ATOM     21  N   UNL     1      30.052 -22.685 -16.632  0.00  0.00    -0.181 NA
ATOM     22  N   UNL     1      31.907 -23.847 -15.625  0.00  0.00    -0.203 NA
ATOM     23  C   UNL     1      31.345 -23.098 -16.608  0.00  0.00    +0.087 C 
ATOM     24  C   UNL     1      29.294 -23.064 -15.583  0.00  0.00    +0.108 C 
ATOM     25  C   UNL     1      31.092 -24.190 -14.607  0.00  0.00    +0.165 C 
ATOM     26  C   UNL     1      29.764 -23.823 -14.531  0.00  0.00    +0.022 C 
ATOM     27  H   UNL     1      31.756 -22.184 -18.391  0.00  0.00    +0.158 HD
ENDBRANCH  19  20
ENDBRANCH   4  19
TORSDOF 5
ENDMDL
MODEL 2
REMARK VINA RESULT:     -11.5      4.823     10.109
REMARK  Name = 11394238
REMARK  5 active torsions:
REMARK  status: ('A' for Active; 'I' for Inactive)
REMARK    1  A    between atoms: C_4  and  C_19
REMARK    2  A    between atoms: C_9  and  O_10
REMARK    3  A    between atoms: O_10  and  C_11
REMARK    4  A    between atoms: C_11  and  C_12
REMARK    5  A    between atoms: C_19  and  N_20
REMARK                            x       y       z     vdW  Elec       q    Type
REMARK                         _______ _______ _______ _____ _____    ______ ____
ROOT
ATOM      1  F   UNL     1      32.251 -14.238 -23.151  0.00  0.00    -0.235 F 
ATOM      2  O   UNL     1      35.209 -16.816 -23.590  0.00  0.00    -0.226 OA
ATOM      3  N   UNL     1      34.625 -15.318 -21.912  0.00  0.00    -0.243 N 
ATOM      4  C   UNL     1      32.921 -13.085 -21.202  0.00  0.00    +0.056 C 
ATOM      5  C   UNL     1      33.233 -13.426 -22.664  0.00  0.00    +0.182 C 
ATOM      6  C   UNL     1      33.005 -14.347 -20.329  0.00  0.00    +0.026 C 
ATOM      7  C   UNL     1      34.561 -14.161 -22.807  0.00  0.00    +0.132 C 
ATOM      8  C   UNL     1      34.354 -15.040 -20.498  0.00  0.00    +0.097 C 
ATOM      9  C   UNL     1      34.982 -16.576 -22.406  0.00  0.00    +0.405 C 
ENDROOT
BRANCH   9  10
ATOM     10  O   UNL     1      35.053 -17.529 -21.424  0.00  0.00    -0.430 OA
BRANCH  10  11
ATOM     11  C   UNL     1      35.576 -18.803 -21.817  0.00  0.00    +0.237 C 
BRANCH  11  12
ATOM     12  C   UNL     1      35.054 -19.856 -20.885  0.00  0.00    +0.021 C 
ATOM     13  C   UNL     1      33.682 -20.026 -20.739  0.00  0.00    -0.001 C 
ATOM     14  C   UNL     1      35.947 -20.650 -20.175  0.00  0.00    -0.001 C 
ATOM     15  C   UNL     1      34.086 -21.806 -19.156  0.00  0.00    -0.022 C 
ATOM     16  C   UNL     1      33.197 -21.005 -19.871  0.00  0.00    -0.004 C 
ATOM     17  C   UNL     1      35.461 -21.629 -19.307  0.00  0.00    -0.004 C 
ATOM     18  C   UNL     1      33.567 -22.853 -18.229  0.00  0.00    +0.031 C 
ENDBRANCH  11  12
ENDBRANCH  10  11
ENDBRANCH   9  10
BRANCH   4  19
ATOM     19  C   UNL     1      31.546 -12.431 -21.072  0.00  0.00    +0.100 C 
BRANCH  19  20
ATOM     20  N   UNL     1      31.491 -11.247 -21.886  0.00  0.00    -0.278 N 
ATOM     21  N   UNL     1      31.573  -8.934 -22.279  0.00  0.00    -0.181 NA
ATOM     22  N   UNL     1      31.864  -9.823 -20.058  0.00  0.00    -0.203 NA
ATOM     23  C   UNL     1      31.648  -9.959 -21.391  0.00  0.00    +0.087 C 
ATOM     24  C   UNL     1      31.729  -7.698 -21.764  0.00  0.00    +0.108 C 
ATOM     25  C   UNL     1      32.011  -8.559 -19.611  0.00  0.00    +0.165 C 
ATOM     26  C   UNL     1      31.953  -7.447 -20.425  0.00  0.00    +0.022 C 
ATOM     27  H   UNL     1      31.334 -11.355 -22.853  0.00  0.00    +0.158 HD
ENDBRANCH  19  20
ENDBRANCH   4  19
TORSDOF 5
ENDMDL
MODEL 3
REMARK VINA RESULT:     -11.2      4.287      9.699
REMARK  Name = 11394238
REMARK  5 active torsions:
REMARK  status: ('A' for Active; 'I' for Inactive)
REMARK    1  A    between atoms: C_4  and  C_19
REMARK    2  A    between atoms: C_9  and  O_10
REMARK    3  A    between atoms: O_10  and  C_11
REMARK    4  A    between atoms: C_11  and  C_12
REMARK    5  A    between atoms: C_19  and  N_20
REMARK                            x       y       z     vdW  Elec       q    Type
REMARK                         _______ _______ _______ _____ _____    ______ ____
ROOT
ATOM      1  F   UNL     1      32.763 -15.747 -24.769  0.00  0.00    -0.235 F 
ATOM      2  O   UNL     1      34.467 -19.213 -23.950  0.00  0.00    -0.226 OA
ATOM      3  N   UNL     1      34.853 -17.032 -23.246  0.00  0.00    -0.243 N 
ATOM      4  C   UNL     1      34.235 -14.238 -23.705  0.00  0.00    +0.056 C 
ATOM      5  C   UNL     1      34.049 -15.294 -24.801  0.00  0.00    +0.182 C 
ATOM      6  C   UNL     1      34.094 -14.879 -22.316  0.00  0.00    +0.026 C 
ATOM      7  C   UNL     1      34.972 -16.492 -24.602  0.00  0.00    +0.132 C 
ATOM      8  C   UNL     1      35.043 -16.064 -22.161  0.00  0.00    +0.097 C 
ATOM      9  C   UNL     1      34.629 -18.397 -23.045  0.00  0.00    +0.405 C 
ENDROOT
BRANCH   9  10
ATOM     10  O   UNL     1      34.607 -18.739 -21.718  0.00  0.00    -0.430 OA
BRANCH  10  11
ATOM     11  C   UNL     1      35.609 -19.668 -21.290  0.00  0.00    +0.237 C 
BRANCH  11  12
ATOM     12  C   UNL     1      35.003 -20.621 -20.302  0.00  0.00    +0.021 C 
ATOM     13  C   UNL     1      33.620 -20.686 -20.169  0.00  0.00    -0.001 C 
ATOM     14  C   UNL     1      35.829 -21.428 -19.528  0.00  0.00    -0.001 C 
ATOM     15  C   UNL     1      33.879 -22.385 -18.470  0.00  0.00    -0.022 C 
ATOM     16  C   UNL     1      33.057 -21.572 -19.250  0.00  0.00    -0.004 C 
ATOM     17  C   UNL     1      35.264 -22.314 -18.609  0.00  0.00    -0.004 C 
ATOM     18  C   UNL     1      33.276 -23.333 -17.489  0.00  0.00    +0.031 C 
ENDBRANCH  11  12
ENDBRANCH  10  11
ENDBRANCH   9  10
BRANCH   4  19
ATOM     19  C   UNL     1      33.240 -13.092 -23.873  0.00  0.00    +0.100 C 
BRANCH  19  20
ATOM     20  N   UNL     1      32.520 -12.889 -22.644  0.00  0.00    -0.278 N 
ATOM     21  N   UNL     1      31.544 -11.601 -20.942  0.00  0.00    -0.181 NA
ATOM     22  N   UNL     1      32.666 -10.552 -22.799  0.00  0.00    -0.203 NA
ATOM     23  C   UNL     1      32.234 -11.640 -22.111  0.00  0.00    +0.087 C 
ATOM     24  C   UNL     1      31.284 -10.371 -20.453  0.00  0.00    +0.108 C 
ATOM     25  C   UNL     1      32.371  -9.354 -22.254  0.00  0.00    +0.165 C 
ATOM     26  C   UNL     1      31.676  -9.201 -21.071  0.00  0.00    +0.022 C 
ATOM     27  H   UNL     1      32.210 -13.684 -22.151  0.00  0.00    +0.158 HD
ENDBRANCH  19  20
ENDBRANCH   4  19
TORSDOF 5
ENDMDL
MODEL 4
REMARK VINA RESULT:     -10.6      1.444      2.020
REMARK  Name = 11394238
REMARK  5 active torsions:
REMARK  status: ('A' for Active; 'I' for Inactive)
REMARK    1  A    between atoms: C_4  and  C_19
REMARK    2  A    between atoms: C_9  and  O_10
REMARK    3  A    between atoms: O_10  and  C_11
REMARK    4  A    between atoms: C_11  and  C_12
REMARK    5  A    between atoms: C_19  and  N_20
REMARK                            x       y       z     vdW  Elec       q    Type
REMARK                         _______ _______ _______ _____ _____    ______ ____
ROOT
ATOM      1  F   UNL     1      35.632 -21.434 -17.836  0.00  0.00    -0.235 F 
ATOM      2  O   UNL     1      37.441 -19.048 -20.410  0.00  0.00    -0.226 OA
ATOM      3  N   UNL     1      35.467 -20.274 -20.475  0.00  0.00    -0.243 N 
ATOM      4  C   UNL     1      33.893 -22.323 -19.163  0.00  0.00    +0.056 C 
ATOM      5  C   UNL     1      35.405 -22.203 -18.939  0.00  0.00    +0.182 C 
ATOM      6  C   UNL     1      33.297 -20.955 -19.526  0.00  0.00    +0.026 C 
ATOM      7  C   UNL     1      36.107 -21.543 -20.121  0.00  0.00    +0.132 C 
ATOM      8  C   UNL     1      34.023 -20.340 -20.720  0.00  0.00    +0.097 C 
ATOM      9  C   UNL     1      36.231 -19.111 -20.615  0.00  0.00    +0.405 C 
ENDROOT
BRANCH   9  10
ATOM     10  O   UNL     1      35.483 -18.032 -21.009  0.00  0.00    -0.430 OA
BRANCH  10  11
ATOM     11  C   UNL     1      35.498 -17.731 -22.409  0.00  0.00    +0.237 C 
BRANCH  11  12
ATOM     12  C   UNL     1      34.895 -16.375 -22.625  0.00  0.00    +0.021 C 
ATOM     13  C   UNL     1      34.783 -15.494 -21.555  0.00  0.00    -0.001 C 
ATOM     14  C   UNL     1      34.454 -16.011 -23.892  0.00  0.00    -0.001 C 
ATOM     15  C   UNL     1      33.776 -13.861 -23.024  0.00  0.00    -0.022 C 
ATOM     16  C   UNL     1      34.221 -14.232 -21.756  0.00  0.00    -0.004 C 
ATOM     17  C   UNL     1      33.893 -14.749 -24.092  0.00  0.00    -0.004 C 
ATOM     18  C   UNL     1      33.177 -12.512 -23.238  0.00  0.00    +0.031 C 
ENDBRANCH  11  12
ENDBRANCH  10  11
ENDBRANCH   9  10
BRANCH   4  19
ATOM     19  C   UNL     1      33.200 -22.903 -17.932  0.00  0.00    +0.100 C 
BRANCH  19  20
ATOM     20  N   UNL     1      34.144 -23.658 -17.152  0.00  0.00    -0.278 N 
ATOM     21  N   UNL     1      34.956 -24.669 -15.196  0.00  0.00    -0.181 NA
ATOM     22  N   UNL     1      32.861 -23.479 -15.196  0.00  0.00    -0.203 NA
ATOM     23  C   UNL     1      33.982 -23.945 -15.804  0.00  0.00    +0.087 C 
ATOM     24  C   UNL     1      34.766 -24.929 -13.886  0.00  0.00    +0.108 C 
ATOM     25  C   UNL     1      32.735 -23.775 -13.886  0.00  0.00    +0.165 C 
ATOM     26  C   UNL     1      33.664 -24.504 -13.172  0.00  0.00    +0.022 C 
ATOM     27  H   UNL     1      34.955 -23.992 -17.602  0.00  0.00    +0.158 HD
ENDBRANCH  19  20
ENDBRANCH   4  19
TORSDOF 5
ENDMDL
MODEL 5
REMARK VINA RESULT:     -10.0      3.168      5.068
REMARK  Name = 11394238
REMARK  5 active torsions:
REMARK  status: ('A' for Active; 'I' for Inactive)
REMARK    1  A    between atoms: C_4  and  C_19
REMARK    2  A    between atoms: C_9  and  O_10
REMARK    3  A    between atoms: O_10  and  C_11
REMARK    4  A    between atoms: C_11  and  C_12
REMARK    5  A    between atoms: C_19  and  N_20
REMARK                            x       y       z     vdW  Elec       q    Type
REMARK                         _______ _______ _______ _____ _____    ______ ____
ROOT
ATOM      1  F   UNL     1      32.682 -22.155 -14.444  0.00  0.00    -0.235 F 
ATOM      2  O   UNL     1      36.385 -22.387 -15.796  0.00  0.00    -0.226 OA
ATOM      3  N   UNL     1      34.403 -23.463 -16.359  0.00  0.00    -0.243 N 
ATOM      4  C   UNL     1      31.656 -23.954 -15.578  0.00  0.00    +0.056 C 
ATOM      5  C   UNL     1      32.716 -23.513 -14.561  0.00  0.00    +0.182 C 
ATOM      6  C   UNL     1      32.018 -23.445 -16.981  0.00  0.00    +0.026 C 
ATOM      7  C   UNL     1      34.123 -23.911 -14.994  0.00  0.00    +0.132 C 
ATOM      8  C   UNL     1      33.428 -23.877 -17.373  0.00  0.00    +0.097 C 
ATOM      9  C   UNL     1      35.565 -22.738 -16.642  0.00  0.00    +0.405 C 
ENDROOT
BRANCH   9  10
ATOM     10  O   UNL     1      35.699 -22.454 -17.976  0.00  0.00    -0.430 OA
BRANCH  10  11
ATOM     11  C   UNL     1      36.746 -21.541 -18.324  0.00  0.00    +0.237 C 
BRANCH  11  12
ATOM     12  C   UNL     1      36.305 -20.714 -19.496  0.00  0.00    +0.021 C 
ATOM     13  C   UNL     1      35.032 -20.897 -20.026  0.00  0.00    -0.001 C 
ATOM     14  C   UNL     1      37.172 -19.775 -20.041  0.00  0.00    -0.001 C 
ATOM     15  C   UNL     1      35.487 -19.184 -21.668  0.00  0.00    -0.022 C 
ATOM     16  C   UNL     1      34.622 -20.128 -21.116  0.00  0.00    -0.004 C 
ATOM     17  C   UNL     1      36.761 -19.006 -21.130  0.00  0.00    -0.004 C 
ATOM     18  C   UNL     1      35.047 -18.362 -22.832  0.00  0.00    +0.031 C 
ENDBRANCH  11  12
ENDBRANCH  10  11
ENDBRANCH   9  10
BRANCH   4  19
ATOM     19  C   UNL     1      30.267 -23.467 -15.170  0.00  0.00    +0.100 C 
BRANCH  19  20
ATOM     20  N   UNL     1      29.493 -23.165 -16.344  0.00  0.00    -0.278 N 
ATOM     21  N   UNL     1      27.569 -22.482 -17.501  0.00  0.00    -0.181 NA
ATOM     22  N   UNL     1      27.594 -22.583 -15.094  0.00  0.00    -0.203 NA
ATOM     23  C   UNL     1      28.175 -22.729 -16.312  0.00  0.00    +0.087 C 
ATOM     24  C   UNL     1      26.290 -22.060 -17.433  0.00  0.00    +0.108 C 
ATOM     25  C   UNL     1      26.314 -22.158 -15.099  0.00  0.00    +0.165 C 
ATOM     26  C   UNL     1      25.605 -21.878 -16.248  0.00  0.00    +0.022 C 
ATOM     27  H   UNL     1      29.923 -23.274 -17.224  0.00  0.00    +0.158 HD
ENDBRANCH  19  20
ENDBRANCH   4  19
TORSDOF 5
ENDMDL
MODEL 6
REMARK VINA RESULT:     -10.0      4.459      7.267
REMARK  Name = 11394238
REMARK  5 active torsions:
REMARK  status: ('A' for Active; 'I' for Inactive)
REMARK    1  A    between atoms: C_4  and  C_19
REMARK    2  A    between atoms: C_9  and  O_10
REMARK    3  A    between atoms: O_10  and  C_11
REMARK    4  A    between atoms: C_11  and  C_12
REMARK    5  A    between atoms: C_19  and  N_20
REMARK                            x       y       z     vdW  Elec       q    Type
REMARK                         _______ _______ _______ _____ _____    ______ ____
ROOT
ATOM      1  F   UNL     1      33.714 -16.332 -20.734  0.00  0.00    -0.235 F 
ATOM      2  O   UNL     1      32.245 -12.773 -19.856  0.00  0.00    -0.226 OA
ATOM      3  N   UNL     1      33.433 -13.615 -21.668  0.00  0.00    -0.243 N 
ATOM      4  C   UNL     1      34.975 -15.853 -22.672  0.00  0.00    +0.056 C 
ATOM      5  C   UNL     1      34.788 -15.613 -21.169  0.00  0.00    +0.182 C 
ATOM      6  C   UNL     1      33.788 -15.273 -23.456  0.00  0.00    +0.026 C 
ATOM      7  C   UNL     1      34.528 -14.144 -20.853  0.00  0.00    +0.132 C 
ATOM      8  C   UNL     1      33.574 -13.801 -23.116  0.00  0.00    +0.097 C 
ATOM      9  C   UNL     1      32.370 -12.932 -21.069  0.00  0.00    +0.405 C 
ENDROOT
BRANCH   9  10
ATOM     10  O   UNL     1      31.468 -12.451 -21.981  0.00  0.00    -0.430 OA
BRANCH  10  11
ATOM     11  C   UNL     1      30.908 -11.164 -21.697  0.00  0.00    +0.237 C 
BRANCH  11  12
ATOM     12  C   UNL     1      31.921 -10.106 -22.022  0.00  0.00    +0.021 C 
ATOM     13  C   UNL     1      32.643 -10.187 -23.208  0.00  0.00    -0.001 C 
ATOM     14  C   UNL     1      32.130  -9.057 -21.135  0.00  0.00    -0.001 C 
ATOM     15  C   UNL     1      33.800  -8.148 -22.625  0.00  0.00    -0.022 C 
ATOM     16  C   UNL     1      33.586  -9.203 -23.510  0.00  0.00    -0.004 C 
ATOM     17  C   UNL     1      33.072  -8.073 -21.438  0.00  0.00    -0.004 C 
ATOM     18  C   UNL     1      34.807  -7.096 -22.949  0.00  0.00    +0.031 C 
ENDBRANCH  11  12
ENDBRANCH  10  11
ENDBRANCH   9  10
BRANCH   4  19
ATOM     19  C   UNL     1      35.144 -17.341 -22.974  0.00  0.00    +0.100 C 
BRANCH  19  20
ATOM     20  N   UNL     1      36.111 -17.913 -22.075  0.00  0.00    -0.278 N 
ATOM     21  N   UNL     1      36.868 -19.441 -20.463  0.00  0.00    -0.181 NA
ATOM     22  N   UNL     1      34.622 -19.565 -21.327  0.00  0.00    -0.203 NA
ATOM     23  C   UNL     1      35.859 -19.009 -21.261  0.00  0.00    +0.087 C 
ATOM     24  C   UNL     1      36.588 -20.508 -19.686  0.00  0.00    +0.108 C 
ATOM     25  C   UNL     1      34.410 -20.627 -20.523  0.00  0.00    +0.165 C 
ATOM     26  C   UNL     1      35.365 -21.148 -19.674  0.00  0.00    +0.022 C 
ATOM     27  H   UNL     1      37.006 -17.503 -22.035  0.00  0.00    +0.158 HD
ENDBRANCH  19  20
ENDBRANCH   4  19
TORSDOF 5
ENDMDL
MODEL 7
REMARK VINA RESULT:     -10.0      3.065      4.840
REMARK  Name = 11394238
REMARK  5 active torsions:
REMARK  status: ('A' for Active; 'I' for Inactive)
REMARK    1  A    between atoms: C_4  and  C_19
REMARK    2  A    between atoms: C_9  and  O_10
REMARK    3  A    between atoms: O_10  and  C_11
REMARK    4  A    between atoms: C_11  and  C_12
REMARK    5  A    between atoms: C_19  and  N_20
REMARK                            x       y       z     vdW  Elec       q    Type
REMARK                         _______ _______ _______ _____ _____    ______ ____
ROOT
ATOM      1  F   UNL     1      35.206 -23.161 -13.157  0.00  0.00    -0.235 F 
ATOM      2  O   UNL     1      37.993 -22.333 -15.829  0.00  0.00    -0.226 OA
ATOM      3  N   UNL     1      35.875 -23.281 -15.963  0.00  0.00    -0.243 N 
ATOM      4  C   UNL     1      33.663 -24.390 -14.455  0.00  0.00    +0.056 C 
ATOM      5  C   UNL     1      35.079 -24.316 -13.871  0.00  0.00    +0.182 C 
ATOM      6  C   UNL     1      33.456 -23.278 -15.494  0.00  0.00    +0.026 C 
ATOM      7  C   UNL     1      36.146 -24.313 -14.960  0.00  0.00    +0.132 C 
ATOM      8  C   UNL     1      34.540 -23.322 -16.568  0.00  0.00    +0.097 C 
ATOM      9  C   UNL     1      36.872 -22.373 -16.333  0.00  0.00    +0.405 C 
ENDROOT
BRANCH   9  10
ATOM     10  O   UNL     1      36.468 -21.519 -17.326  0.00  0.00    -0.430 OA
BRANCH  10  11
ATOM     11  C   UNL     1      36.525 -22.033 -18.661  0.00  0.00    +0.237 C 
BRANCH  11  12
ATOM     12  C   UNL     1      36.188 -20.932 -19.623  0.00  0.00    +0.021 C 
ATOM     13  C   UNL     1      34.899 -20.838 -20.136  0.00  0.00    -0.001 C 
ATOM     14  C   UNL     1      37.167 -20.018 -19.994  0.00  0.00    -0.001 C 
ATOM     15  C   UNL     1      35.563 -18.894 -21.408  0.00  0.00    -0.022 C 
ATOM     16  C   UNL     1      34.586 -19.815 -21.032  0.00  0.00    -0.004 C 
ATOM     17  C   UNL     1      36.854 -18.995 -20.889  0.00  0.00    -0.004 C 
ATOM     18  C   UNL     1      35.228 -17.800 -22.364  0.00  0.00    +0.031 C 
ENDBRANCH  11  12
ENDBRANCH  10  11
ENDBRANCH   9  10
BRANCH   4  19
ATOM     19  C   UNL     1      32.609 -24.301 -13.353  0.00  0.00    +0.100 C 
BRANCH  19  20
ATOM     20  N   UNL     1      31.629 -23.306 -13.696  0.00  0.00    -0.278 N 
ATOM     21  N   UNL     1      29.623 -22.538 -14.643  0.00  0.00    -0.181 NA
ATOM     22  N   UNL     1      30.235 -24.866 -14.759  0.00  0.00    -0.203 NA
ATOM     23  C   UNL     1      30.457 -23.579 -14.389  0.00  0.00    +0.087 C 
ATOM     24  C   UNL     1      28.495 -22.840 -15.317  0.00  0.00    +0.108 C 
ATOM     25  C   UNL     1      29.088 -25.096 -15.430  0.00  0.00    +0.165 C 
ATOM     26  C   UNL     1      28.171 -24.113 -15.740  0.00  0.00    +0.022 C 
ATOM     27  H   UNL     1      31.799 -22.374 -13.423  0.00  0.00    +0.158 HD
ENDBRANCH  19  20
ENDBRANCH   4  19
TORSDOF 5
ENDMDL
MODEL 8
REMARK VINA RESULT:     -10.0      4.001      9.773
REMARK  Name = 11394238
REMARK  5 active torsions:
REMARK  status: ('A' for Active; 'I' for Inactive)
REMARK    1  A    between atoms: C_4  and  C_19
REMARK    2  A    between atoms: C_9  and  O_10
REMARK    3  A    between atoms: O_10  and  C_11
REMARK    4  A    between atoms: C_11  and  C_12
REMARK    5  A    between atoms: C_19  and  N_20
REMARK                            x       y       z     vdW  Elec       q    Type
REMARK                         _______ _______ _______ _____ _____    ______ ____
ROOT
ATOM      1  F   UNL     1      33.379 -20.566 -19.316  0.00  0.00    -0.235 F 
ATOM      2  O   UNL     1      32.673 -23.482 -16.748  0.00  0.00    -0.226 OA
ATOM      3  N   UNL     1      34.552 -22.821 -17.947  0.00  0.00    -0.243 N 
ATOM      4  C   UNL     1      35.541 -21.129 -20.080  0.00  0.00    +0.056 C 
ATOM      5  C   UNL     1      34.065 -21.533 -19.992  0.00  0.00    +0.182 C 
ATOM      6  C   UNL     1      36.177 -21.121 -18.681  0.00  0.00    +0.026 C 
ATOM      7  C   UNL     1      33.877 -22.849 -19.245  0.00  0.00    +0.132 C 
ATOM      8  C   UNL     1      35.972 -22.460 -17.979  0.00  0.00    +0.097 C 
ATOM      9  C   UNL     1      33.864 -23.179 -16.783  0.00  0.00    +0.405 C 
ENDROOT
BRANCH   9  10
ATOM     10  O   UNL     1      34.661 -23.158 -15.669  0.00  0.00    -0.430 OA
BRANCH  10  11
ATOM     11  C   UNL     1      34.667 -24.349 -14.874  0.00  0.00    +0.237 C 
BRANCH  11  12
ATOM     12  C   UNL     1      36.081 -24.824 -14.715  0.00  0.00    +0.021 C 
ATOM     13  C   UNL     1      37.123 -23.904 -14.736  0.00  0.00    -0.001 C 
ATOM     14  C   UNL     1      36.336 -26.180 -14.547  0.00  0.00    -0.001 C 
ATOM     15  C   UNL     1      38.702 -25.705 -14.420  0.00  0.00    -0.022 C 
ATOM     16  C   UNL     1      38.438 -24.346 -14.589  0.00  0.00    -0.004 C 
ATOM     17  C   UNL     1      37.652 -26.622 -14.399  0.00  0.00    -0.004 C 
ATOM     18  C   UNL     1      40.108 -26.177 -14.261  0.00  0.00    +0.031 C 
ENDBRANCH  11  12
ENDBRANCH  10  11
ENDBRANCH   9  10
BRANCH   4  19
ATOM     19  C   UNL     1      35.699 -19.765 -20.750  0.00  0.00    +0.100 C 
BRANCH  19  20
ATOM     20  N   UNL     1      35.046 -19.775 -22.032  0.00  0.00    -0.278 N 
ATOM     21  N   UNL     1      34.207 -18.802 -23.996  0.00  0.00    -0.181 NA
ATOM     22  N   UNL     1      35.280 -17.457 -22.309  0.00  0.00    -0.203 NA
ATOM     23  C   UNL     1      34.838 -18.641 -22.805  0.00  0.00    +0.087 C 
ATOM     24  C   UNL     1      34.022 -17.679 -24.720  0.00  0.00    +0.108 C 
ATOM     25  C   UNL     1      35.061 -16.375 -23.084  0.00  0.00    +0.165 C 
ATOM     26  C   UNL     1      34.432 -16.426 -24.311  0.00  0.00    +0.022 C 
ATOM     27  H   UNL     1      34.728 -20.639 -22.384  0.00  0.00    +0.158 HD
ENDBRANCH  19  20
ENDBRANCH   4  19
TORSDOF 5
ENDMDL
MODEL 9
REMARK VINA RESULT:     -10.0      4.707      7.285
REMARK  Name = 11394238
REMARK  5 active torsions:
REMARK  status: ('A' for Active; 'I' for Inactive)
REMARK    1  A    between atoms: C_4  and  C_19
REMARK    2  A    between atoms: C_9  and  O_10
REMARK    3  A    between atoms: O_10  and  C_11
REMARK    4  A    between atoms: C_11  and  C_12
REMARK    5  A    between atoms: C_19  and  N_20
REMARK                            x       y       z     vdW  Elec       q    Type
REMARK                         _______ _______ _______ _____ _____    ______ ____
ROOT
ATOM      1  F   UNL     1      33.267 -25.510 -13.882  0.00  0.00    -0.235 F 
ATOM      2  O   UNL     1      31.597 -23.422 -16.788  0.00  0.00    -0.226 OA
ATOM      3  N   UNL     1      33.550 -23.171 -15.552  0.00  0.00    -0.243 N 
ATOM      4  C   UNL     1      35.037 -24.085 -13.239  0.00  0.00    +0.056 C 
ATOM      5  C   UNL     1      33.520 -24.279 -13.349  0.00  0.00    +0.182 C 
ATOM      6  C   UNL     1      35.671 -24.030 -14.637  0.00  0.00    +0.026 C 
ATOM      7  C   UNL     1      32.875 -23.236 -14.254  0.00  0.00    +0.132 C 
ATOM      8  C   UNL     1      35.001 -22.965 -15.501  0.00  0.00    +0.097 C 
ATOM      9  C   UNL     1      32.813 -23.248 -16.738  0.00  0.00    +0.405 C 
ENDROOT
BRANCH   9  10
ATOM     10  O   UNL     1      33.594 -23.108 -17.856  0.00  0.00    -0.430 OA
BRANCH  10  11
ATOM     11  C   UNL     1      33.047 -22.311 -18.911  0.00  0.00    +0.237 C 
BRANCH  11  12
ATOM     12  C   UNL     1      34.137 -21.462 -19.498  0.00  0.00    +0.021 C 
ATOM     13  C   UNL     1      35.461 -21.706 -19.150  0.00  0.00    -0.001 C 
ATOM     14  C   UNL     1      33.812 -20.440 -20.383  0.00  0.00    -0.001 C 
ATOM     15  C   UNL     1      36.156 -19.889 -20.584  0.00  0.00    -0.022 C 
ATOM     16  C   UNL     1      36.474 -20.915 -19.696  0.00  0.00    -0.004 C 
ATOM     17  C   UNL     1      34.826 -19.651 -20.928  0.00  0.00    -0.004 C 
ATOM     18  C   UNL     1      37.239 -19.046 -21.167  0.00  0.00    +0.031 C 
ENDBRANCH  11  12
ENDBRANCH  10  11
ENDBRANCH   9  10
BRANCH   4  19
ATOM     19  C   UNL     1      35.674 -25.193 -12.402  0.00  0.00    +0.100 C 
BRANCH  19  20
ATOM     20  N   UNL     1      36.410 -26.086 -13.257  0.00  0.00    -0.278 N 
ATOM     21  N   UNL     1      38.332 -26.890 -14.336  0.00  0.00    -0.181 NA
ATOM     22  N   UNL     1      38.434 -24.953 -12.906  0.00  0.00    -0.203 NA
ATOM     23  C   UNL     1      37.770 -25.973 -13.508  0.00  0.00    +0.087 C 
ATOM     24  C   UNL     1      39.655 -26.750 -14.558  0.00  0.00    +0.108 C 
ATOM     25  C   UNL     1      39.754 -24.872 -13.171  0.00  0.00    +0.165 C 
ATOM     26  C   UNL     1      40.425 -25.751 -13.997  0.00  0.00    +0.022 C 
ATOM     27  H   UNL     1      35.919 -26.823 -13.689  0.00  0.00    +0.158 HD
ENDBRANCH  19  20
ENDBRANCH   4  19
TORSDOF 5
ENDMDL
