MODEL 1
REMARK VINA RESULT:     -12.0      0.000      0.000
REMARK  Name = 11697676
REMARK  7 active torsions:
REMARK  status: ('A' for Active; 'I' for Inactive)
REMARK    1  A    between atoms: N_1  and  C_18
REMARK    2  A    between atoms: N_2  and  C_8
REMARK    3  A    between atoms: C_18  and  C_19
REMARK    4  A    between atoms: C_19  and  C_20
REMARK    5  A    between atoms: C_20  and  C_21
REMARK    6  A    between atoms: C_21  and  O_22
REMARK    7  A    between atoms: O_22  and  C_28
REMARK                            x       y       z     vdW  Elec       q    Type
REMARK                         _______ _______ _______ _____ _____    ______ ____
ROOT
ATOM      1  N   UNL     1      35.693 -21.246 -19.910  0.00  0.00    +0.389 N 
ATOM      2  N   UNL     1      35.193 -18.936 -21.513  0.00  0.00    -0.312 N 
ATOM      3  C   UNL     1      34.319 -20.772 -20.121  0.00  0.00    -0.055 C 
ATOM      4  C   UNL     1      36.615 -20.104 -19.877  0.00  0.00    -0.055 C 
ATOM      5  C   UNL     1      34.198 -20.013 -21.444  0.00  0.00    +0.068 C 
ATOM      6  C   UNL     1      36.569 -19.322 -21.192  0.00  0.00    +0.068 C 
ATOM      7  H   UNL     1      35.953 -21.858 -20.683  0.00  0.00    -0.080 HD
ENDROOT
BRANCH   2   8
ATOM      8  C   UNL     1      34.957 -17.879 -22.400  0.00  0.00    +0.048 C 
ATOM      9  C   UNL     1      34.730 -16.544 -21.965  0.00  0.00    +0.013 C 
ATOM     10  C   UNL     1      34.942 -18.142 -23.787  0.00  0.00    +0.015 C 
ATOM     11  C   UNL     1      34.497 -15.513 -22.905  0.00  0.00    +0.001 C 
ATOM     12  C   UNL     1      34.735 -16.236 -20.595  0.00  0.00    +0.001 C 
ATOM     13  C   UNL     1      34.713 -17.127 -24.713  0.00  0.00    +0.001 C 
ATOM     14  C   UNL     1      34.492 -15.821 -24.276  0.00  0.00    +0.000 C 
ATOM     15  C   UNL     1      34.275 -14.204 -22.449  0.00  0.00    +0.000 C 
ATOM     16  C   UNL     1      34.514 -14.929 -20.158  0.00  0.00    +0.000 C 
ATOM     17  C   UNL     1      34.284 -13.915 -21.083  0.00  0.00    +0.000 C 
ENDBRANCH   2   8
BRANCH   1  18
ATOM     18  C   UNL     1      35.785 -22.016 -18.669  0.00  0.00    -0.077 C 
BRANCH  18  19
ATOM     19  C   UNL     1      36.771 -21.356 -17.707  0.00  0.00    -0.019 C 
BRANCH  19  20
ATOM     20  C   UNL     1      37.296 -22.358 -16.681  0.00  0.00    +0.045 C 
BRANCH  20  21
ATOM     21  C   UNL     1      36.283 -22.613 -15.573  0.00  0.00    +0.208 C 
BRANCH  21  22
ATOM     22  O   UNL     1      35.663 -23.876 -15.768  0.00  0.00    -0.452 OA
BRANCH  22  28
ATOM     23  O   UNL     1      28.895 -22.605 -16.913  0.00  0.00    -0.275 OA
ATOM     24  N   UNL     1      31.105 -23.091 -16.520  0.00  0.00    -0.263 N 
ATOM     25  N   UNL     1      33.404 -23.492 -16.130  0.00  0.00    -0.357 NA
ATOM     26  C   UNL     1      31.777 -24.239 -14.505  0.00  0.00    +0.090 C 
ATOM     27  C   UNL     1      30.335 -24.436 -14.147  0.00  0.00    +0.022 C 
ATOM     28  C   UNL     1      34.369 -24.003 -15.334  0.00  0.00    +0.278 C 
ATOM     29  C   UNL     1      32.125 -23.608 -15.699  0.00  0.00    +0.170 C 
ATOM     30  C   UNL     1      29.483 -23.303 -14.696  0.00  0.00    +0.086 C 
ATOM     31  C   UNL     1      32.803 -24.766 -13.720  0.00  0.00    -0.012 C 
ATOM     32  C   UNL     1      34.124 -24.641 -14.131  0.00  0.00    +0.068 C 
ATOM     33  C   UNL     1      29.777 -22.999 -16.150  0.00  0.00    +0.228 C 
ATOM     34  H   UNL     1      31.355 -22.773 -17.418  0.00  0.00    +0.157 HD
ENDBRANCH  22  28
ENDBRANCH  21  22
ENDBRANCH  20  21
ENDBRANCH  19  20
ENDBRANCH  18  19
ENDBRANCH   1  18
TORSDOF 7
ENDMDL
MODEL 2
REMARK VINA RESULT:     -11.9      3.146     10.263
REMARK  Name = 11697676
REMARK  7 active torsions:
REMARK  status: ('A' for Active; 'I' for Inactive)
REMARK    1  A    between atoms: N_1  and  C_18
REMARK    2  A    between atoms: N_2  and  C_8
REMARK    3  A    between atoms: C_18  and  C_19
REMARK    4  A    between atoms: C_19  and  C_20
REMARK    5  A    between atoms: C_20  and  C_21
REMARK    6  A    between atoms: C_21  and  O_22
REMARK    7  A    between atoms: O_22  and  C_28
REMARK                            x       y       z     vdW  Elec       q    Type
REMARK                         _______ _______ _______ _____ _____    ______ ____
ROOT
ATOM      1  N   UNL     1      35.469 -22.091 -19.052  0.00  0.00    +0.389 N 
ATOM      2  N   UNL     1      34.206 -23.079 -16.688  0.00  0.00    -0.312 N 
ATOM      3  C   UNL     1      36.016 -21.768 -17.728  0.00  0.00    -0.055 C 
ATOM      4  C   UNL     1      34.006 -22.193 -18.978  0.00  0.00    -0.055 C 
ATOM      5  C   UNL     1      35.656 -22.849 -16.707  0.00  0.00    +0.068 C 
ATOM      6  C   UNL     1      33.580 -23.288 -17.997  0.00  0.00    +0.068 C 
ATOM      7  H   UNL     1      35.847 -22.990 -19.354  0.00  0.00    -0.080 HD
ENDROOT
BRANCH   2   8
ATOM      8  C   UNL     1      33.649 -23.672 -15.550  0.00  0.00    +0.048 C 
ATOM      9  C   UNL     1      32.247 -23.719 -15.313  0.00  0.00    +0.013 C 
ATOM     10  C   UNL     1      34.509 -24.251 -14.591  0.00  0.00    +0.015 C 
ATOM     11  C   UNL     1      31.736 -24.331 -14.144  0.00  0.00    +0.001 C 
ATOM     12  C   UNL     1      31.354 -23.156 -16.239  0.00  0.00    +0.001 C 
ATOM     13  C   UNL     1      34.006 -24.855 -13.441  0.00  0.00    +0.001 C 
ATOM     14  C   UNL     1      32.630 -24.895 -13.219  0.00  0.00    +0.000 C 
ATOM     15  C   UNL     1      30.348 -24.363 -13.936  0.00  0.00    +0.000 C 
ATOM     16  C   UNL     1      29.978 -23.196 -16.016  0.00  0.00    +0.000 C 
ATOM     17  C   UNL     1      29.475 -23.798 -14.866  0.00  0.00    +0.000 C 
ENDBRANCH   2   8
BRANCH   1  18
ATOM     18  C   UNL     1      35.864 -21.079 -20.031  0.00  0.00    -0.077 C 
BRANCH  18  19
ATOM     19  C   UNL     1      34.634 -20.339 -20.555  0.00  0.00    -0.019 C 
BRANCH  19  20
ATOM     20  C   UNL     1      34.909 -19.706 -21.918  0.00  0.00    +0.045 C 
BRANCH  20  21
ATOM     21  C   UNL     1      35.944 -18.593 -21.823  0.00  0.00    +0.208 C 
BRANCH  21  22
ATOM     22  O   UNL     1      35.573 -17.675 -20.804  0.00  0.00    -0.452 OA
BRANCH  22  28
ATOM     23  O   UNL     1      33.245 -13.757 -26.092  0.00  0.00    -0.275 OA
ATOM     24  N   UNL     1      33.950 -15.033 -24.317  0.00  0.00    -0.263 N 
ATOM     25  N   UNL     1      34.767 -16.358 -22.536  0.00  0.00    -0.357 NA
ATOM     26  C   UNL     1      33.780 -14.204 -22.056  0.00  0.00    +0.090 C 
ATOM     27  C   UNL     1      33.034 -13.006 -22.561  0.00  0.00    +0.022 C 
ATOM     28  C   UNL     1      34.974 -16.510 -21.209  0.00  0.00    +0.278 C 
ATOM     29  C   UNL     1      34.183 -15.205 -22.940  0.00  0.00    +0.170 C 
ATOM     30  C   UNL     1      33.470 -12.655 -23.975  0.00  0.00    +0.086 C 
ATOM     31  C   UNL     1      34.000 -14.407 -20.693  0.00  0.00    -0.012 C 
ATOM     32  C   UNL     1      34.615 -15.574 -20.257  0.00  0.00    +0.068 C 
ATOM     33  C   UNL     1      33.506 -13.859 -24.893  0.00  0.00    +0.228 C 
ATOM     34  H   UNL     1      34.114 -15.802 -24.911  0.00  0.00    +0.157 HD
ENDBRANCH  22  28
ENDBRANCH  21  22
ENDBRANCH  20  21
ENDBRANCH  19  20
ENDBRANCH  18  19
ENDBRANCH   1  18
TORSDOF 7
ENDMDL
MODEL 3
REMARK VINA RESULT:     -11.5      5.085      8.677
REMARK  Name = 11697676
REMARK  7 active torsions:
REMARK  status: ('A' for Active; 'I' for Inactive)
REMARK    1  A    between atoms: N_1  and  C_18
REMARK    2  A    between atoms: N_2  and  C_8
REMARK    3  A    between atoms: C_18  and  C_19
REMARK    4  A    between atoms: C_19  and  C_20
REMARK    5  A    between atoms: C_20  and  C_21
REMARK    6  A    between atoms: C_21  and  O_22
REMARK    7  A    between atoms: O_22  and  C_28
REMARK                            x       y       z     vdW  Elec       q    Type
REMARK                         _______ _______ _______ _____ _____    ______ ____
ROOT
ATOM      1  N   UNL     1      32.029 -12.779 -21.260  0.00  0.00    +0.389 N 
ATOM      2  N   UNL     1      32.283  -9.982 -21.778  0.00  0.00    -0.312 N 
ATOM      3  C   UNL     1      32.270 -11.840 -20.158  0.00  0.00    -0.055 C 
ATOM      4  C   UNL     1      32.701 -12.306 -22.477  0.00  0.00    -0.055 C 
ATOM      5  C   UNL     1      31.735 -10.447 -20.498  0.00  0.00    +0.068 C 
ATOM      6  C   UNL     1      32.181 -10.928 -22.892  0.00  0.00    +0.068 C 
ATOM      7  H   UNL     1      31.025 -12.829 -21.437  0.00  0.00    -0.080 HD
ENDROOT
BRANCH   2   8
ATOM      8  C   UNL     1      32.281  -8.606 -22.033  0.00  0.00    +0.048 C 
ATOM      9  C   UNL     1      33.289  -7.964 -22.804  0.00  0.00    +0.013 C 
ATOM     10  C   UNL     1      31.237  -7.815 -21.506  0.00  0.00    +0.015 C 
ATOM     11  C   UNL     1      33.239  -6.568 -23.032  0.00  0.00    +0.001 C 
ATOM     12  C   UNL     1      34.347  -8.711 -23.348  0.00  0.00    +0.001 C 
ATOM     13  C   UNL     1      31.187  -6.442 -21.731  0.00  0.00    +0.001 C 
ATOM     14  C   UNL     1      32.180  -5.822 -22.489  0.00  0.00    +0.000 C 
ATOM     15  C   UNL     1      34.248  -5.960 -23.796  0.00  0.00    +0.000 C 
ATOM     16  C   UNL     1      35.341  -8.090 -24.105  0.00  0.00    +0.000 C 
ATOM     17  C   UNL     1      35.292  -6.717 -24.329  0.00  0.00    +0.000 C 
ENDBRANCH   2   8
BRANCH   1  18
ATOM     18  C   UNL     1      32.495 -14.119 -20.904  0.00  0.00    -0.077 C 
BRANCH  18  19
ATOM     19  C   UNL     1      33.999 -14.239 -21.144  0.00  0.00    -0.019 C 
BRANCH  19  20
ATOM     20  C   UNL     1      34.464 -15.689 -21.027  0.00  0.00    +0.045 C 
BRANCH  20  21
ATOM     21  C   UNL     1      35.253 -16.129 -22.253  0.00  0.00    +0.208 C 
BRANCH  21  22
ATOM     22  O   UNL     1      34.867 -17.443 -22.628  0.00  0.00    -0.452 OA
BRANCH  22  28
ATOM     23  O   UNL     1      32.988 -22.916 -18.723  0.00  0.00    -0.275 OA
ATOM     24  N   UNL     1      33.659 -21.154 -20.035  0.00  0.00    -0.263 N 
ATOM     25  N   UNL     1      34.280 -19.282 -21.341  0.00  0.00    -0.357 NA
ATOM     26  C   UNL     1      35.983 -20.507 -20.139  0.00  0.00    +0.090 C 
ATOM     27  C   UNL     1      36.344 -21.706 -19.314  0.00  0.00    +0.022 C 
ATOM     28  C   UNL     1      35.254 -18.463 -21.797  0.00  0.00    +0.278 C 
ATOM     29  C   UNL     1      34.658 -20.284 -20.512  0.00  0.00    +0.170 C 
ATOM     30  C   UNL     1      35.207 -22.077 -18.375  0.00  0.00    +0.086 C 
ATOM     31  C   UNL     1      36.958 -19.647 -20.643  0.00  0.00    -0.012 C 
ATOM     32  C   UNL     1      36.593 -18.599 -21.479  0.00  0.00    +0.068 C 
ATOM     33  C   UNL     1      33.863 -22.123 -19.072  0.00  0.00    +0.228 C 
ATOM     34  H   UNL     1      32.754 -21.068 -20.415  0.00  0.00    +0.157 HD
ENDBRANCH  22  28
ENDBRANCH  21  22
ENDBRANCH  20  21
ENDBRANCH  19  20
ENDBRANCH  18  19
ENDBRANCH   1  18
TORSDOF 7
ENDMDL
MODEL 4
REMARK VINA RESULT:     -11.4      1.764      3.101
REMARK  Name = 11697676
REMARK  7 active torsions:
REMARK  status: ('A' for Active; 'I' for Inactive)
REMARK    1  A    between atoms: N_1  and  C_18
REMARK    2  A    between atoms: N_2  and  C_8
REMARK    3  A    between atoms: C_18  and  C_19
REMARK    4  A    between atoms: C_19  and  C_20
REMARK    5  A    between atoms: C_20  and  C_21
REMARK    6  A    between atoms: C_21  and  O_22
REMARK    7  A    between atoms: O_22  and  C_28
REMARK                            x       y       z     vdW  Elec       q    Type
REMARK                         _______ _______ _______ _____ _____    ______ ____
ROOT
ATOM      1  N   UNL     1      35.465 -18.442 -22.355  0.00  0.00    +0.389 N 
ATOM      2  N   UNL     1      34.325 -15.859 -22.788  0.00  0.00    -0.312 N 
ATOM      3  C   UNL     1      34.538 -18.218 -23.471  0.00  0.00    -0.055 C 
ATOM      4  C   UNL     1      35.090 -17.594 -21.216  0.00  0.00    -0.055 C 
ATOM      5  C   UNL     1      34.568 -16.756 -23.925  0.00  0.00    +0.068 C 
ATOM      6  C   UNL     1      35.138 -16.112 -21.596  0.00  0.00    +0.068 C 
ATOM      7  H   UNL     1      36.408 -18.193 -22.655  0.00  0.00    -0.080 HD
ENDROOT
BRANCH   2   8
ATOM      8  C   UNL     1      33.875 -14.562 -23.060  0.00  0.00    +0.048 C 
ATOM      9  C   UNL     1      33.175 -13.774 -22.104  0.00  0.00    +0.013 C 
ATOM     10  C   UNL     1      34.121 -14.006 -24.334  0.00  0.00    +0.015 C 
ATOM     11  C   UNL     1      32.742 -12.467 -22.431  0.00  0.00    +0.001 C 
ATOM     12  C   UNL     1      32.908 -14.286 -20.824  0.00  0.00    +0.001 C 
ATOM     13  C   UNL     1      33.695 -12.719 -24.655  0.00  0.00    +0.001 C 
ATOM     14  C   UNL     1      33.011 -11.955 -23.711  0.00  0.00    +0.000 C 
ATOM     15  C   UNL     1      32.054 -11.711 -21.468  0.00  0.00    +0.000 C 
ATOM     16  C   UNL     1      32.223 -13.521 -19.880  0.00  0.00    +0.000 C 
ATOM     17  C   UNL     1      31.796 -12.236 -20.201  0.00  0.00    +0.000 C 
ENDBRANCH   2   8
BRANCH   1  18
ATOM     18  C   UNL     1      35.467 -19.852 -21.965  0.00  0.00    -0.077 C 
BRANCH  18  19
ATOM     19  C   UNL     1      34.584 -20.065 -20.738  0.00  0.00    -0.019 C 
BRANCH  19  20
ATOM     20  C   UNL     1      35.192 -21.099 -19.792  0.00  0.00    +0.045 C 
BRANCH  20  21
ATOM     21  C   UNL     1      34.187 -22.181 -19.420  0.00  0.00    +0.208 C 
BRANCH  21  22
ATOM     22  O   UNL     1      34.662 -22.916 -18.300  0.00  0.00    -0.452 OA
BRANCH  22  28
ATOM     23  O   UNL     1      28.052 -22.645 -16.070  0.00  0.00    -0.275 OA
ATOM     24  N   UNL     1      30.232 -22.800 -16.777  0.00  0.00    -0.263 N 
ATOM     25  N   UNL     1      32.472 -22.862 -17.535  0.00  0.00    -0.357 NA
ATOM     26  C   UNL     1      31.965 -23.564 -15.279  0.00  0.00    +0.090 C 
ATOM     27  C   UNL     1      30.922 -23.882 -14.250  0.00  0.00    +0.022 C 
ATOM     28  C   UNL     1      33.771 -23.136 -17.282  0.00  0.00    +0.278 C 
ATOM     29  C   UNL     1      31.591 -23.070 -16.528  0.00  0.00    +0.170 C 
ATOM     30  C   UNL     1      29.729 -22.948 -14.384  0.00  0.00    +0.086 C 
ATOM     31  C   UNL     1      33.314 -23.848 -15.063  0.00  0.00    -0.012 C 
ATOM     32  C   UNL     1      34.239 -23.623 -16.075  0.00  0.00    +0.068 C 
ATOM     33  C   UNL     1      29.244 -22.818 -15.812  0.00  0.00    +0.228 C 
ATOM     34  H   UNL     1      29.968 -22.584 -17.701  0.00  0.00    +0.157 HD
ENDBRANCH  22  28
ENDBRANCH  21  22
ENDBRANCH  20  21
ENDBRANCH  19  20
ENDBRANCH  18  19
ENDBRANCH   1  18
TORSDOF 7
ENDMDL
MODEL 5
REMARK VINA RESULT:     -11.4      3.551     10.850
REMARK  Name = 11697676
REMARK  7 active torsions:
REMARK  status: ('A' for Active; 'I' for Inactive)
REMARK    1  A    between atoms: N_1  and  C_18
REMARK    2  A    between atoms: N_2  and  C_8
REMARK    3  A    between atoms: C_18  and  C_19
REMARK    4  A    between atoms: C_19  and  C_20
REMARK    5  A    between atoms: C_20  and  C_21
REMARK    6  A    between atoms: C_21  and  O_22
REMARK    7  A    between atoms: O_22  and  C_28
REMARK                            x       y       z     vdW  Elec       q    Type
REMARK                         _______ _______ _______ _____ _____    ______ ____
ROOT
ATOM      1  N   UNL     1      34.456 -22.332 -17.789  0.00  0.00    +0.389 N 
ATOM      2  N   UNL     1      35.271 -23.632 -15.380  0.00  0.00    -0.312 N 
ATOM      3  C   UNL     1      33.750 -23.529 -17.317  0.00  0.00    -0.055 C 
ATOM      4  C   UNL     1      35.878 -22.418 -17.436  0.00  0.00    -0.055 C 
ATOM      5  C   UNL     1      33.864 -23.670 -15.797  0.00  0.00    +0.068 C 
ATOM      6  C   UNL     1      36.063 -22.523 -15.920  0.00  0.00    +0.068 C 
ATOM      7  H   UNL     1      34.053 -21.511 -17.335  0.00  0.00    -0.080 HD
ENDROOT
BRANCH   2   8
ATOM      8  C   UNL     1      35.604 -24.182 -14.137  0.00  0.00    +0.048 C 
ATOM      9  C   UNL     1      36.882 -24.743 -13.860  0.00  0.00    +0.013 C 
ATOM     10  C   UNL     1      34.635 -24.184 -13.109  0.00  0.00    +0.015 C 
ATOM     11  C   UNL     1      37.165 -25.286 -12.584  0.00  0.00    +0.001 C 
ATOM     12  C   UNL     1      37.875 -24.763 -14.851  0.00  0.00    +0.001 C 
ATOM     13  C   UNL     1      34.915 -24.718 -11.854  0.00  0.00    +0.001 C 
ATOM     14  C   UNL     1      36.171 -25.265 -11.592  0.00  0.00    +0.000 C 
ATOM     15  C   UNL     1      38.434 -25.834 -12.338  0.00  0.00    +0.000 C 
ATOM     16  C   UNL     1      39.132 -25.311 -14.589  0.00  0.00    +0.000 C 
ATOM     17  C   UNL     1      39.411 -25.846 -13.335  0.00  0.00    +0.000 C 
ENDBRANCH   2   8
BRANCH   1  18
ATOM     18  C   UNL     1      34.294 -22.178 -19.234  0.00  0.00    -0.077 C 
BRANCH  18  19
ATOM     19  C   UNL     1      35.242 -21.102 -19.763  0.00  0.00    -0.019 C 
BRANCH  19  20
ATOM     20  C   UNL     1      34.506 -20.113 -20.665  0.00  0.00    +0.045 C 
BRANCH  20  21
ATOM     21  C   UNL     1      35.470 -19.156 -21.353  0.00  0.00    +0.208 C 
BRANCH  21  22
ATOM     22  O   UNL     1      35.588 -17.962 -20.593  0.00  0.00    -0.452 OA
BRANCH  22  28
ATOM     23  O   UNL     1      33.421 -14.586 -26.306  0.00  0.00    -0.275 OA
ATOM     24  N   UNL     1      34.073 -15.678 -24.393  0.00  0.00    -0.263 N 
ATOM     25  N   UNL     1      34.835 -16.821 -22.468  0.00  0.00    -0.357 NA
ATOM     26  C   UNL     1      33.938 -14.588 -22.243  0.00  0.00    +0.090 C 
ATOM     27  C   UNL     1      33.241 -13.427 -22.886  0.00  0.00    +0.022 C 
ATOM     28  C   UNL     1      35.036 -16.828 -21.131  0.00  0.00    +0.278 C 
ATOM     29  C   UNL     1      34.299 -15.699 -23.004  0.00  0.00    +0.170 C 
ATOM     30  C   UNL     1      33.691 -13.258 -24.328  0.00  0.00    +0.086 C 
ATOM     31  C   UNL     1      34.149 -14.642 -20.865  0.00  0.00    -0.012 C 
ATOM     32  C   UNL     1      34.716 -15.774 -20.294  0.00  0.00    +0.068 C 
ATOM     33  C   UNL     1      33.677 -14.560 -25.102  0.00  0.00    +0.228 C 
ATOM     34  H   UNL     1      34.206 -16.515 -24.894  0.00  0.00    +0.157 HD
ENDBRANCH  22  28
ENDBRANCH  21  22
ENDBRANCH  20  21
ENDBRANCH  19  20
ENDBRANCH  18  19
ENDBRANCH   1  18
TORSDOF 7
ENDMDL
MODEL 6
REMARK VINA RESULT:     -11.4      4.964      8.707
REMARK  Name = 11697676
REMARK  7 active torsions:
REMARK  status: ('A' for Active; 'I' for Inactive)
REMARK    1  A    between atoms: N_1  and  C_18
REMARK    2  A    between atoms: N_2  and  C_8
REMARK    3  A    between atoms: C_18  and  C_19
REMARK    4  A    between atoms: C_19  and  C_20
REMARK    5  A    between atoms: C_20  and  C_21
REMARK    6  A    between atoms: C_21  and  O_22
REMARK    7  A    between atoms: O_22  and  C_28
REMARK                            x       y       z     vdW  Elec       q    Type
REMARK                         _______ _______ _______ _____ _____    ______ ____
ROOT
ATOM      1  N   UNL     1      33.261 -13.189 -23.039  0.00  0.00    +0.389 N 
ATOM      2  N   UNL     1      32.513 -10.548 -22.247  0.00  0.00    -0.312 N 
ATOM      3  C   UNL     1      33.606 -12.036 -23.881  0.00  0.00    -0.055 C 
ATOM      4  C   UNL     1      31.978 -12.949 -22.366  0.00  0.00    -0.055 C 
ATOM      5  C   UNL     1      33.729 -10.762 -23.041  0.00  0.00    +0.068 C 
ATOM      6  C   UNL     1      32.048 -11.705 -21.477  0.00  0.00    +0.068 C 
ATOM      7  H   UNL     1      33.986 -13.310 -22.333  0.00  0.00    -0.080 HD
ENDROOT
BRANCH   2   8
ATOM      8  C   UNL     1      32.250  -9.254 -21.783  0.00  0.00    +0.048 C 
ATOM      9  C   UNL     1      31.922  -8.176 -22.652  0.00  0.00    +0.013 C 
ATOM     10  C   UNL     1      32.311  -9.000 -20.396  0.00  0.00    +0.015 C 
ATOM     11  C   UNL     1      31.665  -6.887 -22.130  0.00  0.00    +0.001 C 
ATOM     12  C   UNL     1      31.851  -8.383 -24.039  0.00  0.00    +0.001 C 
ATOM     13  C   UNL     1      32.057  -7.731 -19.882  0.00  0.00    +0.001 C 
ATOM     14  C   UNL     1      31.736  -6.681 -20.742  0.00  0.00    +0.000 C 
ATOM     15  C   UNL     1      31.344  -5.841 -23.011  0.00  0.00    +0.000 C 
ATOM     16  C   UNL     1      31.530  -7.333 -24.900  0.00  0.00    +0.000 C 
ATOM     17  C   UNL     1      31.277  -6.064 -24.386  0.00  0.00    +0.000 C 
ENDBRANCH   2   8
BRANCH   1  18
ATOM     18  C   UNL     1      33.198 -14.409 -23.843  0.00  0.00    -0.077 C 
BRANCH  18  19
ATOM     19  C   UNL     1      34.443 -15.263 -23.608  0.00  0.00    -0.019 C 
BRANCH  19  20
ATOM     20  C   UNL     1      34.477 -16.462 -24.554  0.00  0.00    +0.045 C 
BRANCH  20  21
ATOM     21  C   UNL     1      34.793 -17.755 -23.813  0.00  0.00    +0.208 C 
BRANCH  21  22
ATOM     22  O   UNL     1      34.840 -17.510 -22.415  0.00  0.00    -0.452 OA
BRANCH  22  28
ATOM     23  O   UNL     1      33.046 -23.066 -18.589  0.00  0.00    -0.275 OA
ATOM     24  N   UNL     1      33.688 -21.276 -19.878  0.00  0.00    -0.263 N 
ATOM     25  N   UNL     1      34.281 -19.376 -21.155  0.00  0.00    -0.357 NA
ATOM     26  C   UNL     1      36.010 -20.633 -20.028  0.00  0.00    +0.090 C 
ATOM     27  C   UNL     1      36.389 -21.851 -19.240  0.00  0.00    +0.022 C 
ATOM     28  C   UNL     1      35.245 -18.549 -21.618  0.00  0.00    +0.278 C 
ATOM     29  C   UNL     1      34.676 -20.398 -20.360  0.00  0.00    +0.170 C 
ATOM     30  C   UNL     1      35.276 -22.241 -18.280  0.00  0.00    +0.086 C 
ATOM     31  C   UNL     1      36.975 -19.764 -20.537  0.00  0.00    -0.012 C 
ATOM     32  C   UNL     1      36.592 -18.696 -21.339  0.00  0.00    +0.068 C 
ATOM     33  C   UNL     1      33.914 -22.268 -18.942  0.00  0.00    +0.228 C 
ATOM     34  H   UNL     1      32.774 -21.178 -20.231  0.00  0.00    +0.157 HD
ENDBRANCH  22  28
ENDBRANCH  21  22
ENDBRANCH  20  21
ENDBRANCH  19  20
ENDBRANCH  18  19
ENDBRANCH   1  18
TORSDOF 7
ENDMDL
MODEL 7
REMARK VINA RESULT:     -11.3      3.597     10.966
REMARK  Name = 11697676
REMARK  7 active torsions:
REMARK  status: ('A' for Active; 'I' for Inactive)
REMARK    1  A    between atoms: N_1  and  C_18
REMARK    2  A    between atoms: N_2  and  C_8
REMARK    3  A    between atoms: C_18  and  C_19
REMARK    4  A    between atoms: C_19  and  C_20
REMARK    5  A    between atoms: C_20  and  C_21
REMARK    6  A    between atoms: C_21  and  O_22
REMARK    7  A    between atoms: O_22  and  C_28
REMARK                            x       y       z     vdW  Elec       q    Type
REMARK                         _______ _______ _______ _____ _____    ______ ____
ROOT
ATOM      1  N   UNL     1      34.054 -22.564 -17.487  0.00  0.00    +0.389 N 
ATOM      2  N   UNL     1      35.092 -23.781 -15.120  0.00  0.00    -0.312 N 
ATOM      3  C   UNL     1      33.452 -23.796 -16.960  0.00  0.00    -0.055 C 
ATOM      4  C   UNL     1      35.498 -22.561 -17.221  0.00  0.00    -0.055 C 
ATOM      5  C   UNL     1      33.667 -23.908 -15.449  0.00  0.00    +0.068 C 
ATOM      6  C   UNL     1      35.781 -22.634 -15.718  0.00  0.00    +0.068 C 
ATOM      7  H   UNL     1      33.631 -21.764 -17.018  0.00  0.00    -0.080 HD
ENDROOT
BRANCH   2   8
ATOM      8  C   UNL     1      35.532 -24.292 -13.894  0.00  0.00    +0.048 C 
ATOM      9  C   UNL     1      36.839 -24.822 -13.705  0.00  0.00    +0.013 C 
ATOM     10  C   UNL     1      34.647 -24.286 -12.793  0.00  0.00    +0.015 C 
ATOM     11  C   UNL     1      37.232 -25.328 -12.443  0.00  0.00    +0.001 C 
ATOM     12  C   UNL     1      37.752 -24.849 -14.771  0.00  0.00    +0.001 C 
ATOM     13  C   UNL     1      35.035 -24.782 -11.552  0.00  0.00    +0.001 C 
ATOM     14  C   UNL     1      36.318 -25.299 -11.377  0.00  0.00    +0.000 C 
ATOM     15  C   UNL     1      38.528 -25.845 -12.284  0.00  0.00    +0.000 C 
ATOM     16  C   UNL     1      39.036 -25.367 -14.595  0.00  0.00    +0.000 C 
ATOM     17  C   UNL     1      39.423 -25.864 -13.355  0.00  0.00    +0.000 C 
ENDBRANCH   2   8
BRANCH   1  18
ATOM     18  C   UNL     1      33.796 -22.441 -18.921  0.00  0.00    -0.077 C 
BRANCH  18  19
ATOM     19  C   UNL     1      34.971 -21.752 -19.614  0.00  0.00    -0.019 C 
BRANCH  19  20
ATOM     20  C   UNL     1      34.544 -20.424 -20.236  0.00  0.00    +0.045 C 
BRANCH  20  21
ATOM     21  C   UNL     1      35.641 -19.836 -21.114  0.00  0.00    +0.208 C 
BRANCH  21  22
ATOM     22  O   UNL     1      35.668 -18.423 -20.969  0.00  0.00    -0.452 OA
BRANCH  22  28
ATOM     23  O   UNL     1      33.856 -12.151 -23.442  0.00  0.00    -0.275 OA
ATOM     24  N   UNL     1      34.489 -14.227 -22.688  0.00  0.00    -0.263 N 
ATOM     25  N   UNL     1      35.081 -16.350 -21.831  0.00  0.00    -0.357 NA
ATOM     26  C   UNL     1      34.266 -16.173 -24.100  0.00  0.00    +0.090 C 
ATOM     27  C   UNL     1      33.861 -15.289 -25.240  0.00  0.00    +0.022 C 
ATOM     28  C   UNL     1      35.198 -17.683 -22.023  0.00  0.00    +0.278 C 
ATOM     29  C   UNL     1      34.608 -15.618 -22.867  0.00  0.00    +0.170 C 
ATOM     30  C   UNL     1      33.149 -14.045 -24.732  0.00  0.00    +0.086 C 
ATOM     31  C   UNL     1      34.415 -17.551 -24.261  0.00  0.00    -0.012 C 
ATOM     32  C   UNL     1      34.879 -18.326 -23.206  0.00  0.00    +0.068 C 
ATOM     33  C   UNL     1      33.885 -13.373 -23.591  0.00  0.00    +0.228 C 
ATOM     34  H   UNL     1      34.861 -13.835 -21.865  0.00  0.00    +0.157 HD
ENDBRANCH  22  28
ENDBRANCH  21  22
ENDBRANCH  20  21
ENDBRANCH  19  20
ENDBRANCH  18  19
ENDBRANCH   1  18
TORSDOF 7
ENDMDL
MODEL 8
REMARK VINA RESULT:     -11.3      2.020      3.822
REMARK  Name = 11697676
REMARK  7 active torsions:
REMARK  status: ('A' for Active; 'I' for Inactive)
REMARK    1  A    between atoms: N_1  and  C_18
REMARK    2  A    between atoms: N_2  and  C_8
REMARK    3  A    between atoms: C_18  and  C_19
REMARK    4  A    between atoms: C_19  and  C_20
REMARK    5  A    between atoms: C_20  and  C_21
REMARK    6  A    between atoms: C_21  and  O_22
REMARK    7  A    between atoms: O_22  and  C_28
REMARK                            x       y       z     vdW  Elec       q    Type
REMARK                         _______ _______ _______ _____ _____    ______ ____
ROOT
ATOM      1  N   UNL     1      35.993 -20.781 -20.368  0.00  0.00    +0.389 N 
ATOM      2  N   UNL     1      35.253 -18.451 -21.847  0.00  0.00    -0.312 N 
ATOM      3  C   UNL     1      34.577 -20.454 -20.578  0.00  0.00    -0.055 C 
ATOM      4  C   UNL     1      36.779 -19.546 -20.253  0.00  0.00    -0.055 C 
ATOM      5  C   UNL     1      34.387 -19.636 -21.858  0.00  0.00    +0.068 C 
ATOM      6  C   UNL     1      36.661 -18.698 -21.522  0.00  0.00    +0.068 C 
ATOM      7  H   UNL     1      36.331 -21.313 -21.171  0.00  0.00    -0.080 HD
ENDROOT
BRANCH   2   8
ATOM      8  C   UNL     1      34.910 -17.378 -22.677  0.00  0.00    +0.048 C 
ATOM      9  C   UNL     1      34.626 -16.077 -22.176  0.00  0.00    +0.013 C 
ATOM     10  C   UNL     1      34.840 -17.588 -24.071  0.00  0.00    +0.015 C 
ATOM     11  C   UNL     1      34.284 -15.027 -23.060  0.00  0.00    +0.001 C 
ATOM     12  C   UNL     1      34.683 -15.822 -20.796  0.00  0.00    +0.001 C 
ATOM     13  C   UNL     1      34.504 -16.554 -24.941  0.00  0.00    +0.001 C 
ATOM     14  C   UNL     1      34.228 -15.282 -24.440  0.00  0.00    +0.000 C 
ATOM     15  C   UNL     1      34.009 -13.752 -22.539  0.00  0.00    +0.000 C 
ATOM     16  C   UNL     1      34.407 -14.550 -20.295  0.00  0.00    +0.000 C 
ATOM     17  C   UNL     1      34.070 -13.517 -21.165  0.00  0.00    +0.000 C 
ENDBRANCH   2   8
BRANCH   1  18
ATOM     18  C   UNL     1      36.157 -21.607 -19.173  0.00  0.00    -0.077 C 
BRANCH  18  19
ATOM     19  C   UNL     1      34.953 -22.531 -18.998  0.00  0.00    -0.019 C 
BRANCH  19  20
ATOM     20  C   UNL     1      34.564 -22.659 -17.526  0.00  0.00    +0.045 C 
BRANCH  20  21
ATOM     21  C   UNL     1      33.519 -23.746 -17.313  0.00  0.00    +0.208 C 
BRANCH  21  22
ATOM     22  O   UNL     1      33.048 -23.706 -15.974  0.00  0.00    -0.452 OA
BRANCH  22  28
ATOM     23  O   UNL     1      38.966 -27.052 -14.391  0.00  0.00    -0.275 OA
ATOM     24  N   UNL     1      37.038 -25.899 -14.867  0.00  0.00    -0.263 N 
ATOM     25  N   UNL     1      35.021 -24.790 -15.414  0.00  0.00    -0.357 NA
ATOM     26  C   UNL     1      35.658 -25.016 -13.093  0.00  0.00    +0.090 C 
ATOM     27  C   UNL     1      36.698 -25.423 -12.094  0.00  0.00    +0.022 C 
ATOM     28  C   UNL     1      33.911 -24.139 -15.001  0.00  0.00    +0.278 C 
ATOM     29  C   UNL     1      35.871 -25.227 -14.455  0.00  0.00    +0.170 C 
ATOM     30  C   UNL     1      37.456 -26.651 -12.573  0.00  0.00    +0.086 C 
ATOM     31  C   UNL     1      34.507 -24.326 -12.710  0.00  0.00    -0.012 C 
ATOM     32  C   UNL     1      33.610 -23.886 -13.675  0.00  0.00    +0.068 C 
ATOM     33  C   UNL     1      37.918 -26.531 -14.010  0.00  0.00    +0.228 C 
ATOM     34  H   UNL     1      37.240 -25.919 -15.830  0.00  0.00    +0.157 HD
ENDBRANCH  22  28
ENDBRANCH  21  22
ENDBRANCH  20  21
ENDBRANCH  19  20
ENDBRANCH  18  19
ENDBRANCH   1  18
TORSDOF 7
ENDMDL
MODEL 9
REMARK VINA RESULT:     -11.1      6.901     11.541
REMARK  Name = 11697676
REMARK  7 active torsions:
REMARK  status: ('A' for Active; 'I' for Inactive)
REMARK    1  A    between atoms: N_1  and  C_18
REMARK    2  A    between atoms: N_2  and  C_8
REMARK    3  A    between atoms: C_18  and  C_19
REMARK    4  A    between atoms: C_19  and  C_20
REMARK    5  A    between atoms: C_20  and  C_21
REMARK    6  A    between atoms: C_21  and  O_22
REMARK    7  A    between atoms: O_22  and  C_28
REMARK                            x       y       z     vdW  Elec       q    Type
REMARK                         _______ _______ _______ _____ _____    ______ ____
ROOT
ATOM      1  N   UNL     1      31.615  -9.382 -20.504  0.00  0.00    +0.389 N 
ATOM      2  N   UNL     1      32.125  -7.176 -22.245  0.00  0.00    -0.312 N 
ATOM      3  C   UNL     1      32.663  -8.406 -20.178  0.00  0.00    -0.055 C 
ATOM      4  C   UNL     1      31.521  -9.546 -21.959  0.00  0.00    -0.055 C 
ATOM      5  C   UNL     1      32.355  -7.042 -20.801  0.00  0.00    +0.068 C 
ATOM      6  C   UNL     1      31.177  -8.220 -22.642  0.00  0.00    +0.068 C 
ATOM      7  H   UNL     1      30.722  -9.035 -20.153  0.00  0.00    -0.080 HD
ENDROOT
BRANCH   2   8
ATOM      8  C   UNL     1      32.276  -6.036 -23.043  0.00  0.00    +0.048 C 
ATOM      9  C   UNL     1      33.329  -5.892 -23.990  0.00  0.00    +0.013 C 
ATOM     10  C   UNL     1      31.350  -4.979 -22.908  0.00  0.00    +0.015 C 
ATOM     11  C   UNL     1      33.436  -4.718 -24.771  0.00  0.00    +0.001 C 
ATOM     12  C   UNL     1      34.274  -6.918 -24.157  0.00  0.00    +0.001 C 
ATOM     13  C   UNL     1      31.455  -3.823 -23.678  0.00  0.00    +0.001 C 
ATOM     14  C   UNL     1      32.490  -3.693 -24.603  0.00  0.00    +0.000 C 
ATOM     15  C   UNL     1      34.484  -4.603 -25.698  0.00  0.00    +0.000 C 
ATOM     16  C   UNL     1      35.309  -6.787 -25.083  0.00  0.00    +0.000 C 
ATOM     17  C   UNL     1      35.415  -5.631 -25.852  0.00  0.00    +0.000 C 
ENDBRANCH   2   8
BRANCH   1  18
ATOM     18  C   UNL     1      31.892 -10.665 -19.859  0.00  0.00    -0.077 C 
BRANCH  18  19
ATOM     19  C   UNL     1      31.291 -11.809 -20.674  0.00  0.00    -0.019 C 
BRANCH  19  20
ATOM     20  C   UNL     1      32.320 -12.910 -20.921  0.00  0.00    +0.045 C 
BRANCH  20  21
ATOM     21  C   UNL     1      32.717 -12.991 -22.389  0.00  0.00    +0.208 C 
BRANCH  21  22
ATOM     22  O   UNL     1      34.074 -13.395 -22.501  0.00  0.00    -0.452 OA
BRANCH  22  28
ATOM     23  O   UNL     1      36.136 -19.639 -20.158  0.00  0.00    -0.275 OA
ATOM     24  N   UNL     1      35.402 -17.616 -20.960  0.00  0.00    -0.263 N 
ATOM     25  N   UNL     1      34.730 -15.489 -21.749  0.00  0.00    -0.357 NA
ATOM     26  C   UNL     1      34.775 -17.361 -23.278  0.00  0.00    +0.090 C 
ATOM     27  C   UNL     1      34.945 -18.837 -23.477  0.00  0.00    +0.022 C 
ATOM     28  C   UNL     1      34.305 -14.718 -22.774  0.00  0.00    +0.278 C 
ATOM     29  C   UNL     1      34.968 -16.795 -22.018  0.00  0.00    +0.170 C 
ATOM     30  C   UNL     1      36.007 -19.389 -22.539  0.00  0.00    +0.086 C 
ATOM     31  C   UNL     1      34.322 -16.533 -24.305  0.00  0.00    -0.012 C 
ATOM     32  C   UNL     1      34.090 -15.186 -24.058  0.00  0.00    +0.068 C 
ATOM     33  C   UNL     1      35.827 -18.921 -21.110  0.00  0.00    +0.228 C 
ATOM     34  H   UNL     1      35.401 -17.234 -20.052  0.00  0.00    +0.157 HD
ENDBRANCH  22  28
ENDBRANCH  21  22
ENDBRANCH  20  21
ENDBRANCH  19  20
ENDBRANCH  18  19
ENDBRANCH   1  18
TORSDOF 7
ENDMDL
