MODEL 1
REMARK VINA RESULT:     -11.7      0.000      0.000
REMARK  Name = 15984937
REMARK  6 active torsions:
REMARK  status: ('A' for Active; 'I' for Inactive)
REMARK    1  A    between atoms: C_1  and  C_9
REMARK    2  A    between atoms: C_1  and  C_20
REMARK    3  A    between atoms: C_4  and  N_10
REMARK    4  A    between atoms: N_10  and  C_13
REMARK    5  A    between atoms: C_19  and  C_25
REMARK    6  A    between atoms: C_25  and  N_26
REMARK                            x       y       z     vdW  Elec       q    Type
REMARK                         _______ _______ _______ _____ _____    ______ ____
ROOT
ATOM      1  C   UNL     1      35.948 -19.286 -21.093  0.00  0.00    +0.112 C 
ENDROOT
BRANCH   1   9
ATOM      2  O   UNL     1      35.378 -20.142 -23.227  0.00  0.00    -0.275 OA
ATOM      3  N   UNL     1      34.714 -17.962 -22.774  0.00  0.00    -0.279 N 
ATOM      4  C   UNL     1      34.616 -15.302 -23.946  0.00  0.00    +0.072 C 
ATOM      5  C   UNL     1      35.224 -15.560 -22.564  0.00  0.00    +0.041 C 
ATOM      6  C   UNL     1      34.624 -16.569 -24.807  0.00  0.00    +0.041 C 
ATOM      7  C   UNL     1      34.634 -16.798 -21.886  0.00  0.00    +0.095 C 
ATOM      8  C   UNL     1      34.062 -17.787 -24.073  0.00  0.00    +0.095 C 
ATOM      9  C   UNL     1      35.323 -19.177 -22.460  0.00  0.00    +0.230 C 
BRANCH   4  10
ATOM     10  N   UNL     1      33.265 -14.795 -23.805  0.00  0.00    -0.334 N 
ATOM     11  H   UNL     1      32.520 -15.366 -24.104  0.00  0.00    +0.147 HD
BRANCH  10  13
ATOM     12  F   UNL     1      31.139 -12.084 -20.466  0.00  0.00    -0.204 F 
ATOM     13  C   UNL     1      32.966 -13.553 -23.277  0.00  0.00    +0.047 C 
ATOM     14  C   UNL     1      32.185 -13.430 -22.110  0.00  0.00    +0.044 C 
ATOM     15  C   UNL     1      33.430 -12.372 -23.890  0.00  0.00    +0.014 C 
ATOM     16  C   UNL     1      31.882 -12.177 -21.578  0.00  0.00    +0.141 C 
ATOM     17  C   UNL     1      33.127 -11.119 -23.358  0.00  0.00    +0.004 C 
ATOM     18  C   UNL     1      32.352 -11.022 -22.201  0.00  0.00    +0.030 C 
ENDBRANCH  10  13
ENDBRANCH   4  10
ENDBRANCH   1   9
BRANCH   1  20
ATOM     19  C   UNL     1      34.047 -22.365 -18.806  0.00  0.00    -0.043 C 
ATOM     20  C   UNL     1      35.284 -20.363 -20.294  0.00  0.00    -0.013 C 
ATOM     21  C   UNL     1      35.439 -22.285 -18.846  0.00  0.00    -0.007 C 
ATOM     22  C   UNL     1      33.275 -21.443 -19.512  0.00  0.00    -0.007 C 
ATOM     23  C   UNL     1      36.059 -21.281 -19.591  0.00  0.00    -0.004 C 
ATOM     24  C   UNL     1      33.894 -20.440 -20.258  0.00  0.00    -0.004 C 
BRANCH  19  25
ATOM     25  C   UNL     1      33.385 -23.438 -18.011  0.00  0.00    -0.050 C 
BRANCH  25  26
ATOM     26  N   UNL     1      33.303 -23.107 -16.589  0.00  0.00    +0.387 N 
ATOM     27  N   UNL     1      32.802 -23.747 -13.817  0.00  0.00    +0.382 N 
ATOM     28  C   UNL     1      34.169 -23.559 -14.315  0.00  0.00    -0.083 C 
ATOM     29  C   UNL     1      34.254 -23.910 -15.810  0.00  0.00    -0.099 C 
ATOM     30  C   UNL     1      31.937 -23.301 -16.087  0.00  0.00    -0.101 C 
ATOM     31  C   UNL     1      31.850 -22.959 -14.599  0.00  0.00    -0.105 C 
ATOM     32  C   UNL     1      35.120 -24.434 -13.501  0.00  0.00    -0.026 C 
ATOM     33  H   UNL     1      33.548 -22.123 -16.479  0.00  0.00    -0.079 HD
ATOM     34  H   UNL     1      32.757 -23.453 -12.842  0.00  0.00    -0.085 HD
ATOM     35  H   UNL     1      32.556 -24.734 -13.903  0.00  0.00    -0.085 HD
ENDBRANCH  25  26
ENDBRANCH  19  25
ENDBRANCH   1  20
TORSDOF 6
ENDMDL
MODEL 2
REMARK VINA RESULT:     -11.4      4.892      8.881
REMARK  Name = 15984937
REMARK  6 active torsions:
REMARK  status: ('A' for Active; 'I' for Inactive)
REMARK    1  A    between atoms: C_1  and  C_9
REMARK    2  A    between atoms: C_1  and  C_20
REMARK    3  A    between atoms: C_4  and  N_10
REMARK    4  A    between atoms: N_10  and  C_13
REMARK    5  A    between atoms: C_19  and  C_25
REMARK    6  A    between atoms: C_25  and  N_26
REMARK                            x       y       z     vdW  Elec       q    Type
REMARK                         _______ _______ _______ _____ _____    ______ ____
ROOT
ATOM      1  C   UNL     1      30.990 -11.727 -21.060  0.00  0.00    +0.112 C 
ENDROOT
BRANCH   1   9
ATOM      2  O   UNL     1      31.444 -10.774 -18.938  0.00  0.00    -0.275 OA
ATOM      3  N   UNL     1      32.127  -9.549 -20.791  0.00  0.00    -0.279 N 
ATOM      4  C   UNL     1      32.153  -6.851 -21.877  0.00  0.00    +0.072 C 
ATOM      5  C   UNL     1      31.623  -8.045 -22.677  0.00  0.00    +0.041 C 
ATOM      6  C   UNL     1      32.101  -7.120 -20.369  0.00  0.00    +0.041 C 
ATOM      7  C   UNL     1      32.253  -9.369 -22.241  0.00  0.00    +0.095 C 
ATOM      8  C   UNL     1      32.705  -8.471 -19.988  0.00  0.00    +0.095 C 
ATOM      9  C   UNL     1      31.539 -10.647 -20.162  0.00  0.00    +0.230 C 
BRANCH   4  10
ATOM     10  N   UNL     1      33.508  -6.542 -22.288  0.00  0.00    -0.334 N 
ATOM     11  H   UNL     1      34.242  -6.734 -21.658  0.00  0.00    +0.147 HD
BRANCH  10  13
ATOM     12  F   UNL     1      32.474  -3.606 -25.939  0.00  0.00    -0.204 F 
ATOM     13  C   UNL     1      33.828  -5.991 -23.515  0.00  0.00    +0.047 C 
ATOM     14  C   UNL     1      32.976  -5.053 -24.132  0.00  0.00    +0.044 C 
ATOM     15  C   UNL     1      35.014  -6.350 -24.185  0.00  0.00    +0.014 C 
ATOM     16  C   UNL     1      33.298  -4.498 -25.370  0.00  0.00    +0.141 C 
ATOM     17  C   UNL     1      35.336  -5.795 -25.424  0.00  0.00    +0.004 C 
ATOM     18  C   UNL     1      34.477  -4.868 -26.016  0.00  0.00    +0.030 C 
ENDBRANCH  10  13
ENDBRANCH   4  10
ENDBRANCH   1   9
BRANCH   1  20
ATOM     19  C   UNL     1      34.054 -14.537 -22.083  0.00  0.00    -0.043 C 
ATOM     20  C   UNL     1      32.061 -12.709 -21.417  0.00  0.00    -0.013 C 
ATOM     21  C   UNL     1      33.562 -14.485 -20.778  0.00  0.00    -0.007 C 
ATOM     22  C   UNL     1      33.547 -13.673 -23.053  0.00  0.00    -0.007 C 
ATOM     23  C   UNL     1      32.564 -13.570 -20.444  0.00  0.00    -0.004 C 
ATOM     24  C   UNL     1      32.549 -12.757 -22.720  0.00  0.00    -0.004 C 
BRANCH  19  25
ATOM     25  C   UNL     1      35.121 -15.515 -22.439  0.00  0.00    -0.050 C 
BRANCH  25  26
ATOM     26  N   UNL     1      34.617 -16.885 -22.515  0.00  0.00    +0.387 N 
ATOM     27  N   UNL     1      34.907 -19.714 -23.026  0.00  0.00    +0.382 N 
ATOM     28  C   UNL     1      34.803 -19.199 -21.656  0.00  0.00    -0.083 C 
ATOM     29  C   UNL     1      35.336 -17.758 -21.577  0.00  0.00    -0.099 C 
ATOM     30  C   UNL     1      34.726 -17.404 -23.884  0.00  0.00    -0.101 C 
ATOM     31  C   UNL     1      34.204 -18.839 -23.964  0.00  0.00    -0.105 C 
ATOM     32  C   UNL     1      35.589 -20.115 -20.719  0.00  0.00    -0.026 C 
ATOM     33  H   UNL     1      33.632 -16.875 -22.253  0.00  0.00    -0.079 HD
ATOM     34  H   UNL     1      34.496 -20.646 -23.065  0.00  0.00    -0.085 HD
ATOM     35  H   UNL     1      35.892 -19.748 -23.288  0.00  0.00    -0.085 HD
ENDBRANCH  25  26
ENDBRANCH  19  25
ENDBRANCH   1  20
TORSDOF 6
ENDMDL
MODEL 3
REMARK VINA RESULT:     -10.8      2.356      3.986
REMARK  Name = 15984937
REMARK  6 active torsions:
REMARK  status: ('A' for Active; 'I' for Inactive)
REMARK    1  A    between atoms: C_1  and  C_9
REMARK    2  A    between atoms: C_1  and  C_20
REMARK    3  A    between atoms: C_4  and  N_10
REMARK    4  A    between atoms: N_10  and  C_13
REMARK    5  A    between atoms: C_19  and  C_25
REMARK    6  A    between atoms: C_25  and  N_26
REMARK                            x       y       z     vdW  Elec       q    Type
REMARK                         _______ _______ _______ _____ _____    ______ ____
ROOT
ATOM      1  C   UNL     1      36.345 -21.687 -19.291  0.00  0.00    +0.112 C 
ENDROOT
BRANCH   1   9
ATOM      2  O   UNL     1      34.097 -21.884 -20.013  0.00  0.00    -0.275 OA
ATOM      3  N   UNL     1      35.216 -19.944 -20.631  0.00  0.00    -0.279 N 
ATOM      4  C   UNL     1      35.664 -18.173 -22.894  0.00  0.00    +0.072 C 
ATOM      5  C   UNL     1      36.821 -18.756 -22.076  0.00  0.00    +0.041 C 
ATOM      6  C   UNL     1      34.402 -19.034 -22.773  0.00  0.00    +0.041 C 
ATOM      7  C   UNL     1      36.412 -19.094 -20.641  0.00  0.00    +0.095 C 
ATOM      8  C   UNL     1      34.058 -19.379 -21.324  0.00  0.00    +0.095 C 
ATOM      9  C   UNL     1      35.115 -21.188 -20.007  0.00  0.00    +0.230 C 
BRANCH   4  10
ATOM     10  N   UNL     1      35.391 -16.815 -22.467  0.00  0.00    -0.334 N 
ATOM     11  H   UNL     1      35.690 -16.540 -21.569  0.00  0.00    +0.147 HD
BRANCH  10  13
ATOM     12  F   UNL     1      33.676 -12.383 -23.126  0.00  0.00    -0.204 F 
ATOM     13  C   UNL     1      34.731 -15.885 -23.249  0.00  0.00    +0.047 C 
ATOM     14  C   UNL     1      34.526 -14.568 -22.792  0.00  0.00    +0.044 C 
ATOM     15  C   UNL     1      34.244 -16.226 -24.526  0.00  0.00    +0.014 C 
ATOM     16  C   UNL     1      33.859 -13.630 -23.580  0.00  0.00    +0.141 C 
ATOM     17  C   UNL     1      33.577 -15.288 -25.315  0.00  0.00    +0.004 C 
ATOM     18  C   UNL     1      33.385 -13.990 -24.841  0.00  0.00    +0.030 C 
ENDBRANCH  10  13
ENDBRANCH   4  10
ENDBRANCH   1   9
BRANCH   1  20
ATOM     19  C   UNL     1      35.347 -23.063 -15.362  0.00  0.00    -0.043 C 
ATOM     20  C   UNL     1      35.996 -22.167 -17.918  0.00  0.00    -0.013 C 
ATOM     21  C   UNL     1      34.450 -23.247 -16.414  0.00  0.00    -0.007 C 
ATOM     22  C   UNL     1      36.569 -22.431 -15.591  0.00  0.00    -0.007 C 
ATOM     23  C   UNL     1      34.775 -22.799 -17.695  0.00  0.00    -0.004 C 
ATOM     24  C   UNL     1      36.894 -21.981 -16.871  0.00  0.00    -0.004 C 
BRANCH  19  25
ATOM     25  C   UNL     1      35.000 -23.542 -13.994  0.00  0.00    -0.050 C 
BRANCH  25  26
ATOM     26  N   UNL     1      36.168 -23.616 -13.117  0.00  0.00    +0.387 N 
ATOM     27  N   UNL     1      37.869 -24.945 -11.197  0.00  0.00    +0.382 N 
ATOM     28  C   UNL     1      38.281 -24.795 -12.597  0.00  0.00    -0.083 C 
ATOM     29  C   UNL     1      37.052 -24.719 -13.519  0.00  0.00    -0.099 C 
ATOM     30  C   UNL     1      35.757 -23.773 -11.716  0.00  0.00    -0.101 C 
ATOM     31  C   UNL     1      36.977 -23.856 -10.798  0.00  0.00    -0.105 C 
ATOM     32  C   UNL     1      39.171 -25.975 -12.984  0.00  0.00    -0.026 C 
ATOM     33  H   UNL     1      36.684 -22.741 -13.204  0.00  0.00    -0.079 HD
ATOM     34  H   UNL     1      38.696 -24.934 -10.601  0.00  0.00    -0.085 HD
ATOM     35  H   UNL     1      37.369 -25.828 -11.096  0.00  0.00    -0.085 HD
ENDBRANCH  25  26
ENDBRANCH  19  25
ENDBRANCH   1  20
TORSDOF 6
ENDMDL
MODEL 4
REMARK VINA RESULT:     -10.7      3.692     11.542
REMARK  Name = 15984937
REMARK  6 active torsions:
REMARK  status: ('A' for Active; 'I' for Inactive)
REMARK    1  A    between atoms: C_1  and  C_9
REMARK    2  A    between atoms: C_1  and  C_20
REMARK    3  A    between atoms: C_4  and  N_10
REMARK    4  A    between atoms: N_10  and  C_13
REMARK    5  A    between atoms: C_19  and  C_25
REMARK    6  A    between atoms: C_25  and  N_26
REMARK                            x       y       z     vdW  Elec       q    Type
REMARK                         _______ _______ _______ _____ _____    ______ ____
ROOT
ATOM      1  C   UNL     1      35.890 -21.390 -18.853  0.00  0.00    +0.112 C 
ENDROOT
BRANCH   1   9
ATOM      2  O   UNL     1      33.698 -22.097 -19.410  0.00  0.00    -0.275 OA
ATOM      3  N   UNL     1      34.588 -22.940 -17.436  0.00  0.00    -0.279 N 
ATOM      4  C   UNL     1      33.919 -23.455 -14.652  0.00  0.00    +0.072 C 
ATOM      5  C   UNL     1      35.174 -22.674 -15.057  0.00  0.00    +0.041 C 
ATOM      6  C   UNL     1      32.850 -23.404 -15.749  0.00  0.00    +0.041 C 
ATOM      7  C   UNL     1      35.672 -23.047 -16.454  0.00  0.00    +0.095 C 
ATOM      8  C   UNL     1      33.405 -23.745 -17.132  0.00  0.00    +0.095 C 
ATOM      9  C   UNL     1      34.625 -22.171 -18.599  0.00  0.00    +0.230 C 
BRANCH   4  10
ATOM     10  N   UNL     1      34.268 -24.829 -14.350  0.00  0.00    -0.334 N 
ATOM     11  H   UNL     1      33.661 -25.542 -14.656  0.00  0.00    +0.147 HD
BRANCH  10  13
ATOM     12  F   UNL     1      38.584 -26.920 -14.211  0.00  0.00    -0.204 F 
ATOM     13  C   UNL     1      35.406 -25.193 -13.653  0.00  0.00    +0.047 C 
ATOM     14  C   UNL     1      36.453 -25.890 -14.289  0.00  0.00    +0.044 C 
ATOM     15  C   UNL     1      35.552 -24.881 -12.288  0.00  0.00    +0.014 C 
ATOM     16  C   UNL     1      37.600 -26.259 -13.586  0.00  0.00    +0.141 C 
ATOM     17  C   UNL     1      36.699 -25.250 -11.585  0.00  0.00    +0.004 C 
ATOM     18  C   UNL     1      37.723 -25.939 -12.235  0.00  0.00    +0.030 C 
ENDBRANCH  10  13
ENDBRANCH   4  10
ENDBRANCH   1   9
BRANCH   1  20
ATOM     19  C   UNL     1      35.471 -18.933 -22.333  0.00  0.00    -0.043 C 
ATOM     20  C   UNL     1      35.744 -20.532 -20.070  0.00  0.00    -0.013 C 
ATOM     21  C   UNL     1      34.382 -19.666 -21.862  0.00  0.00    -0.007 C 
ATOM     22  C   UNL     1      36.696 -19.001 -21.671  0.00  0.00    -0.007 C 
ATOM     23  C   UNL     1      34.518 -20.467 -20.728  0.00  0.00    -0.004 C 
ATOM     24  C   UNL     1      36.833 -19.802 -20.537  0.00  0.00    -0.004 C 
BRANCH  19  25
ATOM     25  C   UNL     1      35.325 -18.078 -23.545  0.00  0.00    -0.050 C 
BRANCH  25  26
ATOM     26  N   UNL     1      34.506 -16.892 -23.296  0.00  0.00    +0.387 N 
ATOM     27  N   UNL     1      34.043 -14.041 -23.250  0.00  0.00    +0.382 N 
ATOM     28  C   UNL     1      33.425 -14.892 -24.273  0.00  0.00    -0.083 C 
ATOM     29  C   UNL     1      34.289 -16.137 -24.537  0.00  0.00    -0.099 C 
ATOM     30  C   UNL     1      35.126 -16.036 -22.277  0.00  0.00    -0.101 C 
ATOM     31  C   UNL     1      34.273 -14.794 -22.018  0.00  0.00    -0.105 C 
ATOM     32  C   UNL     1      33.246 -14.080 -25.555  0.00  0.00    -0.026 C 
ATOM     33  H   UNL     1      33.600 -17.203 -22.945  0.00  0.00    -0.079 HD
ATOM     34  H   UNL     1      33.426 -13.255 -23.051  0.00  0.00    -0.085 HD
ATOM     35  H   UNL     1      34.941 -13.709 -23.601  0.00  0.00    -0.085 HD
ENDBRANCH  25  26
ENDBRANCH  19  25
ENDBRANCH   1  20
TORSDOF 6
ENDMDL
MODEL 5
REMARK VINA RESULT:     -10.6      2.847     10.620
REMARK  Name = 15984937
REMARK  6 active torsions:
REMARK  status: ('A' for Active; 'I' for Inactive)
REMARK    1  A    between atoms: C_1  and  C_9
REMARK    2  A    between atoms: C_1  and  C_20
REMARK    3  A    between atoms: C_4  and  N_10
REMARK    4  A    between atoms: N_10  and  C_13
REMARK    5  A    between atoms: C_19  and  C_25
REMARK    6  A    between atoms: C_25  and  N_26
REMARK                            x       y       z     vdW  Elec       q    Type
REMARK                         _______ _______ _______ _____ _____    ______ ____
ROOT
ATOM      1  C   UNL     1      35.436 -22.333 -19.095  0.00  0.00    +0.112 C 
ENDROOT
BRANCH   1   9
ATOM      2  O   UNL     1      37.020 -21.488 -17.549  0.00  0.00    -0.275 OA
ATOM      3  N   UNL     1      35.166 -22.562 -16.650  0.00  0.00    -0.279 N 
ATOM      4  C   UNL     1      34.393 -24.497 -14.620  0.00  0.00    +0.072 C 
ATOM      5  C   UNL     1      33.943 -24.624 -16.079  0.00  0.00    +0.041 C 
ATOM      6  C   UNL     1      35.670 -23.657 -14.499  0.00  0.00    +0.041 C 
ATOM      7  C   UNL     1      33.892 -23.275 -16.797  0.00  0.00    +0.095 C 
ATOM      8  C   UNL     1      35.585 -22.338 -15.266  0.00  0.00    +0.095 C 
ATOM      9  C   UNL     1      35.950 -22.085 -17.700  0.00  0.00    +0.230 C 
BRANCH   4  10
ATOM     10  N   UNL     1      33.330 -23.917 -13.824  0.00  0.00    -0.334 N 
ATOM     11  H   UNL     1      33.578 -23.327 -13.074  0.00  0.00    +0.147 HD
BRANCH  10  13
ATOM     12  F   UNL     1      29.001 -22.352 -15.176  0.00  0.00    -0.204 F 
ATOM     13  C   UNL     1      31.987 -24.148 -14.057  0.00  0.00    +0.047 C 
ATOM     14  C   UNL     1      31.142 -23.115 -14.510  0.00  0.00    +0.044 C 
ATOM     15  C   UNL     1      31.422 -25.422 -13.847  0.00  0.00    +0.014 C 
ATOM     16  C   UNL     1      29.787 -23.348 -14.744  0.00  0.00    +0.141 C 
ATOM     17  C   UNL     1      30.067 -25.654 -14.081  0.00  0.00    +0.004 C 
ATOM     18  C   UNL     1      29.250 -24.616 -14.530  0.00  0.00    +0.030 C 
ENDBRANCH  10  13
ENDBRANCH   4  10
ENDBRANCH   1   9
BRANCH   1  20
ATOM     19  C   UNL     1      35.756 -18.787 -21.471  0.00  0.00    -0.043 C 
ATOM     20  C   UNL     1      35.548 -21.094 -19.926  0.00  0.00    -0.013 C 
ATOM     21  C   UNL     1      34.518 -19.407 -21.308  0.00  0.00    -0.007 C 
ATOM     22  C   UNL     1      36.890 -19.322 -20.860  0.00  0.00    -0.007 C 
ATOM     23  C   UNL     1      34.413 -20.563 -20.534  0.00  0.00    -0.004 C 
ATOM     24  C   UNL     1      36.786 -20.478 -20.086  0.00  0.00    -0.004 C 
BRANCH  19  25
ATOM     25  C   UNL     1      35.868 -17.552 -22.300  0.00  0.00    -0.050 C 
BRANCH  25  26
ATOM     26  N   UNL     1      34.782 -16.608 -22.041  0.00  0.00    +0.387 N 
ATOM     27  N   UNL     1      33.734 -13.978 -21.467  0.00  0.00    +0.382 N 
ATOM     28  C   UNL     1      33.597 -14.572 -22.801  0.00  0.00    -0.083 C 
ATOM     29  C   UNL     1      34.742 -15.563 -23.073  0.00  0.00    -0.099 C 
ATOM     30  C   UNL     1      34.920 -16.008 -20.708  0.00  0.00    -0.101 C 
ATOM     31  C   UNL     1      33.788 -15.017 -20.438  0.00  0.00    -0.105 C 
ATOM     32  C   UNL     1      33.593 -13.456 -23.845  0.00  0.00    -0.026 C 
ATOM     33  H   UNL     1      33.902 -17.123 -22.071  0.00  0.00    -0.079 HD
ATOM     34  H   UNL     1      32.935 -13.371 -21.287  0.00  0.00    -0.085 HD
ATOM     35  H   UNL     1      34.602 -13.443 -21.434  0.00  0.00    -0.085 HD
ENDBRANCH  25  26
ENDBRANCH  19  25
ENDBRANCH   1  20
TORSDOF 6
ENDMDL
MODEL 6
REMARK VINA RESULT:     -10.5      4.779      8.816
REMARK  Name = 15984937
REMARK  6 active torsions:
REMARK  status: ('A' for Active; 'I' for Inactive)
REMARK    1  A    between atoms: C_1  and  C_9
REMARK    2  A    between atoms: C_1  and  C_20
REMARK    3  A    between atoms: C_4  and  N_10
REMARK    4  A    between atoms: N_10  and  C_13
REMARK    5  A    between atoms: C_19  and  C_25
REMARK    6  A    between atoms: C_25  and  N_26
REMARK                            x       y       z     vdW  Elec       q    Type
REMARK                         _______ _______ _______ _____ _____    ______ ____
ROOT
ATOM      1  C   UNL     1      31.230 -11.688 -21.800  0.00  0.00    +0.112 C 
ENDROOT
BRANCH   1   9
ATOM      2  O   UNL     1      31.485 -10.644 -19.689  0.00  0.00    -0.275 OA
ATOM      3  N   UNL     1      32.233  -9.445 -21.534  0.00  0.00    -0.279 N 
ATOM      4  C   UNL     1      32.197  -6.787 -22.713  0.00  0.00    +0.072 C 
ATOM      5  C   UNL     1      31.786  -8.033 -23.504  0.00  0.00    +0.041 C 
ATOM      6  C   UNL     1      32.054  -7.008 -21.203  0.00  0.00    +0.041 C 
ATOM      7  C   UNL     1      32.450  -9.307 -22.978  0.00  0.00    +0.095 C 
ATOM      8  C   UNL     1      32.698  -8.313 -20.733  0.00  0.00    +0.095 C 
ATOM      9  C   UNL     1      31.659 -10.552 -20.907  0.00  0.00    +0.230 C 
BRANCH   4  10
ATOM     10  N   UNL     1      33.561  -6.420 -23.042  0.00  0.00    -0.334 N 
ATOM     11  H   UNL     1      34.242  -6.471 -22.332  0.00  0.00    +0.147 HD
BRANCH  10  13
ATOM     12  F   UNL     1      33.784  -3.030 -26.430  0.00  0.00    -0.204 F 
ATOM     13  C   UNL     1      33.958  -6.000 -24.298  0.00  0.00    +0.047 C 
ATOM     14  C   UNL     1      33.669  -4.697 -24.752  0.00  0.00    +0.044 C 
ATOM     15  C   UNL     1      34.661  -6.861 -25.163  0.00  0.00    +0.014 C 
ATOM     16  C   UNL     1      34.068  -4.274 -26.020  0.00  0.00    +0.141 C 
ATOM     17  C   UNL     1      35.060  -6.438 -26.431  0.00  0.00    +0.004 C 
ATOM     18  C   UNL     1      34.763  -5.144 -26.859  0.00  0.00    +0.030 C 
ENDBRANCH  10  13
ENDBRANCH   4  10
ENDBRANCH   1   9
BRANCH   1  20
ATOM     19  C   UNL     1      34.242 -14.727 -21.921  0.00  0.00    -0.043 C 
ATOM     20  C   UNL     1      32.282 -12.750 -21.842  0.00  0.00    -0.013 C 
ATOM     21  C   UNL     1      34.124 -13.820 -22.974  0.00  0.00    -0.007 C 
ATOM     22  C   UNL     1      33.378 -14.644 -20.829  0.00  0.00    -0.007 C 
ATOM     23  C   UNL     1      33.143 -12.829 -22.935  0.00  0.00    -0.004 C 
ATOM     24  C   UNL     1      32.396 -13.654 -20.790  0.00  0.00    -0.004 C 
BRANCH  19  25
ATOM     25  C   UNL     1      35.290 -15.786 -21.964  0.00  0.00    -0.050 C 
BRANCH  25  26
ATOM     26  N   UNL     1      34.725 -17.123 -22.137  0.00  0.00    +0.387 N 
ATOM     27  N   UNL     1      34.902 -19.935 -22.775  0.00  0.00    +0.382 N 
ATOM     28  C   UNL     1      34.747 -19.482 -21.388  0.00  0.00    -0.083 C 
ATOM     29  C   UNL     1      35.345 -18.077 -21.207  0.00  0.00    -0.099 C 
ATOM     30  C   UNL     1      34.885 -17.581 -23.523  0.00  0.00    -0.101 C 
ATOM     31  C   UNL     1      34.298 -18.981 -23.704  0.00  0.00    -0.105 C 
ATOM     32  C   UNL     1      35.432 -20.482 -20.458  0.00  0.00    -0.026 C 
ATOM     33  H   UNL     1      33.727 -17.073 -21.929  0.00  0.00    -0.079 HD
ATOM     34  H   UNL     1      34.448 -20.841 -22.884  0.00  0.00    -0.085 HD
ATOM     35  H   UNL     1      35.897 -20.008 -22.985  0.00  0.00    -0.085 HD
ENDBRANCH  25  26
ENDBRANCH  19  25
ENDBRANCH   1  20
TORSDOF 6
ENDMDL
MODEL 7
REMARK VINA RESULT:     -10.4      3.342     10.549
REMARK  Name = 15984937
REMARK  6 active torsions:
REMARK  status: ('A' for Active; 'I' for Inactive)
REMARK    1  A    between atoms: C_1  and  C_9
REMARK    2  A    between atoms: C_1  and  C_20
REMARK    3  A    between atoms: C_4  and  N_10
REMARK    4  A    between atoms: N_10  and  C_13
REMARK    5  A    between atoms: C_19  and  C_25
REMARK    6  A    between atoms: C_25  and  N_26
REMARK                            x       y       z     vdW  Elec       q    Type
REMARK                         _______ _______ _______ _____ _____    ______ ____
ROOT
ATOM      1  C   UNL     1      35.340 -15.804 -23.953  0.00  0.00    +0.112 C 
ENDROOT
BRANCH   1   9
ATOM      2  O   UNL     1      33.991 -17.341 -25.148  0.00  0.00    -0.275 OA
ATOM      3  N   UNL     1      34.916 -18.105 -23.158  0.00  0.00    -0.279 N 
ATOM      4  C   UNL     1      34.265 -19.591 -20.744  0.00  0.00    +0.072 C 
ATOM      5  C   UNL     1      34.930 -18.212 -20.696  0.00  0.00    +0.041 C 
ATOM      6  C   UNL     1      33.503 -19.800 -22.058  0.00  0.00    +0.041 C 
ATOM      7  C   UNL     1      35.737 -17.905 -21.959  0.00  0.00    +0.095 C 
ATOM      8  C   UNL     1      34.337 -19.442 -23.288  0.00  0.00    +0.095 C 
ATOM      9  C   UNL     1      34.687 -17.148 -24.147  0.00  0.00    +0.230 C 
BRANCH   4  10
ATOM     10  N   UNL     1      35.262 -20.628 -20.568  0.00  0.00    -0.334 N 
ATOM     11  H   UNL     1      35.869 -20.823 -21.320  0.00  0.00    +0.147 HD
BRANCH  10  13
ATOM     12  F   UNL     1      33.459 -23.582 -17.245  0.00  0.00    -0.204 F 
ATOM     13  C   UNL     1      35.408 -21.359 -19.404  0.00  0.00    +0.047 C 
ATOM     14  C   UNL     1      34.341 -22.124 -18.890  0.00  0.00    +0.044 C 
ATOM     15  C   UNL     1      36.625 -21.362 -18.695  0.00  0.00    +0.014 C 
ATOM     16  C   UNL     1      34.487 -22.861 -17.715  0.00  0.00    +0.141 C 
ATOM     17  C   UNL     1      36.771 -22.099 -17.520  0.00  0.00    +0.004 C 
ATOM     18  C   UNL     1      35.701 -22.848 -17.030  0.00  0.00    +0.030 C 
ENDBRANCH  10  13
ENDBRANCH   4  10
ENDBRANCH   1   9
BRANCH   1  20
ATOM     19  C   UNL     1      32.616 -13.052 -22.128  0.00  0.00    -0.043 C 
ATOM     20  C   UNL     1      34.388 -14.842 -23.315  0.00  0.00    -0.013 C 
ATOM     21  C   UNL     1      33.410 -13.878 -21.333  0.00  0.00    -0.007 C 
ATOM     22  C   UNL     1      32.710 -13.123 -23.518  0.00  0.00    -0.007 C 
ATOM     23  C   UNL     1      34.298 -14.775 -21.927  0.00  0.00    -0.004 C 
ATOM     24  C   UNL     1      33.597 -14.020 -24.113  0.00  0.00    -0.004 C 
BRANCH  19  25
ATOM     25  C   UNL     1      31.666 -12.094 -21.493  0.00  0.00    -0.050 C 
BRANCH  25  26
ATOM     26  N   UNL     1      31.974 -10.704 -21.823  0.00  0.00    +0.387 N 
ATOM     27  N   UNL     1      31.454  -7.863 -21.759  0.00  0.00    +0.382 N 
ATOM     28  C   UNL     1      32.527  -8.454 -20.953  0.00  0.00    -0.083 C 
ATOM     29  C   UNL     1      32.201  -9.916 -20.604  0.00  0.00    -0.099 C 
ATOM     30  C   UNL     1      30.897 -10.109 -22.625  0.00  0.00    -0.101 C 
ATOM     31  C   UNL     1      31.216  -8.653 -22.967  0.00  0.00    -0.105 C 
ATOM     32  C   UNL     1      32.710  -7.625 -19.682  0.00  0.00    -0.026 C 
ATOM     33  H   UNL     1      32.830 -10.693 -22.377  0.00  0.00    -0.079 HD
ATOM     34  H   UNL     1      31.718  -6.915 -22.026  0.00  0.00    -0.085 HD
ATOM     35  H   UNL     1      30.598  -7.850 -21.204  0.00  0.00    -0.085 HD
ENDBRANCH  25  26
ENDBRANCH  19  25
ENDBRANCH   1  20
TORSDOF 6
ENDMDL
MODEL 8
REMARK VINA RESULT:     -10.3      3.930     11.914
REMARK  Name = 15984937
REMARK  6 active torsions:
REMARK  status: ('A' for Active; 'I' for Inactive)
REMARK    1  A    between atoms: C_1  and  C_9
REMARK    2  A    between atoms: C_1  and  C_20
REMARK    3  A    between atoms: C_4  and  N_10
REMARK    4  A    between atoms: N_10  and  C_13
REMARK    5  A    between atoms: C_19  and  C_25
REMARK    6  A    between atoms: C_25  and  N_26
REMARK                            x       y       z     vdW  Elec       q    Type
REMARK                         _______ _______ _______ _____ _____    ______ ____
ROOT
ATOM      1  C   UNL     1      34.274 -14.011 -23.324  0.00  0.00    +0.112 C 
ENDROOT
BRANCH   1   9
ATOM      2  O   UNL     1      34.937 -14.051 -21.049  0.00  0.00    -0.275 OA
ATOM      3  N   UNL     1      34.541 -16.111 -22.049  0.00  0.00    -0.279 N 
ATOM      4  C   UNL     1      35.640 -18.793 -22.293  0.00  0.00    +0.072 C 
ATOM      5  C   UNL     1      35.251 -17.959 -23.518  0.00  0.00    +0.041 C 
ATOM      6  C   UNL     1      35.928 -17.904 -21.078  0.00  0.00    +0.041 C 
ATOM      7  C   UNL     1      34.162 -16.931 -23.205  0.00  0.00    +0.095 C 
ATOM      8  C   UNL     1      34.832 -16.868 -20.831  0.00  0.00    +0.095 C 
ATOM      9  C   UNL     1      34.614 -14.718 -22.036  0.00  0.00    +0.230 C 
BRANCH   4  10
ATOM     10  N   UNL     1      34.588 -19.742 -21.987  0.00  0.00    -0.334 N 
ATOM     11  H   UNL     1      33.851 -19.845 -22.632  0.00  0.00    +0.147 HD
BRANCH  10  13
ATOM     12  F   UNL     1      36.875 -22.180 -18.545  0.00  0.00    -0.204 F 
ATOM     13  C   UNL     1      34.562 -20.509 -20.837  0.00  0.00    +0.047 C 
ATOM     14  C   UNL     1      35.755 -20.974 -20.248  0.00  0.00    +0.044 C 
ATOM     15  C   UNL     1      33.342 -20.850 -20.219  0.00  0.00    +0.014 C 
ATOM     16  C   UNL     1      35.728 -21.749 -19.089  0.00  0.00    +0.141 C 
ATOM     17  C   UNL     1      33.316 -21.625 -19.060  0.00  0.00    +0.004 C 
ATOM     18  C   UNL     1      34.510 -22.075 -18.495  0.00  0.00    +0.030 C 
ENDBRANCH  10  13
ENDBRANCH   4  10
ENDBRANCH   1   9
BRANCH   1  20
ATOM     19  C   UNL     1      31.933 -10.512 -22.552  0.00  0.00    -0.043 C 
ATOM     20  C   UNL     1      33.456 -12.788 -23.054  0.00  0.00    -0.013 C 
ATOM     21  C   UNL     1      33.110 -10.414 -23.294  0.00  0.00    -0.007 C 
ATOM     22  C   UNL     1      31.519 -11.750 -22.062  0.00  0.00    -0.007 C 
ATOM     23  C   UNL     1      33.873 -11.554 -23.545  0.00  0.00    -0.004 C 
ATOM     24  C   UNL     1      32.282 -12.891 -22.313  0.00  0.00    -0.004 C 
BRANCH  19  25
ATOM     25  C   UNL     1      31.118  -9.293 -22.282  0.00  0.00    -0.050 C 
BRANCH  25  26
ATOM     26  N   UNL     1      31.747  -8.077 -22.796  0.00  0.00    +0.387 N 
ATOM     27  N   UNL     1      31.690  -5.359 -23.773  0.00  0.00    +0.382 N 
ATOM     28  C   UNL     1      32.183  -5.669 -22.426  0.00  0.00    -0.083 C 
ATOM     29  C   UNL     1      31.518  -6.947 -21.886  0.00  0.00    -0.099 C 
ATOM     30  C   UNL     1      31.250  -7.762 -24.141  0.00  0.00    -0.101 C 
ATOM     31  C   UNL     1      31.904  -6.488 -24.677  0.00  0.00    -0.105 C 
ATOM     32  C   UNL     1      31.897  -4.484 -21.506  0.00  0.00    -0.026 C 
ATOM     33  H   UNL     1      32.752  -8.243 -22.856  0.00  0.00    -0.079 HD
ATOM     34  H   UNL     1      32.186  -4.544 -24.132  0.00  0.00    -0.085 HD
ATOM     35  H   UNL     1      30.689  -5.171 -23.719  0.00  0.00    -0.085 HD
ENDBRANCH  25  26
ENDBRANCH  19  25
ENDBRANCH   1  20
TORSDOF 6
ENDMDL
MODEL 9
REMARK VINA RESULT:     -10.2      4.293      7.460
REMARK  Name = 15984937
REMARK  6 active torsions:
REMARK  status: ('A' for Active; 'I' for Inactive)
REMARK    1  A    between atoms: C_1  and  C_9
REMARK    2  A    between atoms: C_1  and  C_20
REMARK    3  A    between atoms: C_4  and  N_10
REMARK    4  A    between atoms: N_10  and  C_13
REMARK    5  A    between atoms: C_19  and  C_25
REMARK    6  A    between atoms: C_25  and  N_26
REMARK                            x       y       z     vdW  Elec       q    Type
REMARK                         _______ _______ _______ _____ _____    ______ ____
ROOT
ATOM      1  C   UNL     1      32.444 -13.054 -22.398  0.00  0.00    +0.112 C 
ENDROOT
BRANCH   1   9
ATOM      2  O   UNL     1      34.253 -12.076 -23.574  0.00  0.00    -0.275 OA
ATOM      3  N   UNL     1      32.588 -10.628 -22.844  0.00  0.00    -0.279 N 
ATOM      4  C   UNL     1      32.189  -8.052 -21.553  0.00  0.00    +0.072 C 
ATOM      5  C   UNL     1      31.504  -9.328 -21.053  0.00  0.00    +0.041 C 
ATOM      6  C   UNL     1      33.457  -8.374 -22.351  0.00  0.00    +0.041 C 
ATOM      7  C   UNL     1      31.317 -10.367 -22.161  0.00  0.00    +0.095 C 
ATOM      8  C   UNL     1      33.229  -9.445 -23.418  0.00  0.00    +0.095 C 
ATOM      9  C   UNL     1      33.181 -11.882 -22.994  0.00  0.00    +0.230 C 
BRANCH   4  10
ATOM     10  N   UNL     1      31.266  -7.280 -22.361  0.00  0.00    -0.334 N 
ATOM     11  H   UNL     1      30.453  -7.725 -22.695  0.00  0.00    +0.147 HD
BRANCH  10  13
ATOM     12  F   UNL     1      31.907  -2.708 -21.054  0.00  0.00    -0.204 F 
ATOM     13  C   UNL     1      31.466  -5.952 -22.691  0.00  0.00    +0.047 C 
ATOM     14  C   UNL     1      31.590  -4.967 -21.690  0.00  0.00    +0.044 C 
ATOM     15  C   UNL     1      31.549  -5.542 -24.036  0.00  0.00    +0.014 C 
ATOM     16  C   UNL     1      31.790  -3.628 -22.022  0.00  0.00    +0.141 C 
ATOM     17  C   UNL     1      31.749  -4.203 -24.369  0.00  0.00    +0.004 C 
ATOM     18  C   UNL     1      31.869  -3.245 -23.361  0.00  0.00    +0.030 C 
ENDBRANCH  10  13
ENDBRANCH   4  10
ENDBRANCH   1   9
BRANCH   1  20
ATOM     19  C   UNL     1      35.054 -16.421 -21.976  0.00  0.00    -0.043 C 
ATOM     20  C   UNL     1      33.357 -14.230 -22.250  0.00  0.00    -0.013 C 
ATOM     21  C   UNL     1      34.672 -15.689 -20.851  0.00  0.00    -0.007 C 
ATOM     22  C   UNL     1      34.586 -16.055 -23.237  0.00  0.00    -0.007 C 
ATOM     23  C   UNL     1      33.822 -14.592 -20.988  0.00  0.00    -0.004 C 
ATOM     24  C   UNL     1      33.736 -14.958 -23.375  0.00  0.00    -0.004 C 
BRANCH  19  25
ATOM     25  C   UNL     1      35.964 -17.593 -21.829  0.00  0.00    -0.050 C 
BRANCH  25  26
ATOM     26  N   UNL     1      35.420 -18.610 -20.930  0.00  0.00    +0.387 N 
ATOM     27  N   UNL     1      34.756 -21.329 -20.215  0.00  0.00    +0.382 N 
ATOM     28  C   UNL     1      35.889 -20.638 -19.590  0.00  0.00    -0.083 C 
ATOM     29  C   UNL     1      36.461 -19.570 -20.538  0.00  0.00    -0.099 C 
ATOM     30  C   UNL     1      34.290 -19.308 -21.557  0.00  0.00    -0.101 C 
ATOM     31  C   UNL     1      33.724 -20.375 -20.620  0.00  0.00    -0.105 C 
ATOM     32  C   UNL     1      36.961 -21.664 -19.227  0.00  0.00    -0.026 C 
ATOM     33  H   UNL     1      35.082 -18.141 -20.090  0.00  0.00    -0.079 HD
ATOM     34  H   UNL     1      34.358 -21.990 -19.548  0.00  0.00    -0.085 HD
ATOM     35  H   UNL     1      35.090 -21.819 -21.045  0.00  0.00    -0.085 HD
ENDBRANCH  25  26
ENDBRANCH  19  25
ENDBRANCH   1  20
TORSDOF 6
ENDMDL
