MODEL 1
REMARK VINA RESULT:     -11.3      0.000      0.000
REMARK  Name = 5472495
REMARK  6 active torsions:
REMARK  status: ('A' for Active; 'I' for Inactive)
REMARK    1  A    between atoms: C_2  and  C_23
REMARK    2  A    between atoms: C_3  and  C_7
REMARK    3  A    between atoms: C_7  and  C_13
REMARK    4  A    between atoms: C_16  and  S_19
REMARK    5  A    between atoms: C_23  and  C_25
REMARK    6  A    between atoms: C_25  and  O_26
REMARK                            x       y       z     vdW  Elec       q    Type
REMARK                         _______ _______ _______ _____ _____    ______ ____
ROOT
ATOM      1  F   UNL     1      37.277 -23.532 -12.468  0.00  0.00    -0.204 F 
ATOM      2  C   UNL     1      32.816 -23.426 -14.614  0.00  0.00    -0.030 C 
ATOM      3  C   UNL     1      33.732 -23.435 -16.719  0.00  0.00    -0.036 C 
ATOM      4  C   UNL     1      32.502 -23.413 -15.928  0.00  0.00    +0.037 C 
ATOM      5  C   UNL     1      34.286 -23.458 -14.503  0.00  0.00    -0.005 C 
ATOM      6  C   UNL     1      34.859 -23.463 -15.785  0.00  0.00    -0.008 C 
ATOM      7  C   UNL     1      35.090 -23.481 -13.373  0.00  0.00    +0.029 C 
ATOM      8  C   UNL     1      36.233 -23.492 -15.964  0.00  0.00    +0.002 C 
ATOM      9  C   UNL     1      31.149 -23.381 -16.554  0.00  0.00    +0.009 C 
ATOM     10  C   UNL     1      36.478 -23.509 -13.543  0.00  0.00    +0.140 C 
ATOM     11  C   UNL     1      37.043 -23.514 -14.828  0.00  0.00    +0.030 C 
ENDROOT
BRANCH   3  12
ATOM     12  C   UNL     1      33.839 -23.429 -18.053  0.00  0.00    +0.049 C 
BRANCH  12  13
ATOM     13  C   UNL     1      34.243 -22.279 -18.878  0.00  0.00    -0.018 C 
ATOM     14  C   UNL     1      35.588 -21.971 -19.004  0.00  0.00    -0.003 C 
ATOM     15  C   UNL     1      33.270 -21.525 -19.517  0.00  0.00    -0.003 C 
ATOM     16  C   UNL     1      35.003 -20.115 -20.435  0.00  0.00    +0.106 C 
ATOM     17  C   UNL     1      35.971 -20.882 -19.787  0.00  0.00    +0.018 C 
ATOM     18  C   UNL     1      33.653 -20.436 -20.300  0.00  0.00    +0.018 C 
BRANCH  16  19
ATOM     19  S   UNL     1      35.484 -18.752 -21.415  0.00  0.00    +0.010 S 
ATOM     20  O   UNL     1      34.922 -18.937 -22.746  0.00  0.00    -0.169 OA
ATOM     21  O   UNL     1      35.214 -17.523 -20.681  0.00  0.00    -0.169 OA
ATOM     22  C   UNL     1      37.251 -18.901 -21.543  0.00  0.00    +0.182 C 
ENDBRANCH  16  19
ENDBRANCH  12  13
ENDBRANCH   3  12
BRANCH   2  23
ATOM     23  C   UNL     1      31.939 -23.413 -13.415  0.00  0.00    +0.132 C 
BRANCH  23  25
ATOM     24  O   UNL     1      30.091 -25.010 -13.505  0.00  0.00    -0.250 OA
ATOM     25  C   UNL     1      31.256 -24.747 -13.244  0.00  0.00    +0.318 C 
BRANCH  25  26
ATOM     26  O   UNL     1      32.135 -25.653 -12.739  0.00  0.00    -0.480 OA
ATOM     27  H   UNL     1      32.719 -25.404 -12.050  0.00  0.00    +0.295 HD
ENDBRANCH  25  26
ENDBRANCH  23  25
ENDBRANCH   2  23
TORSDOF 6
ENDMDL
MODEL 2
REMARK VINA RESULT:     -10.7      2.080      3.508
REMARK  Name = 5472495
REMARK  6 active torsions:
REMARK  status: ('A' for Active; 'I' for Inactive)
REMARK    1  A    between atoms: C_2  and  C_23
REMARK    2  A    between atoms: C_3  and  C_7
REMARK    3  A    between atoms: C_7  and  C_13
REMARK    4  A    between atoms: C_16  and  S_19
REMARK    5  A    between atoms: C_23  and  C_25
REMARK    6  A    between atoms: C_25  and  O_26
REMARK                            x       y       z     vdW  Elec       q    Type
REMARK                         _______ _______ _______ _____ _____    ______ ____
ROOT
ATOM      1  F   UNL     1      30.384 -24.186 -12.642  0.00  0.00    -0.204 F 
ATOM      2  C   UNL     1      34.821 -23.355 -14.676  0.00  0.00    -0.030 C 
ATOM      3  C   UNL     1      33.944 -23.347 -16.797  0.00  0.00    -0.036 C 
ATOM      4  C   UNL     1      35.149 -23.214 -15.979  0.00  0.00    +0.037 C 
ATOM      5  C   UNL     1      33.367 -23.586 -14.600  0.00  0.00    -0.005 C 
ATOM      6  C   UNL     1      32.817 -23.585 -15.893  0.00  0.00    -0.008 C 
ATOM      7  C   UNL     1      32.557 -23.788 -13.492  0.00  0.00    +0.029 C 
ATOM      8  C   UNL     1      31.463 -23.782 -16.104  0.00  0.00    +0.002 C 
ATOM      9  C   UNL     1      36.494 -22.964 -16.571  0.00  0.00    +0.009 C 
ATOM     10  C   UNL     1      31.188 -23.989 -13.695  0.00  0.00    +0.140 C 
ATOM     11  C   UNL     1      30.646 -23.986 -14.990  0.00  0.00    +0.030 C 
ENDROOT
BRANCH   3  12
ATOM     12  C   UNL     1      33.856 -23.271 -18.131  0.00  0.00    +0.049 C 
BRANCH  12  13
ATOM     13  C   UNL     1      34.285 -22.131 -18.957  0.00  0.00    -0.018 C 
ATOM     14  C   UNL     1      35.638 -21.901 -19.150  0.00  0.00    -0.003 C 
ATOM     15  C   UNL     1      33.327 -21.307 -19.530  0.00  0.00    -0.003 C 
ATOM     16  C   UNL     1      35.092 -19.986 -20.517  0.00  0.00    +0.106 C 
ATOM     17  C   UNL     1      36.044 -20.822 -19.935  0.00  0.00    +0.018 C 
ATOM     18  C   UNL     1      33.733 -20.229 -20.315  0.00  0.00    +0.018 C 
BRANCH  16  19
ATOM     19  S   UNL     1      35.601 -18.635 -21.498  0.00  0.00    +0.010 S 
ATOM     20  O   UNL     1      35.132 -17.413 -20.859  0.00  0.00    -0.169 OA
ATOM     21  O   UNL     1      37.015 -18.787 -21.815  0.00  0.00    -0.169 OA
ATOM     22  C   UNL     1      34.706 -18.833 -23.022  0.00  0.00    +0.182 C 
ENDBRANCH  16  19
ENDBRANCH  12  13
ENDBRANCH   3  12
BRANCH   2  23
ATOM     23  C   UNL     1      35.672 -23.305 -13.459  0.00  0.00    +0.132 C 
BRANCH  23  25
ATOM     24  O   UNL     1      37.515 -24.902 -13.625  0.00  0.00    -0.250 OA
ATOM     25  C   UNL     1      36.384 -24.620 -13.257  0.00  0.00    +0.318 C 
BRANCH  25  26
ATOM     26  O   UNL     1      35.574 -25.485 -12.590  0.00  0.00    -0.480 OA
ATOM     27  H   UNL     1      35.199 -26.216 -13.040  0.00  0.00    +0.295 HD
ENDBRANCH  25  26
ENDBRANCH  23  25
ENDBRANCH   2  23
TORSDOF 6
ENDMDL
MODEL 3
REMARK VINA RESULT:      -9.6      5.624     10.031
REMARK  Name = 5472495
REMARK  6 active torsions:
REMARK  status: ('A' for Active; 'I' for Inactive)
REMARK    1  A    between atoms: C_2  and  C_23
REMARK    2  A    between atoms: C_3  and  C_7
REMARK    3  A    between atoms: C_7  and  C_13
REMARK    4  A    between atoms: C_16  and  S_19
REMARK    5  A    between atoms: C_23  and  C_25
REMARK    6  A    between atoms: C_25  and  O_26
REMARK                            x       y       z     vdW  Elec       q    Type
REMARK                         _______ _______ _______ _____ _____    ______ ____
ROOT
ATOM      1  F   UNL     1      32.897 -13.640 -26.176  0.00  0.00    -0.204 F 
ATOM      2  C   UNL     1      34.140 -14.827 -21.533  0.00  0.00    -0.030 C 
ATOM      3  C   UNL     1      35.018 -16.843 -22.191  0.00  0.00    -0.036 C 
ATOM      4  C   UNL     1      34.745 -15.943 -21.071  0.00  0.00    +0.037 C 
ATOM      5  C   UNL     1      33.996 -14.965 -22.994  0.00  0.00    -0.005 C 
ATOM      6  C   UNL     1      34.529 -16.196 -23.410  0.00  0.00    -0.008 C 
ATOM      7  C   UNL     1      33.441 -14.091 -23.917  0.00  0.00    +0.029 C 
ATOM      8  C   UNL     1      34.520 -16.576 -24.742  0.00  0.00    +0.002 C 
ATOM      9  C   UNL     1      35.111 -16.281 -19.665  0.00  0.00    +0.009 C 
ATOM     10  C   UNL     1      33.427 -14.466 -25.264  0.00  0.00    +0.140 C 
ATOM     11  C   UNL     1      33.962 -15.698 -25.672  0.00  0.00    +0.030 C 
ENDROOT
BRANCH   3  12
ATOM     12  C   UNL     1      35.604 -18.046 -22.141  0.00  0.00    +0.049 C 
BRANCH  12  13
ATOM     13  C   UNL     1      35.176 -19.177 -21.302  0.00  0.00    -0.018 C 
ATOM     14  C   UNL     1      33.828 -19.486 -21.213  0.00  0.00    -0.003 C 
ATOM     15  C   UNL     1      36.129 -19.914 -20.615  0.00  0.00    -0.003 C 
ATOM     16  C   UNL     1      34.370 -21.309 -19.723  0.00  0.00    +0.106 C 
ATOM     17  C   UNL     1      33.422 -20.559 -20.419  0.00  0.00    +0.018 C 
ATOM     18  C   UNL     1      35.723 -20.986 -19.822  0.00  0.00    +0.018 C 
BRANCH  16  19
ATOM     19  S   UNL     1      33.862 -22.651 -18.729  0.00  0.00    +0.010 S 
ATOM     20  O   UNL     1      32.529 -22.354 -18.221  0.00  0.00    -0.169 OA
ATOM     21  O   UNL     1      34.098 -23.892 -19.454  0.00  0.00    -0.169 OA
ATOM     22  C   UNL     1      34.987 -22.633 -17.352  0.00  0.00    +0.182 C 
ENDBRANCH  16  19
ENDBRANCH  12  13
ENDBRANCH   3  12
BRANCH   2  23
ATOM     23  C   UNL     1      33.662 -13.622 -20.808  0.00  0.00    +0.132 C 
BRANCH  23  25
ATOM     24  O   UNL     1      31.876 -14.630 -19.479  0.00  0.00    -0.250 OA
ATOM     25  C   UNL     1      32.250 -13.823 -20.317  0.00  0.00    +0.318 C 
BRANCH  25  26
ATOM     26  O   UNL     1      31.413 -12.961 -20.955  0.00  0.00    -0.480 OA
ATOM     27  H   UNL     1      31.152 -13.130 -21.838  0.00  0.00    +0.295 HD
ENDBRANCH  25  26
ENDBRANCH  23  25
ENDBRANCH   2  23
TORSDOF 6
ENDMDL
MODEL 4
REMARK VINA RESULT:      -9.4      4.284      6.588
REMARK  Name = 5472495
REMARK  6 active torsions:
REMARK  status: ('A' for Active; 'I' for Inactive)
REMARK    1  A    between atoms: C_2  and  C_23
REMARK    2  A    between atoms: C_3  and  C_7
REMARK    3  A    between atoms: C_7  and  C_13
REMARK    4  A    between atoms: C_16  and  S_19
REMARK    5  A    between atoms: C_23  and  C_25
REMARK    6  A    between atoms: C_25  and  O_26
REMARK                            x       y       z     vdW  Elec       q    Type
REMARK                         _______ _______ _______ _____ _____    ______ ____
ROOT
ATOM      1  F   UNL     1      33.419 -21.940 -19.335  0.00  0.00    -0.204 F 
ATOM      2  C   UNL     1      31.407 -24.137 -15.381  0.00  0.00    -0.030 C 
ATOM      3  C   UNL     1      33.440 -24.298 -14.327  0.00  0.00    -0.036 C 
ATOM      4  C   UNL     1      32.005 -24.571 -14.250  0.00  0.00    +0.037 C 
ATOM      5  C   UNL     1      32.449 -23.556 -16.247  0.00  0.00    -0.005 C 
ATOM      6  C   UNL     1      33.699 -23.649 -15.614  0.00  0.00    -0.008 C 
ATOM      7  C   UNL     1      32.339 -22.980 -17.505  0.00  0.00    +0.029 C 
ATOM      8  C   UNL     1      34.853 -23.175 -16.216  0.00  0.00    +0.002 C 
ATOM      9  C   UNL     1      31.379 -25.231 -13.069  0.00  0.00    +0.009 C 
ATOM     10  C   UNL     1      33.498 -22.500 -18.121  0.00  0.00    +0.140 C 
ATOM     11  C   UNL     1      34.744 -22.597 -17.482  0.00  0.00    +0.030 C 
ENDROOT
BRANCH   3  12
ATOM     12  C   UNL     1      34.370 -24.581 -13.407  0.00  0.00    +0.049 C 
BRANCH  12  13
ATOM     13  C   UNL     1      35.791 -24.852 -13.676  0.00  0.00    -0.018 C 
ATOM     14  C   UNL     1      36.144 -25.985 -14.392  0.00  0.00    -0.003 C 
ATOM     15  C   UNL     1      36.753 -23.969 -13.210  0.00  0.00    -0.003 C 
ATOM     16  C   UNL     1      38.468 -25.361 -14.186  0.00  0.00    +0.106 C 
ATOM     17  C   UNL     1      37.491 -26.241 -14.649  0.00  0.00    +0.018 C 
ATOM     18  C   UNL     1      38.100 -24.224 -13.467  0.00  0.00    +0.018 C 
BRANCH  16  19
ATOM     19  S   UNL     1      40.154 -25.683 -14.508  0.00  0.00    +0.010 S 
ATOM     20  O   UNL     1      40.272 -26.107 -15.896  0.00  0.00    -0.169 OA
ATOM     21  O   UNL     1      40.950 -24.563 -14.024  0.00  0.00    -0.169 OA
ATOM     22  C   UNL     1      40.542 -27.078 -13.476  0.00  0.00    +0.182 C 
ENDBRANCH  16  19
ENDBRANCH  12  13
ENDBRANCH   3  12
BRANCH   2  23
ATOM     23  C   UNL     1      29.980 -24.178 -15.791  0.00  0.00    +0.132 C 
BRANCH  23  25
ATOM     24  O   UNL     1      29.312 -22.220 -14.491  0.00  0.00    -0.250 OA
ATOM     25  C   UNL     1      29.317 -22.846 -15.540  0.00  0.00    +0.318 C 
BRANCH  25  26
ATOM     26  O   UNL     1      28.699 -22.418 -16.673  0.00  0.00    -0.480 OA
ATOM     27  H   UNL     1      29.150 -22.454 -17.493  0.00  0.00    +0.295 HD
ENDBRANCH  25  26
ENDBRANCH  23  25
ENDBRANCH   2  23
TORSDOF 6
ENDMDL
MODEL 5
REMARK VINA RESULT:      -9.2      4.450      7.254
REMARK  Name = 5472495
REMARK  6 active torsions:
REMARK  status: ('A' for Active; 'I' for Inactive)
REMARK    1  A    between atoms: C_2  and  C_23
REMARK    2  A    between atoms: C_3  and  C_7
REMARK    3  A    between atoms: C_7  and  C_13
REMARK    4  A    between atoms: C_16  and  S_19
REMARK    5  A    between atoms: C_23  and  C_25
REMARK    6  A    between atoms: C_25  and  O_26
REMARK                            x       y       z     vdW  Elec       q    Type
REMARK                         _______ _______ _______ _____ _____    ______ ____
ROOT
ATOM      1  F   UNL     1      28.181 -24.660 -15.281  0.00  0.00    -0.204 F 
ATOM      2  C   UNL     1      32.788 -23.216 -16.376  0.00  0.00    -0.030 C 
ATOM      3  C   UNL     1      33.642 -24.211 -14.492  0.00  0.00    -0.036 C 
ATOM      4  C   UNL     1      33.935 -23.434 -15.696  0.00  0.00    +0.037 C 
ATOM      5  C   UNL     1      31.691 -23.856 -15.627  0.00  0.00    -0.005 C 
ATOM      6  C   UNL     1      32.201 -24.468 -14.470  0.00  0.00    -0.008 C 
ATOM      7  C   UNL     1      30.335 -23.912 -15.914  0.00  0.00    +0.029 C 
ATOM      8  C   UNL     1      31.376 -25.143 -13.585  0.00  0.00    +0.002 C 
ATOM      9  C   UNL     1      35.315 -22.989 -16.044  0.00  0.00    +0.009 C 
ATOM     10  C   UNL     1      29.495 -24.590 -15.027  0.00  0.00    +0.140 C 
ATOM     11  C   UNL     1      30.011 -25.200 -13.872  0.00  0.00    +0.030 C 
ENDROOT
BRANCH   3  12
ATOM     12  C   UNL     1      34.511 -24.625 -13.561  0.00  0.00    +0.049 C 
BRANCH  12  13
ATOM     13  C   UNL     1      35.939 -24.905 -13.782  0.00  0.00    -0.018 C 
ATOM     14  C   UNL     1      36.890 -24.064 -13.229  0.00  0.00    -0.003 C 
ATOM     15  C   UNL     1      36.307 -26.007 -14.540  0.00  0.00    -0.003 C 
ATOM     16  C   UNL     1      38.628 -25.435 -14.196  0.00  0.00    +0.106 C 
ATOM     17  C   UNL     1      38.244 -24.331 -13.436  0.00  0.00    +0.018 C 
ATOM     18  C   UNL     1      37.660 -26.274 -14.747  0.00  0.00    +0.018 C 
BRANCH  16  19
ATOM     19  S   UNL     1      40.322 -25.768 -14.456  0.00  0.00    +0.010 S 
ATOM     20  O   UNL     1      40.484 -26.228 -15.828  0.00  0.00    -0.169 OA
ATOM     21  O   UNL     1      41.106 -24.637 -13.976  0.00  0.00    -0.169 OA
ATOM     22  C   UNL     1      40.675 -27.136 -13.376  0.00  0.00    +0.182 C 
ENDBRANCH  16  19
ENDBRANCH  12  13
ENDBRANCH   3  12
BRANCH   2  23
ATOM     23  C   UNL     1      32.549 -22.487 -17.648  0.00  0.00    +0.132 C 
BRANCH  23  25
ATOM     24  O   UNL     1      33.786 -24.041 -19.071  0.00  0.00    -0.250 OA
ATOM     25  C   UNL     1      33.554 -22.902 -18.694  0.00  0.00    +0.318 C 
BRANCH  25  26
ATOM     26  O   UNL     1      34.194 -21.806 -19.179  0.00  0.00    -0.480 OA
ATOM     27  H   UNL     1      34.582 -21.191 -18.588  0.00  0.00    +0.295 HD
ENDBRANCH  25  26
ENDBRANCH  23  25
ENDBRANCH   2  23
TORSDOF 6
ENDMDL
MODEL 6
REMARK VINA RESULT:      -9.0      4.864      9.880
REMARK  Name = 5472495
REMARK  6 active torsions:
REMARK  status: ('A' for Active; 'I' for Inactive)
REMARK    1  A    between atoms: C_2  and  C_23
REMARK    2  A    between atoms: C_3  and  C_7
REMARK    3  A    between atoms: C_7  and  C_13
REMARK    4  A    between atoms: C_16  and  S_19
REMARK    5  A    between atoms: C_23  and  C_25
REMARK    6  A    between atoms: C_25  and  O_26
REMARK                            x       y       z     vdW  Elec       q    Type
REMARK                         _______ _______ _______ _____ _____    ______ ____
ROOT
ATOM      1  F   UNL     1      33.421 -12.976 -21.160  0.00  0.00    -0.204 F 
ATOM      2  C   UNL     1      34.088 -17.072 -23.859  0.00  0.00    -0.030 C 
ATOM      3  C   UNL     1      35.215 -18.117 -22.154  0.00  0.00    -0.036 C 
ATOM      4  C   UNL     1      34.712 -18.223 -23.523  0.00  0.00    +0.037 C 
ATOM      5  C   UNL     1      34.164 -16.164 -22.700  0.00  0.00    -0.005 C 
ATOM      6  C   UNL     1      34.853 -16.792 -21.649  0.00  0.00    -0.008 C 
ATOM      7  C   UNL     1      33.674 -14.875 -22.549  0.00  0.00    +0.029 C 
ATOM      8  C   UNL     1      35.064 -16.152 -20.438  0.00  0.00    +0.002 C 
ATOM      9  C   UNL     1      34.903 -19.446 -24.353  0.00  0.00    +0.009 C 
ATOM     10  C   UNL     1      33.884 -14.221 -21.332  0.00  0.00    +0.140 C 
ATOM     11  C   UNL     1      34.573 -14.855 -20.285  0.00  0.00    +0.030 C 
ENDROOT
BRANCH   3  12
ATOM     12  C   UNL     1      35.889 -19.045 -21.463  0.00  0.00    +0.049 C 
BRANCH  12  13
ATOM     13  C   UNL     1      35.292 -20.070 -20.592  0.00  0.00    -0.018 C 
ATOM     14  C   UNL     1      33.913 -20.198 -20.539  0.00  0.00    -0.003 C 
ATOM     15  C   UNL     1      36.120 -20.890 -19.840  0.00  0.00    -0.003 C 
ATOM     16  C   UNL     1      34.168 -22.003 -18.953  0.00  0.00    +0.106 C 
ATOM     17  C   UNL     1      33.347 -21.171 -19.714  0.00  0.00    +0.018 C 
ATOM     18  C   UNL     1      35.554 -21.863 -19.016  0.00  0.00    +0.018 C 
BRANCH  16  19
ATOM     19  S   UNL     1      33.459 -23.220 -17.921  0.00  0.00    +0.010 S 
ATOM     20  O   UNL     1      32.116 -22.780 -17.567  0.00  0.00    -0.169 OA
ATOM     21  O   UNL     1      33.653 -24.528 -18.530  0.00  0.00    -0.169 OA
ATOM     22  C   UNL     1      34.452 -23.182 -16.446  0.00  0.00    +0.182 C 
ENDBRANCH  16  19
ENDBRANCH  12  13
ENDBRANCH   3  12
BRANCH   2  23
ATOM     23  C   UNL     1      33.415 -16.677 -25.123  0.00  0.00    +0.132 C 
BRANCH  23  25
ATOM     24  O   UNL     1      34.844 -14.765 -25.647  0.00  0.00    -0.250 OA
ATOM     25  C   UNL     1      33.734 -15.243 -25.467  0.00  0.00    +0.318 C 
BRANCH  25  26
ATOM     26  O   UNL     1      32.584 -14.523 -25.552  0.00  0.00    -0.480 OA
ATOM     27  H   UNL     1      32.179 -14.384 -26.385  0.00  0.00    +0.295 HD
ENDBRANCH  25  26
ENDBRANCH  23  25
ENDBRANCH   2  23
TORSDOF 6
ENDMDL
MODEL 7
REMARK VINA RESULT:      -8.7      8.667     12.849
REMARK  Name = 5472495
REMARK  6 active torsions:
REMARK  status: ('A' for Active; 'I' for Inactive)
REMARK    1  A    between atoms: C_2  and  C_23
REMARK    2  A    between atoms: C_3  and  C_7
REMARK    3  A    between atoms: C_7  and  C_13
REMARK    4  A    between atoms: C_16  and  S_19
REMARK    5  A    between atoms: C_23  and  C_25
REMARK    6  A    between atoms: C_25  and  O_26
REMARK                            x       y       z     vdW  Elec       q    Type
REMARK                         _______ _______ _______ _____ _____    ______ ____
ROOT
ATOM      1  F   UNL     1      34.385  -6.348 -22.656  0.00  0.00    -0.204 F 
ATOM      2  C   UNL     1      32.077 -10.630 -21.733  0.00  0.00    -0.030 C 
ATOM      3  C   UNL     1      33.394 -11.764 -23.233  0.00  0.00    -0.036 C 
ATOM      4  C   UNL     1      32.300 -11.851 -22.266  0.00  0.00    +0.037 C 
ATOM      5  C   UNL     1      33.035  -9.690 -22.343  0.00  0.00    -0.005 C 
ATOM      6  C   UNL     1      33.847 -10.372 -23.265  0.00  0.00    -0.008 C 
ATOM      7  C   UNL     1      33.205  -8.331 -22.127  0.00  0.00    +0.029 C 
ATOM      8  C   UNL     1      34.836  -9.718 -23.981  0.00  0.00    +0.002 C 
ATOM      9  C   UNL     1      31.591 -13.130 -21.974  0.00  0.00    +0.009 C 
ATOM     10  C   UNL     1      34.200  -7.661 -22.846  0.00  0.00    +0.140 C 
ATOM     11  C   UNL     1      35.008  -8.349 -23.765  0.00  0.00    +0.030 C 
ENDROOT
BRANCH   3  12
ATOM     12  C   UNL     1      33.907 -12.757 -23.970  0.00  0.00    +0.049 C 
BRANCH  12  13
ATOM     13  C   UNL     1      34.258 -14.099 -23.479  0.00  0.00    -0.018 C 
ATOM     14  C   UNL     1      34.590 -14.269 -22.144  0.00  0.00    -0.003 C 
ATOM     15  C   UNL     1      34.250 -15.170 -24.360  0.00  0.00    -0.003 C 
ATOM     16  C   UNL     1      34.917 -16.628 -22.553  0.00  0.00    +0.106 C 
ATOM     17  C   UNL     1      34.922 -15.542 -21.678  0.00  0.00    +0.018 C 
ATOM     18  C   UNL     1      34.581 -16.442 -23.894  0.00  0.00    +0.018 C 
BRANCH  16  19
ATOM     19  S   UNL     1      35.332 -18.220 -21.969  0.00  0.00    +0.010 S 
ATOM     20  O   UNL     1      36.766 -18.404 -22.150  0.00  0.00    -0.169 OA
ATOM     21  O   UNL     1      34.740 -18.410 -20.652  0.00  0.00    -0.169 OA
ATOM     22  C   UNL     1      34.494 -19.330 -23.078  0.00  0.00    +0.182 C 
ENDBRANCH  16  19
ENDBRANCH  12  13
ENDBRANCH   3  12
BRANCH   2  23
ATOM     23  C   UNL     1      31.086 -10.190 -20.718  0.00  0.00    +0.132 C 
BRANCH  23  25
ATOM     24  O   UNL     1      32.022 -11.244 -18.721  0.00  0.00    -0.250 OA
ATOM     25  C   UNL     1      31.687 -10.242 -19.334  0.00  0.00    +0.318 C 
BRANCH  25  26
ATOM     26  O   UNL     1      31.808  -8.982 -18.838  0.00  0.00    -0.480 OA
ATOM     27  H   UNL     1      32.187  -8.306 -19.364  0.00  0.00    +0.295 HD
ENDBRANCH  25  26
ENDBRANCH  23  25
ENDBRANCH   2  23
TORSDOF 6
ENDMDL
