MODEL 1
REMARK VINA RESULT:     -11.4      0.000      0.000
REMARK  Name = 9799284
REMARK  5 active torsions:
REMARK  status: ('A' for Active; 'I' for Inactive)
REMARK    1  A    between atoms: N_1  and  C_19
REMARK    2  A    between atoms: C_2  and  C_8
REMARK    3  A    between atoms: C_8  and  N_10
REMARK    4  A    between atoms: C_19  and  C_21
REMARK    5  A    between atoms: C_21  and  C_23
REMARK                            x       y       z     vdW  Elec       q    Type
REMARK                         _______ _______ _______ _____ _____    ______ ____
ROOT
ATOM      1  N   UNL     1      35.189 -20.091 -20.885  0.00  0.00    +0.392 N 
ATOM      2  C   UNL     1      34.280 -22.031 -18.883  0.00  0.00    +0.016 C 
ATOM      3  C   UNL     1      33.329 -21.394 -19.903  0.00  0.00    -0.021 C 
ATOM      4  C   UNL     1      35.709 -22.028 -19.435  0.00  0.00    -0.021 C 
ATOM      5  C   UNL     1      33.826 -20.016 -20.341  0.00  0.00    -0.077 C 
ATOM      6  C   UNL     1      36.127 -20.628 -19.889  0.00  0.00    -0.077 C 
ATOM      7  H   UNL     1      35.175 -20.729 -21.680  0.00  0.00    -0.079 HD
ENDROOT
BRANCH   2   8
ATOM      8  C   UNL     1      33.834 -23.446 -18.525  0.00  0.00    +0.094 C 
BRANCH   8  10
ATOM      9  O   UNL     1      35.141 -24.202 -15.910  0.00  0.00    -0.270 OA
ATOM     10  N   UNL     1      33.288 -23.493 -17.202  0.00  0.00    -0.272 N 
ATOM     11  C   UNL     1      31.892 -23.143 -16.926  0.00  0.00    +0.121 C 
ATOM     12  C   UNL     1      33.980 -23.859 -16.041  0.00  0.00    +0.249 C 
ATOM     13  C   UNL     1      31.797 -23.336 -15.451  0.00  0.00    +0.002 C 
ATOM     14  C   UNL     1      33.023 -23.756 -14.935  0.00  0.00    +0.051 C 
ATOM     15  C   UNL     1      30.712 -23.157 -14.614  0.00  0.00    -0.002 C 
ATOM     16  C   UNL     1      33.219 -24.010 -13.591  0.00  0.00    +0.004 C 
ATOM     17  C   UNL     1      30.883 -23.408 -13.249  0.00  0.00    -0.000 C 
ATOM     18  C   UNL     1      32.126 -23.831 -12.742  0.00  0.00    +0.000 C 
ENDBRANCH   8  10
ENDBRANCH   2   8
BRANCH   1  19
ATOM     19  C   UNL     1      35.629 -18.776 -21.347  0.00  0.00    -0.006 C 
BRANCH  19  21
ATOM     20  O   UNL     1      35.088 -19.487 -23.588  0.00  0.00    -0.294 OA
ATOM     21  C   UNL     1      35.160 -18.568 -22.775  0.00  0.00    +0.152 C 
BRANCH  21  23
ATOM     22  F   UNL     1      33.700 -13.421 -24.371  0.00  0.00    -0.204 F 
ATOM     23  C   UNL     1      34.770 -17.191 -23.202  0.00  0.00    +0.033 C 
ATOM     24  C   UNL     1      34.257 -17.015 -24.467  0.00  0.00    +0.005 C 
ATOM     25  C   UNL     1      34.938 -16.154 -22.315  0.00  0.00    +0.005 C 
ATOM     26  C   UNL     1      33.891 -15.729 -24.866  0.00  0.00    +0.030 C 
ATOM     27  C   UNL     1      34.573 -14.869 -22.713  0.00  0.00    +0.030 C 
ATOM     28  C   UNL     1      34.050 -14.656 -23.988  0.00  0.00    +0.140 C 
ENDBRANCH  21  23
ENDBRANCH  19  21
ENDBRANCH   1  19
TORSDOF 5
ENDMDL
MODEL 2
REMARK VINA RESULT:     -11.4      3.249      9.876
REMARK  Name = 9799284
REMARK  5 active torsions:
REMARK  status: ('A' for Active; 'I' for Inactive)
REMARK    1  A    between atoms: N_1  and  C_19
REMARK    2  A    between atoms: C_2  and  C_8
REMARK    3  A    between atoms: C_8  and  N_10
REMARK    4  A    between atoms: C_19  and  C_21
REMARK    5  A    between atoms: C_21  and  C_23
REMARK                            x       y       z     vdW  Elec       q    Type
REMARK                         _______ _______ _______ _____ _____    ______ ____
ROOT
ATOM      1  N   UNL     1      35.393 -21.544 -19.443  0.00  0.00    +0.392 N 
ATOM      2  C   UNL     1      35.467 -19.309 -21.339  0.00  0.00    +0.016 C 
ATOM      3  C   UNL     1      36.731 -20.049 -20.891  0.00  0.00    -0.021 C 
ATOM      4  C   UNL     1      34.250 -20.231 -21.202  0.00  0.00    -0.021 C 
ATOM      5  C   UNL     1      36.558 -20.651 -19.495  0.00  0.00    -0.077 C 
ATOM      6  C   UNL     1      34.159 -20.827 -19.796  0.00  0.00    -0.077 C 
ATOM      7  H   UNL     1      35.533 -22.285 -20.131  0.00  0.00    -0.079 HD
ENDROOT
BRANCH   2   8
ATOM      8  C   UNL     1      35.608 -18.797 -22.770  0.00  0.00    +0.094 C 
BRANCH   8  10
ATOM      9  O   UNL     1      34.426 -17.372 -25.156  0.00  0.00    -0.270 OA
ATOM     10  N   UNL     1      35.103 -17.462 -22.889  0.00  0.00    -0.272 N 
ATOM     11  C   UNL     1      35.095 -16.532 -21.757  0.00  0.00    +0.121 C 
ATOM     12  C   UNL     1      34.570 -16.887 -24.049  0.00  0.00    +0.249 C 
ATOM     13  C   UNL     1      34.491 -15.306 -22.351  0.00  0.00    +0.002 C 
ATOM     14  C   UNL     1      34.184 -15.516 -23.696  0.00  0.00    +0.051 C 
ATOM     15  C   UNL     1      34.227 -14.086 -21.758  0.00  0.00    -0.002 C 
ATOM     16  C   UNL     1      33.613 -14.543 -24.492  0.00  0.00    +0.004 C 
ATOM     17  C   UNL     1      33.649 -13.082 -22.542  0.00  0.00    -0.000 C 
ATOM     18  C   UNL     1      33.344 -13.309 -23.897  0.00  0.00    +0.000 C 
ENDBRANCH   8  10
ENDBRANCH   2   8
BRANCH   1  19
ATOM     19  C   UNL     1      35.271 -22.152 -18.119  0.00  0.00    -0.006 C 
BRANCH  19  21
ATOM     20  O   UNL     1      33.806 -23.802 -19.096  0.00  0.00    -0.294 OA
ATOM     21  C   UNL     1      34.098 -23.114 -18.120  0.00  0.00    +0.152 C 
BRANCH  21  23
ATOM     22  F   UNL     1      31.001 -23.529 -13.493  0.00  0.00    -0.204 F 
ATOM     23  C   UNL     1      33.269 -23.226 -16.883  0.00  0.00    +0.033 C 
ATOM     24  C   UNL     1      33.898 -23.517 -15.694  0.00  0.00    +0.005 C 
ATOM     25  C   UNL     1      31.911 -23.033 -16.979  0.00  0.00    +0.005 C 
ATOM     26  C   UNL     1      33.125 -23.620 -14.537  0.00  0.00    +0.030 C 
ATOM     27  C   UNL     1      31.137 -23.135 -15.824  0.00  0.00    +0.030 C 
ATOM     28  C   UNL     1      31.744 -23.429 -14.603  0.00  0.00    +0.140 C 
ENDBRANCH  21  23
ENDBRANCH  19  21
ENDBRANCH   1  19
TORSDOF 5
ENDMDL
MODEL 3
REMARK VINA RESULT:     -11.4      5.425     11.328
REMARK  Name = 9799284
REMARK  5 active torsions:
REMARK  status: ('A' for Active; 'I' for Inactive)
REMARK    1  A    between atoms: N_1  and  C_19
REMARK    2  A    between atoms: C_2  and  C_8
REMARK    3  A    between atoms: C_8  and  N_10
REMARK    4  A    between atoms: C_19  and  C_21
REMARK    5  A    between atoms: C_21  and  C_23
REMARK                            x       y       z     vdW  Elec       q    Type
REMARK                         _______ _______ _______ _____ _____    ______ ____
ROOT
ATOM      1  N   UNL     1      34.217 -15.624 -22.788  0.00  0.00    +0.392 N 
ATOM      2  C   UNL     1      32.919 -13.078 -22.136  0.00  0.00    +0.016 C 
ATOM      3  C   UNL     1      32.769 -13.751 -23.505  0.00  0.00    -0.021 C 
ATOM      4  C   UNL     1      33.241 -14.134 -21.072  0.00  0.00    -0.021 C 
ATOM      5  C   UNL     1      33.984 -14.619 -23.834  0.00  0.00    -0.077 C 
ATOM      6  C   UNL     1      34.441 -14.989 -21.482  0.00  0.00    -0.077 C 
ATOM      7  H   UNL     1      33.381 -16.204 -22.717  0.00  0.00    -0.079 HD
ENDROOT
BRANCH   2   8
ATOM      8  C   UNL     1      31.661 -12.294 -21.768  0.00  0.00    +0.094 C 
BRANCH   8  10
ATOM      9  O   UNL     1      31.008 -10.320 -19.579  0.00  0.00    -0.270 OA
ATOM     10  N   UNL     1      31.938 -10.892 -21.679  0.00  0.00    -0.272 N 
ATOM     11  C   UNL     1      32.644 -10.172 -22.743  0.00  0.00    +0.121 C 
ATOM     12  C   UNL     1      31.592 -10.053 -20.613  0.00  0.00    +0.249 C 
ATOM     13  C   UNL     1      32.696  -8.781 -22.211  0.00  0.00    +0.002 C 
ATOM     14  C   UNL     1      32.078  -8.714 -20.962  0.00  0.00    +0.051 C 
ATOM     15  C   UNL     1      33.246  -7.648 -22.780  0.00  0.00    -0.002 C 
ATOM     16  C   UNL     1      31.984  -7.541 -20.239  0.00  0.00    +0.004 C 
ATOM     17  C   UNL     1      33.164  -6.447 -22.069  0.00  0.00    -0.000 C 
ATOM     18  C   UNL     1      32.538  -6.394 -20.809  0.00  0.00    +0.000 C 
ENDBRANCH   8  10
ENDBRANCH   2   8
BRANCH   1  19
ATOM     19  C   UNL     1      35.350 -16.479 -23.143  0.00  0.00    -0.006 C 
BRANCH  19  21
ATOM     20  O   UNL     1      34.173 -18.395 -24.018  0.00  0.00    -0.294 OA
ATOM     21  C   UNL     1      34.898 -17.928 -23.142  0.00  0.00    +0.152 C 
BRANCH  21  23
ATOM     22  F   UNL     1      36.609 -21.247 -18.992  0.00  0.00    -0.204 F 
ATOM     23  C   UNL     1      35.355 -18.815 -22.032  0.00  0.00    +0.033 C 
ATOM     24  C   UNL     1      34.475 -19.745 -21.527  0.00  0.00    +0.005 C 
ATOM     25  C   UNL     1      36.638 -18.669 -21.558  0.00  0.00    +0.005 C 
ATOM     26  C   UNL     1      34.903 -20.575 -20.490  0.00  0.00    +0.030 C 
ATOM     27  C   UNL     1      37.066 -19.498 -20.522  0.00  0.00    +0.030 C 
ATOM     28  C   UNL     1      36.199 -20.451 -19.988  0.00  0.00    +0.140 C 
ENDBRANCH  21  23
ENDBRANCH  19  21
ENDBRANCH   1  19
TORSDOF 5
ENDMDL
MODEL 4
REMARK VINA RESULT:     -11.3      4.982     11.607
REMARK  Name = 9799284
REMARK  5 active torsions:
REMARK  status: ('A' for Active; 'I' for Inactive)
REMARK    1  A    between atoms: N_1  and  C_19
REMARK    2  A    between atoms: C_2  and  C_8
REMARK    3  A    between atoms: C_8  and  N_10
REMARK    4  A    between atoms: C_19  and  C_21
REMARK    5  A    between atoms: C_21  and  C_23
REMARK                            x       y       z     vdW  Elec       q    Type
REMARK                         _______ _______ _______ _____ _____    ______ ____
ROOT
ATOM      1  N   UNL     1      34.606 -16.300 -21.836  0.00  0.00    +0.392 N 
ATOM      2  C   UNL     1      33.711 -13.604 -22.561  0.00  0.00    +0.016 C 
ATOM      3  C   UNL     1      33.877 -14.722 -23.597  0.00  0.00    -0.021 C 
ATOM      4  C   UNL     1      33.452 -14.213 -21.179  0.00  0.00    -0.021 C 
ATOM      5  C   UNL     1      34.931 -15.738 -23.154  0.00  0.00    -0.077 C 
ATOM      6  C   UNL     1      34.520 -15.246 -20.816  0.00  0.00    -0.077 C 
ATOM      7  H   UNL     1      33.692 -16.749 -21.902  0.00  0.00    -0.079 HD
ENDROOT
BRANCH   2   8
ATOM      8  C   UNL     1      32.588 -12.649 -22.959  0.00  0.00    +0.094 C 
BRANCH   8  10
ATOM      9  O   UNL     1      31.363 -10.163 -21.763  0.00  0.00    -0.270 OA
ATOM     10  N   UNL     1      33.050 -11.294 -22.977  0.00  0.00    -0.272 N 
ATOM     11  C   UNL     1      34.299 -10.909 -23.642  0.00  0.00    +0.121 C 
ATOM     12  C   UNL     1      32.406 -10.199 -22.388  0.00  0.00    +0.249 C 
ATOM     13  C   UNL     1      34.355  -9.440 -23.396  0.00  0.00    +0.002 C 
ATOM     14  C   UNL     1      33.244  -9.026 -22.660  0.00  0.00    +0.051 C 
ATOM     15  C   UNL     1      35.313  -8.524 -23.788  0.00  0.00    -0.002 C 
ATOM     16  C   UNL     1      33.041  -7.711 -22.291  0.00  0.00    +0.004 C 
ATOM     17  C   UNL     1      35.132  -7.185 -23.426  0.00  0.00    -0.000 C 
ATOM     18  C   UNL     1      34.006  -6.782 -22.684  0.00  0.00    +0.000 C 
ENDBRANCH   8  10
ENDBRANCH   2   8
BRANCH   1  19
ATOM     19  C   UNL     1      35.594 -17.307 -21.450  0.00  0.00    -0.006 C 
BRANCH  19  21
ATOM     20  O   UNL     1      34.890 -18.893 -23.127  0.00  0.00    -0.294 OA
ATOM     21  C   UNL     1      35.136 -18.667 -21.945  0.00  0.00    +0.152 C 
BRANCH  21  23
ATOM     22  F   UNL     1      34.559 -22.793 -18.229  0.00  0.00    -0.204 F 
ATOM     23  C   UNL     1      34.982 -19.770 -20.950  0.00  0.00    +0.033 C 
ATOM     24  C   UNL     1      33.712 -20.186 -20.620  0.00  0.00    +0.005 C 
ATOM     25  C   UNL     1      36.114 -20.328 -20.404  0.00  0.00    +0.005 C 
ATOM     26  C   UNL     1      33.568 -21.217 -19.692  0.00  0.00    +0.030 C 
ATOM     27  C   UNL     1      35.971 -21.359 -19.477  0.00  0.00    +0.030 C 
ATOM     28  C   UNL     1      34.698 -21.803 -19.120  0.00  0.00    +0.140 C 
ENDBRANCH  21  23
ENDBRANCH  19  21
ENDBRANCH   1  19
TORSDOF 5
ENDMDL
MODEL 5
REMARK VINA RESULT:     -11.2      5.286     11.228
REMARK  Name = 9799284
REMARK  5 active torsions:
REMARK  status: ('A' for Active; 'I' for Inactive)
REMARK    1  A    between atoms: N_1  and  C_19
REMARK    2  A    between atoms: C_2  and  C_8
REMARK    3  A    between atoms: C_8  and  N_10
REMARK    4  A    between atoms: C_19  and  C_21
REMARK    5  A    between atoms: C_21  and  C_23
REMARK                            x       y       z     vdW  Elec       q    Type
REMARK                         _______ _______ _______ _____ _____    ______ ____
ROOT
ATOM      1  N   UNL     1      34.410 -15.912 -21.840  0.00  0.00    +0.392 N 
ATOM      2  C   UNL     1      33.006 -13.351 -21.590  0.00  0.00    +0.016 C 
ATOM      3  C   UNL     1      33.141 -14.088 -22.927  0.00  0.00    -0.021 C 
ATOM      4  C   UNL     1      33.102 -14.352 -20.434  0.00  0.00    -0.021 C 
ATOM      5  C   UNL     1      34.398 -14.959 -22.957  0.00  0.00    -0.077 C 
ATOM      6  C   UNL     1      34.360 -15.215 -20.547  0.00  0.00    -0.077 C 
ATOM      7  H   UNL     1      33.577 -16.496 -21.914  0.00  0.00    -0.079 HD
ENDROOT
BRANCH   2   8
ATOM      8  C   UNL     1      31.700 -12.562 -21.527  0.00  0.00    +0.094 C 
BRANCH   8  10
ATOM      9  O   UNL     1      32.587 -10.618 -23.659  0.00  0.00    -0.270 OA
ATOM     10  N   UNL     1      31.953 -11.156 -21.443  0.00  0.00    -0.272 N 
ATOM     11  C   UNL     1      31.796 -10.413 -20.189  0.00  0.00    +0.121 C 
ATOM     12  C   UNL     1      32.365 -10.331 -22.497  0.00  0.00    +0.249 C 
ATOM     13  C   UNL     1      32.159  -9.024 -20.589  0.00  0.00    +0.002 C 
ATOM     14  C   UNL     1      32.493  -8.979 -21.943  0.00  0.00    +0.051 C 
ATOM     15  C   UNL     1      32.197  -7.875 -19.823  0.00  0.00    -0.002 C 
ATOM     16  C   UNL     1      32.871  -7.813 -22.580  0.00  0.00    +0.004 C 
ATOM     17  C   UNL     1      32.576  -6.680 -20.443  0.00  0.00    -0.000 C 
ATOM     18  C   UNL     1      32.910  -6.650 -21.810  0.00  0.00    +0.000 C 
ENDBRANCH   8  10
ENDBRANCH   2   8
BRANCH   1  19
ATOM     19  C   UNL     1      35.591 -16.772 -21.912  0.00  0.00    -0.006 C 
BRANCH  19  21
ATOM     20  O   UNL     1      34.678 -18.442 -23.396  0.00  0.00    -0.294 OA
ATOM     21  C   UNL     1      35.160 -18.175 -22.297  0.00  0.00    +0.152 C 
BRANCH  21  23
ATOM     22  F   UNL     1      35.803 -22.274 -18.562  0.00  0.00    -0.204 F 
ATOM     23  C   UNL     1      35.332 -19.271 -21.297  0.00  0.00    +0.033 C 
ATOM     24  C   UNL     1      34.223 -19.984 -20.905  0.00  0.00    +0.005 C 
ATOM     25  C   UNL     1      36.593 -19.525 -20.809  0.00  0.00    +0.005 C 
ATOM     26  C   UNL     1      34.383 -21.009 -19.972  0.00  0.00    +0.030 C 
ATOM     27  C   UNL     1      36.754 -20.549 -19.877  0.00  0.00    +0.030 C 
ATOM     28  C   UNL     1      35.649 -21.291 -19.458  0.00  0.00    +0.140 C 
ENDBRANCH  21  23
ENDBRANCH  19  21
ENDBRANCH   1  19
TORSDOF 5
ENDMDL
MODEL 6
REMARK VINA RESULT:     -11.2      6.434     12.123
REMARK  Name = 9799284
REMARK  5 active torsions:
REMARK  status: ('A' for Active; 'I' for Inactive)
REMARK    1  A    between atoms: N_1  and  C_19
REMARK    2  A    between atoms: C_2  and  C_8
REMARK    3  A    between atoms: C_8  and  N_10
REMARK    4  A    between atoms: C_19  and  C_21
REMARK    5  A    between atoms: C_21  and  C_23
REMARK                            x       y       z     vdW  Elec       q    Type
REMARK                         _______ _______ _______ _____ _____    ______ ____
ROOT
ATOM      1  N   UNL     1      33.712 -14.010 -23.432  0.00  0.00    +0.392 N 
ATOM      2  C   UNL     1      32.347 -11.843 -22.006  0.00  0.00    +0.016 C 
ATOM      3  C   UNL     1      32.746 -11.733 -23.482  0.00  0.00    -0.021 C 
ATOM      4  C   UNL     1      32.172 -13.317 -21.624  0.00  0.00    -0.021 C 
ATOM      5  C   UNL     1      33.960 -12.609 -23.796  0.00  0.00    -0.077 C 
ATOM      6  C   UNL     1      33.405 -14.140 -22.001  0.00  0.00    -0.077 C 
ATOM      7  H   UNL     1      32.900 -14.334 -23.958  0.00  0.00    -0.079 HD
ENDROOT
BRANCH   2   8
ATOM      8  C   UNL     1      31.077 -11.047 -21.719  0.00  0.00    +0.094 C 
BRANCH   8  10
ATOM      9  O   UNL     1      32.305  -9.208 -19.663  0.00  0.00    -0.270 OA
ATOM     10  N   UNL     1      31.329  -9.638 -21.776  0.00  0.00    -0.272 N 
ATOM     11  C   UNL     1      30.992  -8.837 -22.957  0.00  0.00    +0.121 C 
ATOM     12  C   UNL     1      31.909  -8.867 -20.762  0.00  0.00    +0.249 C 
ATOM     13  C   UNL     1      31.432  -7.471 -22.555  0.00  0.00    +0.002 C 
ATOM     14  C   UNL     1      31.969  -7.491 -21.268  0.00  0.00    +0.051 C 
ATOM     15  C   UNL     1      31.367  -6.288 -23.266  0.00  0.00    -0.002 C 
ATOM     16  C   UNL     1      32.455  -6.358 -20.645  0.00  0.00    +0.004 C 
ATOM     17  C   UNL     1      31.853  -5.126 -22.659  0.00  0.00    -0.000 C 
ATOM     18  C   UNL     1      32.393  -5.161 -21.359  0.00  0.00    +0.000 C 
ENDBRANCH   8  10
ENDBRANCH   2   8
BRANCH   1  19
ATOM     19  C   UNL     1      34.861 -14.843 -23.786  0.00  0.00    -0.006 C 
BRANCH  19  21
ATOM     20  O   UNL     1      33.749 -16.348 -25.310  0.00  0.00    -0.294 OA
ATOM     21  C   UNL     1      34.365 -16.198 -24.258  0.00  0.00    +0.152 C 
BRANCH  21  23
ATOM     22  F   UNL     1      35.402 -20.663 -21.070  0.00  0.00    -0.204 F 
ATOM     23  C   UNL     1      34.642 -17.392 -23.405  0.00  0.00    +0.033 C 
ATOM     24  C   UNL     1      34.269 -18.633 -23.869  0.00  0.00    +0.005 C 
ATOM     25  C   UNL     1      35.259 -17.205 -22.190  0.00  0.00    +0.005 C 
ATOM     26  C   UNL     1      34.529 -19.749 -23.072  0.00  0.00    +0.030 C 
ATOM     27  C   UNL     1      35.519 -18.320 -21.394  0.00  0.00    +0.030 C 
ATOM     28  C   UNL     1      35.153 -19.592 -21.835  0.00  0.00    +0.140 C 
ENDBRANCH  21  23
ENDBRANCH  19  21
ENDBRANCH   1  19
TORSDOF 5
ENDMDL
MODEL 7
REMARK VINA RESULT:     -11.1      4.151      7.182
REMARK  Name = 9799284
REMARK  5 active torsions:
REMARK  status: ('A' for Active; 'I' for Inactive)
REMARK    1  A    between atoms: N_1  and  C_19
REMARK    2  A    between atoms: C_2  and  C_8
REMARK    3  A    between atoms: C_8  and  N_10
REMARK    4  A    between atoms: C_19  and  C_21
REMARK    5  A    between atoms: C_21  and  C_23
REMARK                            x       y       z     vdW  Elec       q    Type
REMARK                         _______ _______ _______ _____ _____    ______ ____
ROOT
ATOM      1  N   UNL     1      33.691 -13.781 -22.840  0.00  0.00    +0.392 N 
ATOM      2  C   UNL     1      34.669 -16.537 -22.617  0.00  0.00    +0.016 C 
ATOM      3  C   UNL     1      34.540 -15.816 -23.964  0.00  0.00    -0.021 C 
ATOM      4  C   UNL     1      34.843 -15.509 -21.494  0.00  0.00    -0.021 C 
ATOM      5  C   UNL     1      33.447 -14.747 -23.920  0.00  0.00    -0.077 C 
ATOM      6  C   UNL     1      33.739 -14.450 -21.532  0.00  0.00    -0.077 C 
ATOM      7  H   UNL     1      34.600 -13.348 -23.005  0.00  0.00    -0.079 HD
ENDROOT
BRANCH   2   8
ATOM      8  C   UNL     1      35.827 -17.531 -22.635  0.00  0.00    +0.094 C 
BRANCH   8  10
ATOM      9  O   UNL     1      37.727 -19.023 -20.825  0.00  0.00    -0.270 OA
ATOM     10  N   UNL     1      35.581 -18.620 -21.738  0.00  0.00    -0.272 N 
ATOM     11  C   UNL     1      34.246 -19.201 -21.570  0.00  0.00    +0.121 C 
ATOM     12  C   UNL     1      36.537 -19.251 -20.933  0.00  0.00    +0.249 C 
ATOM     13  C   UNL     1      34.485 -20.271 -20.561  0.00  0.00    +0.002 C 
ATOM     14  C   UNL     1      35.829 -20.299 -20.189  0.00  0.00    +0.051 C 
ATOM     15  C   UNL     1      33.588 -21.163 -20.004  0.00  0.00    -0.002 C 
ATOM     16  C   UNL     1      36.329 -21.196 -19.266  0.00  0.00    +0.004 C 
ATOM     17  C   UNL     1      34.068 -22.082 -19.066  0.00  0.00    -0.000 C 
ATOM     18  C   UNL     1      35.427 -22.099 -18.700  0.00  0.00    +0.000 C 
ENDBRANCH   8  10
ENDBRANCH   2   8
BRANCH   1  19
ATOM     19  C   UNL     1      32.667 -12.738 -22.844  0.00  0.00    -0.006 C 
BRANCH  19  21
ATOM     20  O   UNL     1      34.407 -11.333 -23.752  0.00  0.00    -0.294 OA
ATOM     21  C   UNL     1      33.313 -11.410 -23.197  0.00  0.00    +0.152 C 
BRANCH  21  23
ATOM     22  F   UNL     1      30.593  -6.706 -21.913  0.00  0.00    -0.204 F 
ATOM     23  C   UNL     1      32.585 -10.152 -22.854  0.00  0.00    +0.033 C 
ATOM     24  C   UNL     1      32.318  -9.886 -21.530  0.00  0.00    +0.005 C 
ATOM     25  C   UNL     1      32.210  -9.309 -23.873  0.00  0.00    +0.005 C 
ATOM     26  C   UNL     1      31.639  -8.711 -21.209  0.00  0.00    +0.030 C 
ATOM     27  C   UNL     1      31.532  -8.134 -23.554  0.00  0.00    +0.030 C 
ATOM     28  C   UNL     1      31.246  -7.834 -22.221  0.00  0.00    +0.140 C 
ENDBRANCH  21  23
ENDBRANCH  19  21
ENDBRANCH   1  19
TORSDOF 5
ENDMDL
MODEL 8
REMARK VINA RESULT:     -10.9      4.690     10.348
REMARK  Name = 9799284
REMARK  5 active torsions:
REMARK  status: ('A' for Active; 'I' for Inactive)
REMARK    1  A    between atoms: N_1  and  C_19
REMARK    2  A    between atoms: C_2  and  C_8
REMARK    3  A    between atoms: C_8  and  N_10
REMARK    4  A    between atoms: C_19  and  C_21
REMARK    5  A    between atoms: C_21  and  C_23
REMARK                            x       y       z     vdW  Elec       q    Type
REMARK                         _______ _______ _______ _____ _____    ______ ____
ROOT
ATOM      1  N   UNL     1      34.853 -24.062 -13.682  0.00  0.00    +0.392 N 
ATOM      2  C   UNL     1      34.061 -23.151 -16.354  0.00  0.00    +0.016 C 
ATOM      3  C   UNL     1      35.527 -23.360 -15.957  0.00  0.00    -0.021 C 
ATOM      4  C   UNL     1      33.158 -24.032 -15.484  0.00  0.00    -0.021 C 
ATOM      5  C   UNL     1      35.728 -23.168 -14.453  0.00  0.00    -0.077 C 
ATOM      6  C   UNL     1      33.438 -23.818 -13.995  0.00  0.00    -0.077 C 
ATOM      7  H   UNL     1      35.073 -25.022 -13.946  0.00  0.00    -0.079 HD
ENDROOT
BRANCH   2   8
ATOM      8  C   UNL     1      33.847 -23.442 -17.837  0.00  0.00    +0.094 C 
BRANCH   8  10
ATOM      9  O   UNL     1      32.486 -21.599 -19.804  0.00  0.00    -0.270 OA
ATOM     10  N   UNL     1      34.392 -22.396 -18.649  0.00  0.00    -0.272 N 
ATOM     11  C   UNL     1      35.818 -22.056 -18.621  0.00  0.00    +0.121 C 
ATOM     12  C   UNL     1      33.674 -21.588 -19.539  0.00  0.00    +0.249 C 
ATOM     13  C   UNL     1      35.901 -20.937 -19.602  0.00  0.00    +0.002 C 
ATOM     14  C   UNL     1      34.643 -20.665 -20.139  0.00  0.00    +0.051 C 
ATOM     15  C   UNL     1      37.003 -20.205 -20.001  0.00  0.00    -0.002 C 
ATOM     16  C   UNL     1      34.430 -19.673 -21.077  0.00  0.00    +0.004 C 
ATOM     17  C   UNL     1      36.816 -19.194 -20.949  0.00  0.00    -0.000 C 
ATOM     18  C   UNL     1      35.540 -18.930 -21.482  0.00  0.00    +0.000 C 
ENDBRANCH   8  10
ENDBRANCH   2   8
BRANCH   1  19
ATOM     19  C   UNL     1      35.094 -23.904 -12.248  0.00  0.00    -0.006 C 
BRANCH  19  21
ATOM     20  O   UNL     1      35.671 -25.686 -10.727  0.00  0.00    -0.294 OA
ATOM     21  C   UNL     1      35.935 -25.068 -11.755  0.00  0.00    +0.152 C 
BRANCH  21  23
ATOM     22  F   UNL     1      40.398 -26.581 -14.749  0.00  0.00    -0.204 F 
ATOM     23  C   UNL     1      37.129 -25.472 -12.557  0.00  0.00    +0.033 C 
ATOM     24  C   UNL     1      38.288 -24.742 -12.425  0.00  0.00    +0.005 C 
ATOM     25  C   UNL     1      37.023 -26.558 -13.394  0.00  0.00    +0.005 C 
ATOM     26  C   UNL     1      39.404 -25.121 -13.172  0.00  0.00    +0.030 C 
ATOM     27  C   UNL     1      38.137 -26.936 -14.141  0.00  0.00    +0.030 C 
ATOM     28  C   UNL     1      39.328 -26.218 -14.031  0.00  0.00    +0.140 C 
ENDBRANCH  21  23
ENDBRANCH  19  21
ENDBRANCH   1  19
TORSDOF 5
ENDMDL
MODEL 9
REMARK VINA RESULT:     -10.6      1.358      2.035
REMARK  Name = 9799284
REMARK  5 active torsions:
REMARK  status: ('A' for Active; 'I' for Inactive)
REMARK    1  A    between atoms: N_1  and  C_19
REMARK    2  A    between atoms: C_2  and  C_8
REMARK    3  A    between atoms: C_8  and  N_10
REMARK    4  A    between atoms: C_19  and  C_21
REMARK    5  A    between atoms: C_21  and  C_23
REMARK                            x       y       z     vdW  Elec       q    Type
REMARK                         _______ _______ _______ _____ _____    ______ ____
ROOT
ATOM      1  N   UNL     1      35.291 -19.628 -21.386  0.00  0.00    +0.392 N 
ATOM      2  C   UNL     1      34.407 -21.448 -19.265  0.00  0.00    +0.016 C 
ATOM      3  C   UNL     1      33.434 -20.823 -20.270  0.00  0.00    -0.021 C 
ATOM      4  C   UNL     1      35.810 -21.518 -19.877  0.00  0.00    -0.021 C 
ATOM      5  C   UNL     1      33.956 -19.482 -20.789  0.00  0.00    -0.077 C 
ATOM      6  C   UNL     1      36.254 -20.154 -20.409  0.00  0.00    -0.077 C 
ATOM      7  H   UNL     1      35.222 -20.298 -22.152  0.00  0.00    -0.079 HD
ENDROOT
BRANCH   2   8
ATOM      8  C   UNL     1      33.931 -22.831 -18.826  0.00  0.00    +0.094 C 
BRANCH   8  10
ATOM      9  O   UNL     1      32.165 -23.826 -16.589  0.00  0.00    -0.270 OA
ATOM     10  N   UNL     1      34.235 -23.064 -17.447  0.00  0.00    -0.272 N 
ATOM     11  C   UNL     1      35.573 -22.828 -16.897  0.00  0.00    +0.121 C 
ATOM     12  C   UNL     1      33.340 -23.532 -16.476  0.00  0.00    +0.249 C 
ATOM     13  C   UNL     1      35.404 -23.205 -15.465  0.00  0.00    +0.002 C 
ATOM     14  C   UNL     1      34.093 -23.617 -15.221  0.00  0.00    +0.051 C 
ATOM     15  C   UNL     1      36.333 -23.189 -14.442  0.00  0.00    -0.002 C 
ATOM     16  C   UNL     1      33.659 -24.023 -13.974  0.00  0.00    +0.004 C 
ATOM     17  C   UNL     1      35.919 -23.596 -13.169  0.00  0.00    -0.000 C 
ATOM     18  C   UNL     1      34.594 -24.009 -12.938  0.00  0.00    +0.000 C 
ENDBRANCH   8  10
ENDBRANCH   2   8
BRANCH   1  19
ATOM     19  C   UNL     1      35.754 -18.349 -21.924  0.00  0.00    -0.006 C 
BRANCH  19  21
ATOM     20  O   UNL     1      34.574 -18.854 -23.968  0.00  0.00    -0.294 OA
ATOM     21  C   UNL     1      34.939 -18.005 -23.158  0.00  0.00    +0.152 C 
BRANCH  21  23
ATOM     22  F   UNL     1      33.556 -12.666 -24.026  0.00  0.00    -0.204 F 
ATOM     23  C   UNL     1      34.570 -16.577 -23.390  0.00  0.00    +0.033 C 
ATOM     24  C   UNL     1      33.997 -16.233 -24.593  0.00  0.00    +0.005 C 
ATOM     25  C   UNL     1      34.817 -15.662 -22.393  0.00  0.00    +0.005 C 
ATOM     26  C   UNL     1      33.650 -14.899 -24.810  0.00  0.00    +0.030 C 
ATOM     27  C   UNL     1      34.471 -14.329 -22.609  0.00  0.00    +0.030 C 
ATOM     28  C   UNL     1      33.888 -13.947 -23.818  0.00  0.00    +0.140 C 
ENDBRANCH  21  23
ENDBRANCH  19  21
ENDBRANCH   1  19
TORSDOF 5
ENDMDL
