MODEL 1
REMARK VINA RESULT:     -11.3      0.000      0.000
REMARK  Name = 4369498
REMARK  8 active torsions:
REMARK  status: ('A' for Active; 'I' for Inactive)
REMARK    1  A    between atoms: N_2  and  C_11
REMARK    2  A    between atoms: C_5  and  C_25
REMARK    3  A    between atoms: C_8  and  S_14
REMARK    4  A    between atoms: C_13  and  O_23
REMARK    5  A    between atoms: S_14  and  N_17
REMARK    6  A    between atoms: N_17  and  C_19
REMARK    7  A    between atoms: C_19  and  C_20
REMARK    8  A    between atoms: C_26  and  C_32
REMARK                            x       y       z     vdW  Elec       q    Type
REMARK                         _______ _______ _______ _____ _____    ______ ____
ROOT
ATOM      1  O   UNL     1      36.225 -21.344 -18.179  0.00  0.00    -0.424 OA
ATOM      2  N   UNL     1      36.025 -22.575 -16.249  0.00  0.00    -0.265 N 
ATOM      3  N   UNL     1      34.476 -22.774 -18.080  0.00  0.00    -0.193 NA
ATOM      4  C   UNL     1      35.532 -22.281 -17.474  0.00  0.00    +0.293 C 
ATOM      5  C   UNL     1      35.529 -21.243 -19.346  0.00  0.00    +0.168 C 
ATOM      6  C   UNL     1      34.468 -22.112 -19.281  0.00  0.00    +0.141 C 
ATOM      7  H   UNL     1      36.836 -22.077 -15.999  0.00  0.00    +0.157 HD
ENDROOT
BRANCH   2  11
ATOM      8  C   UNL     1      33.728 -24.392 -13.968  0.00  0.00    +0.123 C 
ATOM      9  C   UNL     1      34.201 -23.502 -14.934  0.00  0.00    +0.038 C 
ATOM     10  C   UNL     1      34.609 -25.268 -13.336  0.00  0.00    +0.023 C 
ATOM     11  C   UNL     1      35.555 -23.490 -15.265  0.00  0.00    +0.087 C 
ATOM     12  C   UNL     1      35.964 -25.255 -13.667  0.00  0.00    +0.040 C 
ATOM     13  C   UNL     1      36.437 -24.366 -14.632  0.00  0.00    +0.152 C 
BRANCH   8  14
ATOM     14  S   UNL     1      32.032 -24.407 -13.549  0.00  0.00    +0.060 S 
ATOM     15  O   UNL     1      31.571 -25.789 -13.511  0.00  0.00    -0.153 OA
ATOM     16  O   UNL     1      31.857 -23.563 -12.375  0.00  0.00    -0.153 OA
BRANCH  14  17
ATOM     17  N   UNL     1      31.315 -23.628 -14.891  0.00  0.00    -0.179 NA
ATOM     18  H   UNL     1      32.027 -23.578 -15.619  0.00  0.00    +0.149 HD
BRANCH  17  19
ATOM     19  C   UNL     1      30.112 -24.201 -15.513  0.00  0.00    +0.091 C 
BRANCH  19  20
ATOM     20  C   UNL     1      29.264 -23.129 -16.112  0.00  0.00    +0.017 C 
ATOM     21  C   UNL     1      27.981 -23.504 -16.795  0.00  0.00    +0.001 C 
ATOM     22  C   UNL     1      27.948 -22.793 -15.475  0.00  0.00    +0.001 C 
ENDBRANCH  19  20
ENDBRANCH  17  19
ENDBRANCH  14  17
ENDBRANCH   8  14
BRANCH  13  23
ATOM     23  O   UNL     1      37.765 -24.368 -14.941  0.00  0.00    -0.470 OA
ATOM     24  C   UNL     1      38.609 -25.212 -14.162  0.00  0.00    +0.253 C 
ENDBRANCH  13  23
ENDBRANCH   2  11
BRANCH   5  25
ATOM     25  C   UNL     1      36.036 -20.304 -20.316  0.00  0.00    +0.036 C 
ATOM     26  C   UNL     1      35.679 -18.872 -22.228  0.00  0.00    +0.002 C 
ATOM     27  C   UNL     1      35.188 -19.780 -21.291  0.00  0.00    +0.003 C 
ATOM     28  C   UNL     1      37.376 -19.918 -20.277  0.00  0.00    +0.003 C 
ATOM     29  C   UNL     1      37.020 -18.487 -22.190  0.00  0.00    +0.000 C 
ATOM     30  C   UNL     1      37.868 -19.010 -21.214  0.00  0.00    +0.000 C 
BRANCH  26  32
ATOM     31  N   UNL     1      33.060 -18.699 -24.878  0.00  0.00    -0.242 NA
ATOM     32  C   UNL     1      34.800 -18.329 -23.240  0.00  0.00    +0.019 C 
ATOM     33  C   UNL     1      34.823 -16.976 -23.561  0.00  0.00    +0.003 C 
ATOM     34  C   UNL     1      33.907 -19.141 -23.923  0.00  0.00    +0.099 C 
ATOM     35  C   UNL     1      33.966 -16.484 -24.538  0.00  0.00    +0.021 C 
ATOM     36  C   UNL     1      33.111 -17.379 -25.162  0.00  0.00    +0.099 C 
ENDBRANCH  26  32
ENDBRANCH   5  25
TORSDOF 8
ENDMDL
MODEL 2
REMARK VINA RESULT:     -11.3      7.355     11.784
REMARK  Name = 4369498
REMARK  8 active torsions:
REMARK  status: ('A' for Active; 'I' for Inactive)
REMARK    1  A    between atoms: N_2  and  C_11
REMARK    2  A    between atoms: C_5  and  C_25
REMARK    3  A    between atoms: C_8  and  S_14
REMARK    4  A    between atoms: C_13  and  O_23
REMARK    5  A    between atoms: S_14  and  N_17
REMARK    6  A    between atoms: N_17  and  C_19
REMARK    7  A    between atoms: C_19  and  C_20
REMARK    8  A    between atoms: C_26  and  C_32
REMARK                            x       y       z     vdW  Elec       q    Type
REMARK                         _______ _______ _______ _____ _____    ______ ____
ROOT
ATOM      1  O   UNL     1      33.468 -11.561 -22.776  0.00  0.00    -0.424 OA
ATOM      2  N   UNL     1      34.143 -13.656 -23.435  0.00  0.00    -0.265 N 
ATOM      3  N   UNL     1      32.072 -13.269 -22.273  0.00  0.00    -0.193 NA
ATOM      4  C   UNL     1      33.205 -12.897 -22.825  0.00  0.00    +0.293 C 
ATOM      5  C   UNL     1      32.387 -11.048 -22.125  0.00  0.00    +0.168 C 
ATOM      6  C   UNL     1      31.543 -12.087 -21.821  0.00  0.00    +0.141 C 
ATOM      7  H   UNL     1      34.919 -13.158 -23.780  0.00  0.00    +0.157 HD
ENDROOT
BRANCH   2  11
ATOM      8  C   UNL     1      34.880 -17.260 -22.935  0.00  0.00    +0.123 C 
ATOM      9  C   UNL     1      34.827 -15.881 -22.728  0.00  0.00    +0.038 C 
ATOM     10  C   UNL     1      34.292 -17.818 -24.070  0.00  0.00    +0.023 C 
ATOM     11  C   UNL     1      34.187 -15.062 -23.657  0.00  0.00    +0.087 C 
ATOM     12  C   UNL     1      33.651 -16.998 -24.999  0.00  0.00    +0.040 C 
ATOM     13  C   UNL     1      33.598 -15.619 -24.792  0.00  0.00    +0.152 C 
BRANCH   8  14
ATOM     14  S   UNL     1      35.685 -18.288 -21.775  0.00  0.00    +0.060 S 
ATOM     15  O   UNL     1      36.995 -18.652 -22.300  0.00  0.00    -0.153 OA
ATOM     16  O   UNL     1      35.592 -17.644 -20.471  0.00  0.00    -0.153 OA
BRANCH  14  17
ATOM     17  N   UNL     1      34.693 -19.680 -21.766  0.00  0.00    -0.179 NA
ATOM     18  H   UNL     1      35.184 -20.395 -22.303  0.00  0.00    +0.149 HD
BRANCH  17  19
ATOM     19  C   UNL     1      34.310 -20.298 -20.488  0.00  0.00    +0.091 C 
BRANCH  19  20
ATOM     20  C   UNL     1      35.203 -21.449 -20.168  0.00  0.00    +0.017 C 
ATOM     21  C   UNL     1      36.376 -21.237 -19.254  0.00  0.00    +0.001 C 
ATOM     22  C   UNL     1      35.190 -22.025 -18.782  0.00  0.00    +0.001 C 
ENDBRANCH  19  20
ENDBRANCH  17  19
ENDBRANCH  14  17
ENDBRANCH   8  14
BRANCH  13  23
ATOM     23  O   UNL     1      32.969 -14.835 -25.712  0.00  0.00    -0.470 OA
ATOM     24  C   UNL     1      33.771 -13.882 -26.407  0.00  0.00    +0.253 C 
ENDBRANCH  13  23
ENDBRANCH   2  11
BRANCH   5  25
ATOM     25  C   UNL     1      32.382  -9.621 -21.918  0.00  0.00    +0.036 C 
ATOM     26  C   UNL     1      32.918  -7.392 -22.684  0.00  0.00    +0.002 C 
ATOM     27  C   UNL     1      32.923  -8.772 -22.884  0.00  0.00    +0.003 C 
ATOM     28  C   UNL     1      31.833  -9.087 -20.751  0.00  0.00    +0.003 C 
ATOM     29  C   UNL     1      32.370  -6.860 -21.516  0.00  0.00    +0.000 C 
ATOM     30  C   UNL     1      31.827  -7.707 -20.550  0.00  0.00    +0.000 C 
BRANCH  26  32
ATOM     31  N   UNL     1      33.218  -4.591 -25.128  0.00  0.00    -0.242 NA
ATOM     32  C   UNL     1      33.481  -6.513 -23.685  0.00  0.00    +0.019 C 
ATOM     33  C   UNL     1      34.770  -6.708 -24.168  0.00  0.00    +0.003 C 
ATOM     34  C   UNL     1      32.753  -5.449 -24.193  0.00  0.00    +0.099 C 
ATOM     35  C   UNL     1      35.283  -5.847 -25.130  0.00  0.00    +0.021 C 
ATOM     36  C   UNL     1      34.474  -4.813 -25.574  0.00  0.00    +0.099 C 
ENDBRANCH  26  32
ENDBRANCH   5  25
TORSDOF 8
ENDMDL
MODEL 3
REMARK VINA RESULT:     -11.3      2.275      5.248
REMARK  Name = 4369498
REMARK  8 active torsions:
REMARK  status: ('A' for Active; 'I' for Inactive)
REMARK    1  A    between atoms: N_2  and  C_11
REMARK    2  A    between atoms: C_5  and  C_25
REMARK    3  A    between atoms: C_8  and  S_14
REMARK    4  A    between atoms: C_13  and  O_23
REMARK    5  A    between atoms: S_14  and  N_17
REMARK    6  A    between atoms: N_17  and  C_19
REMARK    7  A    between atoms: C_19  and  C_20
REMARK    8  A    between atoms: C_26  and  C_32
REMARK                            x       y       z     vdW  Elec       q    Type
REMARK                         _______ _______ _______ _____ _____    ______ ____
ROOT
ATOM      1  O   UNL     1      33.647 -20.928 -19.885  0.00  0.00    -0.424 OA
ATOM      2  N   UNL     1      32.870 -22.165 -18.112  0.00  0.00    -0.265 N 
ATOM      3  N   UNL     1      35.212 -21.966 -18.625  0.00  0.00    -0.193 NA
ATOM      4  C   UNL     1      33.935 -21.727 -18.821  0.00  0.00    +0.293 C 
ATOM      5  C   UNL     1      34.872 -20.638 -20.407  0.00  0.00    +0.168 C 
ATOM      6  C   UNL     1      35.818 -21.271 -19.640  0.00  0.00    +0.141 C 
ATOM      7  H   UNL     1      31.996 -21.857 -18.444  0.00  0.00    +0.157 HD
ENDROOT
BRANCH   2  11
ATOM      8  C   UNL     1      33.944 -24.392 -15.342  0.00  0.00    +0.123 C 
ATOM      9  C   UNL     1      33.987 -23.567 -16.467  0.00  0.00    +0.038 C 
ATOM     10  C   UNL     1      32.726 -24.651 -14.714  0.00  0.00    +0.023 C 
ATOM     11  C   UNL     1      32.812 -23.003 -16.962  0.00  0.00    +0.087 C 
ATOM     12  C   UNL     1      31.551 -24.086 -15.210  0.00  0.00    +0.040 C 
ATOM     13  C   UNL     1      31.594 -23.262 -16.334  0.00  0.00    +0.152 C 
BRANCH   8  14
ATOM     14  S   UNL     1      35.414 -25.103 -14.723  0.00  0.00    +0.060 S 
ATOM     15  O   UNL     1      35.455 -24.913 -13.279  0.00  0.00    -0.153 OA
ATOM     16  O   UNL     1      35.521 -26.449 -15.269  0.00  0.00    -0.153 OA
BRANCH  14  17
ATOM     17  N   UNL     1      36.623 -24.128 -15.437  0.00  0.00    -0.179 NA
ATOM     18  H   UNL     1      36.243 -23.184 -15.498  0.00  0.00    +0.149 HD
BRANCH  17  19
ATOM     19  C   UNL     1      37.943 -24.014 -14.798  0.00  0.00    +0.091 C 
BRANCH  19  20
ATOM     20  C   UNL     1      38.536 -25.364 -14.565  0.00  0.00    +0.017 C 
ATOM     21  C   UNL     1      40.003 -25.479 -14.270  0.00  0.00    +0.001 C 
ATOM     22  C   UNL     1      38.998 -25.734 -13.186  0.00  0.00    +0.001 C 
ENDBRANCH  19  20
ENDBRANCH  17  19
ENDBRANCH  14  17
ENDBRANCH   8  14
BRANCH  13  23
ATOM     23  O   UNL     1      30.434 -22.721 -16.803  0.00  0.00    -0.470 OA
ATOM     24  C   UNL     1      29.232 -23.082 -16.127  0.00  0.00    +0.253 C 
ENDBRANCH  13  23
ENDBRANCH   2  11
BRANCH   5  25
ATOM     25  C   UNL     1      34.887 -19.789 -21.572  0.00  0.00    +0.036 C 
ATOM     26  C   UNL     1      34.763 -17.587 -22.560  0.00  0.00    +0.002 C 
ATOM     27  C   UNL     1      34.748 -18.408 -21.433  0.00  0.00    +0.003 C 
ATOM     28  C   UNL     1      35.042 -20.349 -22.841  0.00  0.00    +0.003 C 
ATOM     29  C   UNL     1      34.917 -18.148 -23.828  0.00  0.00    +0.000 C 
ATOM     30  C   UNL     1      35.057 -19.529 -23.969  0.00  0.00    +0.000 C 
BRANCH  26  32
ATOM     31  N   UNL     1      34.326 -13.994 -23.458  0.00  0.00    -0.242 NA
ATOM     32  C   UNL     1      34.618 -16.156 -22.415  0.00  0.00    +0.019 C 
ATOM     33  C   UNL     1      34.627 -15.557 -21.161  0.00  0.00    +0.003 C 
ATOM     34  C   UNL     1      34.466 -15.336 -23.523  0.00  0.00    +0.099 C 
ATOM     35  C   UNL     1      34.485 -14.178 -21.054  0.00  0.00    +0.021 C 
ATOM     36  C   UNL     1      34.339 -13.448 -22.222  0.00  0.00    +0.099 C 
ENDBRANCH  26  32
ENDBRANCH   5  25
TORSDOF 8
ENDMDL
MODEL 4
REMARK VINA RESULT:     -11.1      8.263     13.759
REMARK  Name = 4369498
REMARK  8 active torsions:
REMARK  status: ('A' for Active; 'I' for Inactive)
REMARK    1  A    between atoms: N_2  and  C_11
REMARK    2  A    between atoms: C_5  and  C_25
REMARK    3  A    between atoms: C_8  and  S_14
REMARK    4  A    between atoms: C_13  and  O_23
REMARK    5  A    between atoms: S_14  and  N_17
REMARK    6  A    between atoms: N_17  and  C_19
REMARK    7  A    between atoms: C_19  and  C_20
REMARK    8  A    between atoms: C_26  and  C_32
REMARK                            x       y       z     vdW  Elec       q    Type
REMARK                         _______ _______ _______ _____ _____    ______ ____
ROOT
ATOM      1  O   UNL     1      32.910 -13.972 -22.728  0.00  0.00    -0.424 OA
ATOM      2  N   UNL     1      32.107 -11.936 -22.028  0.00  0.00    -0.265 N 
ATOM      3  N   UNL     1      33.995 -12.146 -23.505  0.00  0.00    -0.193 NA
ATOM      4  C   UNL     1      33.018 -12.615 -22.762  0.00  0.00    +0.293 C 
ATOM      5  C   UNL     1      33.925 -14.392 -23.533  0.00  0.00    +0.168 C 
ATOM      6  C   UNL     1      34.581 -13.281 -24.002  0.00  0.00    +0.141 C 
ATOM      7  H   UNL     1      31.460 -12.500 -21.546  0.00  0.00    +0.157 HD
ENDROOT
BRANCH   2  11
ATOM      8  C   UNL     1      31.624  -8.334 -22.787  0.00  0.00    +0.123 C 
ATOM      9  C   UNL     1      31.790  -9.710 -22.956  0.00  0.00    +0.038 C 
ATOM     10  C   UNL     1      31.604  -7.786 -21.505  0.00  0.00    +0.023 C 
ATOM     11  C   UNL     1      31.936 -10.535 -21.842  0.00  0.00    +0.087 C 
ATOM     12  C   UNL     1      31.750  -8.613 -20.390  0.00  0.00    +0.040 C 
ATOM     13  C   UNL     1      31.916  -9.987 -20.559  0.00  0.00    +0.152 C 
BRANCH   8  14
ATOM     14  S   UNL     1      31.445  -7.298 -24.182  0.00  0.00    +0.060 S 
ATOM     15  O   UNL     1      30.487  -7.905 -25.097  0.00  0.00    -0.153 OA
ATOM     16  O   UNL     1      31.214  -5.943 -23.701  0.00  0.00    -0.153 OA
BRANCH  14  17
ATOM     17  N   UNL     1      32.999  -7.366 -24.892  0.00  0.00    -0.179 NA
ATOM     18  H   UNL     1      32.862  -7.355 -25.903  0.00  0.00    +0.149 HD
BRANCH  17  19
ATOM     19  C   UNL     1      33.989  -6.323 -24.587  0.00  0.00    +0.091 C 
BRANCH  19  20
ATOM     20  C   UNL     1      35.226  -6.922 -24.007  0.00  0.00    +0.017 C 
ATOM     21  C   UNL     1      35.200  -7.438 -22.597  0.00  0.00    +0.001 C 
ATOM     22  C   UNL     1      35.273  -8.399 -23.746  0.00  0.00    +0.001 C 
ENDBRANCH  19  20
ENDBRANCH  17  19
ENDBRANCH  14  17
ENDBRANCH   8  14
BRANCH  13  23
ATOM     23  O   UNL     1      32.058 -10.777 -19.457  0.00  0.00    -0.470 OA
ATOM     24  C   UNL     1      31.602 -10.244 -18.216  0.00  0.00    +0.253 C 
ENDBRANCH  13  23
ENDBRANCH   2  11
BRANCH   5  25
ATOM     25  C   UNL     1      34.066 -15.819 -23.695  0.00  0.00    +0.036 C 
ATOM     26  C   UNL     1      34.813 -17.957 -22.854  0.00  0.00    +0.002 C 
ATOM     27  C   UNL     1      34.678 -16.578 -22.698  0.00  0.00    +0.003 C 
ATOM     28  C   UNL     1      33.588 -16.440 -24.849  0.00  0.00    +0.003 C 
ATOM     29  C   UNL     1      34.336 -18.577 -24.009  0.00  0.00    +0.000 C 
ATOM     30  C   UNL     1      33.722 -17.819 -25.006  0.00  0.00    +0.000 C 
BRANCH  26  32
ATOM     31  N   UNL     1      37.381 -19.142 -20.422  0.00  0.00    -0.242 NA
ATOM     32  C   UNL     1      35.449 -18.744 -21.821  0.00  0.00    +0.019 C 
ATOM     33  C   UNL     1      34.795 -19.822 -21.235  0.00  0.00    +0.003 C 
ATOM     34  C   UNL     1      36.731 -18.448 -21.382  0.00  0.00    +0.099 C 
ATOM     35  C   UNL     1      35.433 -20.560 -20.244  0.00  0.00    +0.021 C 
ATOM     36  C   UNL     1      36.714 -20.182 -19.877  0.00  0.00    +0.099 C 
ENDBRANCH  26  32
ENDBRANCH   5  25
TORSDOF 8
ENDMDL
MODEL 5
REMARK VINA RESULT:     -11.0      2.501      5.291
REMARK  Name = 4369498
REMARK  8 active torsions:
REMARK  status: ('A' for Active; 'I' for Inactive)
REMARK    1  A    between atoms: N_2  and  C_11
REMARK    2  A    between atoms: C_5  and  C_25
REMARK    3  A    between atoms: C_8  and  S_14
REMARK    4  A    between atoms: C_13  and  O_23
REMARK    5  A    between atoms: S_14  and  N_17
REMARK    6  A    between atoms: N_17  and  C_19
REMARK    7  A    between atoms: C_19  and  C_20
REMARK    8  A    between atoms: C_26  and  C_32
REMARK                            x       y       z     vdW  Elec       q    Type
REMARK                         _______ _______ _______ _____ _____    ______ ____
ROOT
ATOM      1  O   UNL     1      34.183 -20.697 -20.500  0.00  0.00    -0.424 OA
ATOM      2  N   UNL     1      33.944 -22.002 -18.625  0.00  0.00    -0.265 N 
ATOM      3  N   UNL     1      36.000 -20.875 -19.165  0.00  0.00    -0.193 NA
ATOM      4  C   UNL     1      34.748 -21.213 -19.374  0.00  0.00    +0.293 C 
ATOM      5  C   UNL     1      35.188 -19.960 -21.051  0.00  0.00    +0.168 C 
ATOM      6  C   UNL     1      36.288 -20.071 -20.238  0.00  0.00    +0.141 C 
ATOM      7  H   UNL     1      33.032 -22.118 -18.977  0.00  0.00    +0.157 HD
ENDROOT
BRANCH   2  11
ATOM      8  C   UNL     1      35.784 -23.405 -15.721  0.00  0.00    +0.123 C 
ATOM      9  C   UNL     1      35.511 -22.730 -16.912  0.00  0.00    +0.038 C 
ATOM     10  C   UNL     1      34.754 -24.041 -15.028  0.00  0.00    +0.023 C 
ATOM     11  C   UNL     1      34.208 -22.692 -17.408  0.00  0.00    +0.087 C 
ATOM     12  C   UNL     1      33.451 -24.003 -15.525  0.00  0.00    +0.040 C 
ATOM     13  C   UNL     1      33.178 -23.328 -16.715  0.00  0.00    +0.152 C 
BRANCH   8  14
ATOM     14  S   UNL     1      37.415 -23.457 -15.100  0.00  0.00    +0.060 S 
ATOM     15  O   UNL     1      38.298 -22.781 -16.042  0.00  0.00    -0.153 OA
ATOM     16  O   UNL     1      37.377 -23.013 -13.713  0.00  0.00    -0.153 OA
BRANCH  14  17
ATOM     17  N   UNL     1      37.766 -25.130 -15.127  0.00  0.00    -0.179 NA
ATOM     18  H   UNL     1      37.998 -25.367 -16.091  0.00  0.00    +0.149 HD
BRANCH  17  19
ATOM     19  C   UNL     1      38.848 -25.664 -14.286  0.00  0.00    +0.091 C 
BRANCH  19  20
ATOM     20  C   UNL     1      38.293 -26.477 -13.165  0.00  0.00    +0.017 C 
ATOM     21  C   UNL     1      37.882 -25.791 -11.894  0.00  0.00    +0.001 C 
ATOM     22  C   UNL     1      36.839 -26.351 -12.816  0.00  0.00    +0.001 C 
ENDBRANCH  19  20
ENDBRANCH  17  19
ENDBRANCH  14  17
ENDBRANCH   8  14
BRANCH  13  23
ATOM     23  O   UNL     1      31.899 -23.303 -17.184  0.00  0.00    -0.470 OA
ATOM     24  C   UNL     1      30.856 -23.214 -16.215  0.00  0.00    +0.253 C 
ENDBRANCH  13  23
ENDBRANCH   2  11
BRANCH   5  25
ATOM     25  C   UNL     1      34.881 -19.279 -22.284  0.00  0.00    +0.036 C 
ATOM     26  C   UNL     1      34.419 -17.236 -23.489  0.00  0.00    +0.002 C 
ATOM     27  C   UNL     1      34.716 -17.894 -22.296  0.00  0.00    +0.003 C 
ATOM     28  C   UNL     1      34.750 -20.006 -23.468  0.00  0.00    +0.003 C 
ATOM     29  C   UNL     1      34.288 -17.963 -24.672  0.00  0.00    +0.000 C 
ATOM     30  C   UNL     1      34.453 -19.348 -24.662  0.00  0.00    +0.000 C 
BRANCH  26  32
ATOM     31  N   UNL     1      34.515 -13.679 -22.370  0.00  0.00    -0.242 NA
ATOM     32  C   UNL     1      34.247 -15.800 -23.500  0.00  0.00    +0.019 C 
ATOM     33  C   UNL     1      33.676 -15.154 -24.591  0.00  0.00    +0.003 C 
ATOM     34  C   UNL     1      34.647 -15.023 -22.423  0.00  0.00    +0.099 C 
ATOM     35  C   UNL     1      33.524 -13.772 -24.572  0.00  0.00    +0.021 C 
ATOM     36  C   UNL     1      33.955 -13.087 -23.448  0.00  0.00    +0.099 C 
ENDBRANCH  26  32
ENDBRANCH   5  25
TORSDOF 8
ENDMDL
MODEL 6
REMARK VINA RESULT:     -10.9      4.163      6.788
REMARK  Name = 4369498
REMARK  8 active torsions:
REMARK  status: ('A' for Active; 'I' for Inactive)
REMARK    1  A    between atoms: N_2  and  C_11
REMARK    2  A    between atoms: C_5  and  C_25
REMARK    3  A    between atoms: C_8  and  S_14
REMARK    4  A    between atoms: C_13  and  O_23
REMARK    5  A    between atoms: S_14  and  N_17
REMARK    6  A    between atoms: N_17  and  C_19
REMARK    7  A    between atoms: C_19  and  C_20
REMARK    8  A    between atoms: C_26  and  C_32
REMARK                            x       y       z     vdW  Elec       q    Type
REMARK                         _______ _______ _______ _____ _____    ______ ____
ROOT
ATOM      1  O   UNL     1      34.585 -16.961 -22.513  0.00  0.00    -0.424 OA
ATOM      2  N   UNL     1      35.128 -18.947 -21.493  0.00  0.00    -0.265 N 
ATOM      3  N   UNL     1      35.041 -16.860 -20.300  0.00  0.00    -0.193 NA
ATOM      4  C   UNL     1      34.936 -17.614 -21.371  0.00  0.00    +0.293 C 
ATOM      5  C   UNL     1      34.459 -15.664 -22.113  0.00  0.00    +0.168 C 
ATOM      6  C   UNL     1      34.737 -15.608 -20.770  0.00  0.00    +0.141 C 
ATOM      7  H   UNL     1      34.992 -19.303 -22.401  0.00  0.00    +0.157 HD
ENDROOT
BRANCH   2  11
ATOM      8  C   UNL     1      34.891 -21.791 -19.119  0.00  0.00    +0.123 C 
ATOM      9  C   UNL     1      34.545 -20.837 -20.077  0.00  0.00    +0.038 C 
ATOM     10  C   UNL     1      36.187 -21.825 -18.605  0.00  0.00    +0.023 C 
ATOM     11  C   UNL     1      35.495 -19.917 -20.518  0.00  0.00    +0.087 C 
ATOM     12  C   UNL     1      37.137 -20.904 -19.047  0.00  0.00    +0.040 C 
ATOM     13  C   UNL     1      36.791 -19.951 -20.005  0.00  0.00    +0.152 C 
BRANCH   8  14
ATOM     14  S   UNL     1      33.701 -22.941 -18.562  0.00  0.00    +0.060 S 
ATOM     15  O   UNL     1      32.409 -22.273 -18.471  0.00  0.00    -0.153 OA
ATOM     16  O   UNL     1      33.828 -24.142 -19.377  0.00  0.00    -0.153 OA
BRANCH  14  17
ATOM     17  N   UNL     1      34.245 -23.297 -16.981  0.00  0.00    -0.179 NA
ATOM     18  H   UNL     1      34.472 -22.406 -16.540  0.00  0.00    +0.149 HD
BRANCH  17  19
ATOM     19  C   UNL     1      33.365 -24.019 -16.050  0.00  0.00    +0.091 C 
BRANCH  19  20
ATOM     20  C   UNL     1      32.622 -23.065 -15.176  0.00  0.00    +0.017 C 
ATOM     21  C   UNL     1      31.140 -23.230 -15.002  0.00  0.00    +0.001 C 
ATOM     22  C   UNL     1      32.068 -23.547 -13.867  0.00  0.00    +0.001 C 
ENDBRANCH  19  20
ENDBRANCH  17  19
ENDBRANCH  14  17
ENDBRANCH   8  14
BRANCH  13  23
ATOM     23  O   UNL     1      37.734 -19.060 -20.423  0.00  0.00    -0.470 OA
ATOM     24  C   UNL     1      37.919 -18.926 -21.830  0.00  0.00    +0.253 C 
ENDBRANCH  13  23
ENDBRANCH   2  11
BRANCH   5  25
ATOM     25  C   UNL     1      34.087 -14.713 -23.131  0.00  0.00    +0.036 C 
ATOM     26  C   UNL     1      33.732 -12.429 -23.833  0.00  0.00    +0.002 C 
ATOM     27  C   UNL     1      34.091 -13.348 -22.847  0.00  0.00    +0.003 C 
ATOM     28  C   UNL     1      33.725 -15.159 -24.403  0.00  0.00    +0.003 C 
ATOM     29  C   UNL     1      33.369 -12.876 -25.103  0.00  0.00    +0.000 C 
ATOM     30  C   UNL     1      33.366 -14.241 -25.389  0.00  0.00    +0.000 C 
BRANCH  26  32
ATOM     31  N   UNL     1      32.563  -9.080 -22.676  0.00  0.00    -0.242 NA
ATOM     32  C   UNL     1      33.734 -11.013 -23.537  0.00  0.00    +0.019 C 
ATOM     33  C   UNL     1      34.848 -10.225 -23.806  0.00  0.00    +0.003 C 
ATOM     34  C   UNL     1      32.626 -10.397 -22.977  0.00  0.00    +0.099 C 
ATOM     35  C   UNL     1      34.821  -8.867 -23.512  0.00  0.00    +0.021 C 
ATOM     36  C   UNL     1      33.664  -8.348 -22.952  0.00  0.00    +0.099 C 
ENDBRANCH  26  32
ENDBRANCH   5  25
TORSDOF 8
ENDMDL
MODEL 7
REMARK VINA RESULT:     -10.8      1.172      1.374
REMARK  Name = 4369498
REMARK  8 active torsions:
REMARK  status: ('A' for Active; 'I' for Inactive)
REMARK    1  A    between atoms: N_2  and  C_11
REMARK    2  A    between atoms: C_5  and  C_25
REMARK    3  A    between atoms: C_8  and  S_14
REMARK    4  A    between atoms: C_13  and  O_23
REMARK    5  A    between atoms: S_14  and  N_17
REMARK    6  A    between atoms: N_17  and  C_19
REMARK    7  A    between atoms: C_19  and  C_20
REMARK    8  A    between atoms: C_26  and  C_32
REMARK                            x       y       z     vdW  Elec       q    Type
REMARK                         _______ _______ _______ _____ _____    ______ ____
ROOT
ATOM      1  O   UNL     1      35.443 -21.494 -18.399  0.00  0.00    -0.424 OA
ATOM      2  N   UNL     1      34.941 -22.833 -16.601  0.00  0.00    -0.265 N 
ATOM      3  N   UNL     1      33.363 -22.381 -18.359  0.00  0.00    -0.193 NA
ATOM      4  C   UNL     1      34.528 -22.275 -17.761  0.00  0.00    +0.293 C 
ATOM      5  C   UNL     1      34.780 -21.069 -19.511  0.00  0.00    +0.168 C 
ATOM      6  C   UNL     1      33.519 -21.609 -19.482  0.00  0.00    +0.141 C 
ATOM      7  H   UNL     1      35.865 -22.614 -16.342  0.00  0.00    +0.157 HD
ENDROOT
BRANCH   2  11
ATOM      8  C   UNL     1      32.189 -24.364 -14.635  0.00  0.00    +0.123 C 
ATOM      9  C   UNL     1      32.877 -23.535 -15.522  0.00  0.00    +0.038 C 
ATOM     10  C   UNL     1      32.877 -25.345 -13.921  0.00  0.00    +0.023 C 
ATOM     11  C   UNL     1      34.252 -23.688 -15.695  0.00  0.00    +0.087 C 
ATOM     12  C   UNL     1      34.253 -25.497 -14.094  0.00  0.00    +0.040 C 
ATOM     13  C   UNL     1      34.940 -24.669 -14.981  0.00  0.00    +0.152 C 
BRANCH   8  14
ATOM     14  S   UNL     1      30.467 -24.172 -14.415  0.00  0.00    +0.060 S 
ATOM     15  O   UNL     1      29.915 -25.425 -13.916  0.00  0.00    -0.153 OA
ATOM     16  O   UNL     1      30.250 -22.945 -13.660  0.00  0.00    -0.153 OA
BRANCH  14  17
ATOM     17  N   UNL     1      29.917 -23.930 -16.015  0.00  0.00    -0.179 NA
ATOM     18  H   UNL     1      29.384 -24.761 -16.273  0.00  0.00    +0.149 HD
BRANCH  17  19
ATOM     19  C   UNL     1      29.072 -22.769 -16.331  0.00  0.00    +0.091 C 
BRANCH  19  20
ATOM     20  C   UNL     1      27.628 -23.144 -16.308  0.00  0.00    +0.017 C 
ATOM     21  C   UNL     1      26.704 -22.444 -15.353  0.00  0.00    +0.001 C 
ATOM     22  C   UNL     1      26.609 -22.170 -16.824  0.00  0.00    +0.001 C 
ENDBRANCH  19  20
ENDBRANCH  17  19
ENDBRANCH  14  17
ENDBRANCH   8  14
BRANCH  13  23
ATOM     23  O   UNL     1      36.285 -24.833 -15.134  0.00  0.00    -0.470 OA
ATOM     24  C   UNL     1      36.909 -25.838 -14.338  0.00  0.00    +0.253 C 
ENDBRANCH  13  23
ENDBRANCH   2  11
BRANCH   5  25
ATOM     25  C   UNL     1      35.513 -20.204 -20.402  0.00  0.00    +0.036 C 
ATOM     26  C   UNL     1      35.540 -18.577 -22.188  0.00  0.00    +0.002 C 
ATOM     27  C   UNL     1      34.831 -19.414 -21.327  0.00  0.00    +0.003 C 
ATOM     28  C   UNL     1      36.906 -20.156 -20.338  0.00  0.00    +0.003 C 
ATOM     29  C   UNL     1      36.933 -18.530 -22.124  0.00  0.00    +0.000 C 
ATOM     30  C   UNL     1      37.616 -19.319 -21.198  0.00  0.00    +0.000 C 
BRANCH  26  32
ATOM     31  N   UNL     1      33.412 -17.627 -25.100  0.00  0.00    -0.242 NA
ATOM     32  C   UNL     1      34.833 -17.759 -23.148  0.00  0.00    +0.019 C 
ATOM     33  C   UNL     1      34.871 -16.371 -23.074  0.00  0.00    +0.003 C 
ATOM     34  C   UNL     1      34.095 -18.333 -24.172  0.00  0.00    +0.099 C 
ATOM     35  C   UNL     1      34.180 -15.611 -24.012  0.00  0.00    +0.021 C 
ATOM     36  C   UNL     1      33.472 -16.282 -24.996  0.00  0.00    +0.099 C 
ENDBRANCH  26  32
ENDBRANCH   5  25
TORSDOF 8
ENDMDL
MODEL 8
REMARK VINA RESULT:     -10.5      8.038     13.719
REMARK  Name = 4369498
REMARK  8 active torsions:
REMARK  status: ('A' for Active; 'I' for Inactive)
REMARK    1  A    between atoms: N_2  and  C_11
REMARK    2  A    between atoms: C_5  and  C_25
REMARK    3  A    between atoms: C_8  and  S_14
REMARK    4  A    between atoms: C_13  and  O_23
REMARK    5  A    between atoms: S_14  and  N_17
REMARK    6  A    between atoms: N_17  and  C_19
REMARK    7  A    between atoms: C_19  and  C_20
REMARK    8  A    between atoms: C_26  and  C_32
REMARK                            x       y       z     vdW  Elec       q    Type
REMARK                         _______ _______ _______ _____ _____    ______ ____
ROOT
ATOM      1  O   UNL     1      33.885 -14.890 -23.112  0.00  0.00    -0.424 OA
ATOM      2  N   UNL     1      33.286 -12.683 -23.332  0.00  0.00    -0.265 N 
ATOM      3  N   UNL     1      34.349 -13.544 -21.353  0.00  0.00    -0.193 NA
ATOM      4  C   UNL     1      33.842 -13.645 -22.562  0.00  0.00    +0.293 C 
ATOM      5  C   UNL     1      34.480 -15.644 -22.146  0.00  0.00    +0.168 C 
ATOM      6  C   UNL     1      34.759 -14.824 -21.081  0.00  0.00    +0.141 C 
ATOM      7  H   UNL     1      32.970 -12.989 -24.213  0.00  0.00    +0.157 HD
ENDROOT
BRANCH   2  11
ATOM      8  C   UNL     1      33.783  -9.004 -23.359  0.00  0.00    +0.123 C 
ATOM      9  C   UNL     1      33.968 -10.364 -23.609  0.00  0.00    +0.038 C 
ATOM     10  C   UNL     1      32.713  -8.579 -22.572  0.00  0.00    +0.023 C 
ATOM     11  C   UNL     1      33.083 -11.298 -23.072  0.00  0.00    +0.087 C 
ATOM     12  C   UNL     1      31.828  -9.513 -22.035  0.00  0.00    +0.040 C 
ATOM     13  C   UNL     1      32.013 -10.873 -22.285  0.00  0.00    +0.152 C 
BRANCH   8  14
ATOM     14  S   UNL     1      34.893  -7.833 -24.029  0.00  0.00    +0.060 S 
ATOM     15  O   UNL     1      35.524  -7.105 -22.934  0.00  0.00    -0.153 OA
ATOM     16  O   UNL     1      35.728  -8.520 -25.004  0.00  0.00    -0.153 OA
BRANCH  14  17
ATOM     17  N   UNL     1      33.847  -6.769 -24.862  0.00  0.00    -0.179 NA
ATOM     18  H   UNL     1      32.923  -7.200 -24.858  0.00  0.00    +0.149 HD
BRANCH  17  19
ATOM     19  C   UNL     1      33.673  -5.390 -24.382  0.00  0.00    +0.091 C 
BRANCH  19  20
ATOM     20  C   UNL     1      32.292  -5.183 -23.854  0.00  0.00    +0.017 C 
ATOM     21  C   UNL     1      32.103  -4.871 -22.398  0.00  0.00    +0.001 C 
ATOM     22  C   UNL     1      31.867  -3.808 -23.430  0.00  0.00    +0.001 C 
ENDBRANCH  19  20
ENDBRANCH  17  19
ENDBRANCH  14  17
ENDBRANCH   8  14
BRANCH  13  23
ATOM     23  O   UNL     1      31.137 -11.770 -21.749  0.00  0.00    -0.470 OA
ATOM     24  C   UNL     1      31.233 -12.009 -20.346  0.00  0.00    +0.253 C 
ENDBRANCH  13  23
ENDBRANCH   2  11
BRANCH   5  25
ATOM     25  C   UNL     1      34.665 -17.042 -22.448  0.00  0.00    +0.036 C 
ATOM     26  C   UNL     1      34.955 -19.324 -21.708  0.00  0.00    +0.002 C 
ATOM     27  C   UNL     1      34.776 -17.973 -21.415  0.00  0.00    +0.003 C 
ATOM     28  C   UNL     1      34.732 -17.465 -23.776  0.00  0.00    +0.003 C 
ATOM     29  C   UNL     1      35.022 -19.745 -23.037  0.00  0.00    +0.000 C 
ATOM     30  C   UNL     1      34.910 -18.816 -24.071  0.00  0.00    +0.000 C 
BRANCH  26  32
ATOM     31  N   UNL     1      33.990 -21.828 -19.118  0.00  0.00    -0.242 NA
ATOM     32  C   UNL     1      35.071 -20.288 -20.637  0.00  0.00    +0.019 C 
ATOM     33  C   UNL     1      36.309 -20.612 -20.094  0.00  0.00    +0.003 C 
ATOM     34  C   UNL     1      33.951 -20.919 -20.117  0.00  0.00    +0.099 C 
ATOM     35  C   UNL     1      36.389 -21.543 -19.065  0.00  0.00    +0.021 C 
ATOM     36  C   UNL     1      35.211 -22.117 -18.616  0.00  0.00    +0.099 C 
ENDBRANCH  26  32
ENDBRANCH   5  25
TORSDOF 8
ENDMDL
MODEL 9
REMARK VINA RESULT:     -10.4      1.598      2.016
REMARK  Name = 4369498
REMARK  8 active torsions:
REMARK  status: ('A' for Active; 'I' for Inactive)
REMARK    1  A    between atoms: N_2  and  C_11
REMARK    2  A    between atoms: C_5  and  C_25
REMARK    3  A    between atoms: C_8  and  S_14
REMARK    4  A    between atoms: C_13  and  O_23
REMARK    5  A    between atoms: S_14  and  N_17
REMARK    6  A    between atoms: N_17  and  C_19
REMARK    7  A    between atoms: C_19  and  C_20
REMARK    8  A    between atoms: C_26  and  C_32
REMARK                            x       y       z     vdW  Elec       q    Type
REMARK                         _______ _______ _______ _____ _____    ______ ____
ROOT
ATOM      1  O   UNL     1      35.505 -21.169 -18.965  0.00  0.00    -0.424 OA
ATOM      2  N   UNL     1      35.721 -22.330 -16.994  0.00  0.00    -0.265 N 
ATOM      3  N   UNL     1      33.704 -22.368 -18.305  0.00  0.00    -0.193 NA
ATOM      4  C   UNL     1      34.938 -21.999 -18.046  0.00  0.00    +0.293 C 
ATOM      5  C   UNL     1      34.522 -21.003 -19.894  0.00  0.00    +0.168 C 
ATOM      6  C   UNL     1      33.432 -21.732 -19.489  0.00  0.00    +0.141 C 
ATOM      7  H   UNL     1      36.622 -21.933 -17.007  0.00  0.00    +0.157 HD
ENDROOT
BRANCH   2  11
ATOM      8  C   UNL     1      33.849 -24.156 -14.359  0.00  0.00    +0.123 C 
ATOM      9  C   UNL     1      34.130 -23.347 -15.461  0.00  0.00    +0.038 C 
ATOM     10  C   UNL     1      34.889 -24.780 -13.670  0.00  0.00    +0.023 C 
ATOM     11  C   UNL     1      35.450 -23.161 -15.871  0.00  0.00    +0.087 C 
ATOM     12  C   UNL     1      36.209 -24.594 -14.080  0.00  0.00    +0.040 C 
ATOM     13  C   UNL     1      36.490 -23.785 -15.181  0.00  0.00    +0.152 C 
BRANCH   8  14
ATOM     14  S   UNL     1      32.197 -24.387 -13.842  0.00  0.00    +0.060 S 
ATOM     15  O   UNL     1      31.939 -25.816 -13.720  0.00  0.00    -0.153 OA
ATOM     16  O   UNL     1      31.966 -23.519 -12.695  0.00  0.00    -0.153 OA
BRANCH  14  17
ATOM     17  N   UNL     1      31.308 -23.782 -15.170  0.00  0.00    -0.179 NA
ATOM     18  H   UNL     1      31.848 -23.995 -16.008  0.00  0.00    +0.149 HD
BRANCH  17  19
ATOM     19  C   UNL     1      29.939 -24.261 -15.413  0.00  0.00    +0.091 C 
BRANCH  19  20
ATOM     20  C   UNL     1      29.113 -23.197 -16.056  0.00  0.00    +0.017 C 
ATOM     21  C   UNL     1      27.857 -23.582 -16.781  0.00  0.00    +0.001 C 
ATOM     22  C   UNL     1      27.774 -22.856 -15.471  0.00  0.00    +0.001 C 
ENDBRANCH  19  20
ENDBRANCH  17  19
ENDBRANCH  14  17
ENDBRANCH   8  14
BRANCH  13  23
ATOM     23  O   UNL     1      37.786 -23.615 -15.566  0.00  0.00    -0.470 OA
ATOM     24  C   UNL     1      38.759 -24.458 -14.952  0.00  0.00    +0.253 C 
ENDBRANCH  13  23
ENDBRANCH   2  11
BRANCH   5  25
ATOM     25  C   UNL     1      34.836 -20.153 -21.015  0.00  0.00    +0.036 C 
ATOM     26  C   UNL     1      34.985 -17.949 -21.994  0.00  0.00    +0.002 C 
ATOM     27  C   UNL     1      34.680 -18.771 -20.910  0.00  0.00    +0.003 C 
ATOM     28  C   UNL     1      35.300 -20.713 -22.206  0.00  0.00    +0.003 C 
ATOM     29  C   UNL     1      35.447 -18.510 -23.185  0.00  0.00    +0.000 C 
ATOM     30  C   UNL     1      35.605 -19.892 -23.291  0.00  0.00    +0.000 C 
BRANCH  26  32
ATOM     31  N   UNL     1      34.672 -14.365 -22.980  0.00  0.00    -0.242 NA
ATOM     32  C   UNL     1      34.822 -16.516 -21.885  0.00  0.00    +0.019 C 
ATOM     33  C   UNL     1      34.661 -15.904 -20.647  0.00  0.00    +0.003 C 
ATOM     34  C   UNL     1      34.820 -15.708 -23.012  0.00  0.00    +0.099 C 
ATOM     35  C   UNL     1      34.506 -14.525 -20.575  0.00  0.00    +0.021 C 
ATOM     36  C   UNL     1      34.519 -13.807 -21.760  0.00  0.00    +0.099 C 
ENDBRANCH  26  32
ENDBRANCH   5  25
TORSDOF 8
ENDMDL
