MODEL 1
REMARK VINA RESULT:     -12.0      0.000      0.000
REMARK  Name = 10401956
REMARK  3 active torsions:
REMARK  status: ('A' for Active; 'I' for Inactive)
REMARK    1  A    between atoms: N_1  and  C_13
REMARK    2  A    between atoms: C_8  and  N_20
REMARK    3  A    between atoms: C_21  and  C_23
REMARK                            x       y       z     vdW  Elec       q    Type
REMARK                         _______ _______ _______ _____ _____    ______ ____
ROOT
ATOM      1  N   UNL     1      32.844 -22.534 -18.105  0.00  0.00    -0.301 N 
ATOM      2  N   UNL     1      33.756 -24.518 -14.589  0.00  0.00    -0.248 NA
ATOM      3  N   UNL     1      34.405 -23.642 -16.738  0.00  0.00    -0.233 NA
ATOM      4  C   UNL     1      32.132 -23.396 -15.952  0.00  0.00    +0.117 C 
ATOM      5  C   UNL     1      32.500 -24.076 -14.780  0.00  0.00    +0.067 C 
ATOM      6  C   UNL     1      33.139 -23.211 -16.896  0.00  0.00    +0.115 C 
ATOM      7  C   UNL     1      30.817 -22.938 -16.140  0.00  0.00    +0.001 C 
ATOM      8  C   UNL     1      29.857 -23.155 -15.157  0.00  0.00    +0.047 C 
ATOM      9  C   UNL     1      31.519 -24.279 -13.812  0.00  0.00    +0.016 C 
ATOM     10  C   UNL     1      30.209 -23.826 -13.991  0.00  0.00    +0.016 C 
ATOM     11  C   UNL     1      34.640 -24.277 -15.579  0.00  0.00    +0.251 C 
ATOM     12  H   UNL     1      31.897 -22.534 -18.378  0.00  0.00    +0.153 HD
ENDROOT
BRANCH   1  13
ATOM     13  C   UNL     1      33.716 -21.872 -18.950  0.00  0.00    +0.049 C 
ATOM     14  C   UNL     1      35.100 -22.127 -18.908  0.00  0.00    +0.015 C 
ATOM     15  C   UNL     1      33.244 -20.921 -19.876  0.00  0.00    +0.015 C 
ATOM     16  C   UNL     1      35.979 -21.458 -19.759  0.00  0.00    +0.001 C 
ATOM     17  C   UNL     1      34.125 -20.252 -20.727  0.00  0.00    +0.001 C 
ATOM     18  C   UNL     1      35.492 -20.521 -20.668  0.00  0.00    +0.000 C 
ENDBRANCH   1  13
BRANCH   8  20
ATOM     19  O   UNL     1      27.778 -23.969 -17.165  0.00  0.00    -0.270 OA
ATOM     20  N   UNL     1      28.550 -22.702 -15.338  0.00  0.00    -0.281 N 
ATOM     21  C   UNL     1      27.617 -23.119 -16.298  0.00  0.00    +0.250 C 
ATOM     22  H   UNL     1      28.246 -22.003 -14.715  0.00  0.00    +0.155 HD
BRANCH  21  23
ATOM     23  C   UNL     1      26.323 -22.388 -16.161  0.00  0.00    +0.058 C 
ATOM     24  C   UNL     1      25.935 -21.515 -17.096  0.00  0.00    +0.005 C 
ENDBRANCH  21  23
ENDBRANCH   8  20
TORSDOF 3
ENDMDL
MODEL 2
REMARK VINA RESULT:     -10.8      2.712      3.626
REMARK  Name = 10401956
REMARK  3 active torsions:
REMARK  status: ('A' for Active; 'I' for Inactive)
REMARK    1  A    between atoms: N_1  and  C_13
REMARK    2  A    between atoms: C_8  and  N_20
REMARK    3  A    between atoms: C_21  and  C_23
REMARK                            x       y       z     vdW  Elec       q    Type
REMARK                         _______ _______ _______ _____ _____    ______ ____
ROOT
ATOM      1  N   UNL     1      34.568 -22.785 -17.709  0.00  0.00    -0.301 N 
ATOM      2  N   UNL     1      37.434 -22.868 -14.725  0.00  0.00    -0.248 NA
ATOM      3  N   UNL     1      36.731 -22.259 -16.948  0.00  0.00    -0.233 NA
ATOM      4  C   UNL     1      35.220 -23.423 -15.462  0.00  0.00    +0.117 C 
ATOM      5  C   UNL     1      36.231 -23.422 -14.488  0.00  0.00    +0.067 C 
ATOM      6  C   UNL     1      35.537 -22.822 -16.677  0.00  0.00    +0.115 C 
ATOM      7  C   UNL     1      33.966 -24.004 -15.203  0.00  0.00    +0.001 C 
ATOM      8  C   UNL     1      33.713 -24.590 -13.967  0.00  0.00    +0.047 C 
ATOM      9  C   UNL     1      35.950 -24.014 -13.259  0.00  0.00    +0.016 C 
ATOM     10  C   UNL     1      34.706 -24.594 -12.993  0.00  0.00    +0.016 C 
ATOM     11  C   UNL     1      37.617 -22.317 -15.942  0.00  0.00    +0.251 C 
ATOM     12  H   UNL     1      33.861 -23.470 -17.661  0.00  0.00    +0.153 HD
ENDROOT
BRANCH   1  13
ATOM     13  C   UNL     1      34.487 -21.909 -18.777  0.00  0.00    +0.049 C 
ATOM     14  C   UNL     1      35.649 -21.442 -19.421  0.00  0.00    +0.015 C 
ATOM     15  C   UNL     1      33.239 -21.457 -19.250  0.00  0.00    +0.015 C 
ATOM     16  C   UNL     1      35.567 -20.557 -20.496  0.00  0.00    +0.001 C 
ATOM     17  C   UNL     1      33.159 -20.572 -20.325  0.00  0.00    +0.001 C 
ATOM     18  C   UNL     1      34.323 -20.123 -20.948  0.00  0.00    +0.000 C 
ENDBRANCH   1  13
BRANCH   8  20
ATOM     19  O   UNL     1      31.019 -23.319 -13.586  0.00  0.00    -0.270 OA
ATOM     20  N   UNL     1      32.471 -25.168 -13.704  0.00  0.00    -0.281 N 
ATOM     21  C   UNL     1      31.237 -24.523 -13.534  0.00  0.00    +0.250 C 
ATOM     22  H   UNL     1      32.460 -26.149 -13.628  0.00  0.00    +0.155 HD
BRANCH  21  23
ATOM     23  C   UNL     1      30.140 -25.499 -13.266  0.00  0.00    +0.058 C 
ATOM     24  C   UNL     1      29.236 -25.779 -14.210  0.00  0.00    +0.005 C 
ENDBRANCH  21  23
ENDBRANCH   8  20
TORSDOF 3
ENDMDL
MODEL 3
REMARK VINA RESULT:     -10.6      3.303      7.457
REMARK  Name = 10401956
REMARK  3 active torsions:
REMARK  status: ('A' for Active; 'I' for Inactive)
REMARK    1  A    between atoms: N_1  and  C_13
REMARK    2  A    between atoms: C_8  and  N_20
REMARK    3  A    between atoms: C_21  and  C_23
REMARK                            x       y       z     vdW  Elec       q    Type
REMARK                         _______ _______ _______ _____ _____    ______ ____
ROOT
ATOM      1  N   UNL     1      32.497 -23.991 -15.904  0.00  0.00    -0.301 N 
ATOM      2  N   UNL     1      34.742 -21.989 -18.747  0.00  0.00    -0.248 NA
ATOM      3  N   UNL     1      32.654 -22.928 -17.997  0.00  0.00    -0.233 NA
ATOM      4  C   UNL     1      34.626 -23.065 -16.606  0.00  0.00    +0.117 C 
ATOM      5  C   UNL     1      35.337 -22.383 -17.606  0.00  0.00    +0.067 C 
ATOM      6  C   UNL     1      33.280 -23.307 -16.866  0.00  0.00    +0.115 C 
ATOM      7  C   UNL     1      35.258 -23.471 -15.418  0.00  0.00    +0.001 C 
ATOM      8  C   UNL     1      36.608 -23.198 -15.219  0.00  0.00    +0.047 C 
ATOM      9  C   UNL     1      36.687 -22.122 -17.381  0.00  0.00    +0.016 C 
ATOM     10  C   UNL     1      37.323 -22.522 -16.202  0.00  0.00    +0.016 C 
ATOM     11  C   UNL     1      33.433 -22.284 -18.879  0.00  0.00    +0.251 C 
ATOM     12  H   UNL     1      32.993 -24.560 -15.271  0.00  0.00    +0.153 HD
ENDROOT
BRANCH   1  13
ATOM     13  C   UNL     1      31.124 -23.960 -15.739  0.00  0.00    +0.049 C 
ATOM     14  C   UNL     1      30.440 -25.038 -15.145  0.00  0.00    +0.015 C 
ATOM     15  C   UNL     1      30.369 -22.848 -16.163  0.00  0.00    +0.015 C 
ATOM     16  C   UNL     1      29.056 -25.007 -14.980  0.00  0.00    +0.001 C 
ATOM     17  C   UNL     1      28.984 -22.818 -15.997  0.00  0.00    +0.001 C 
ATOM     18  C   UNL     1      28.328 -23.898 -15.406  0.00  0.00    +0.000 C 
ENDBRANCH   1  13
BRANCH   8  20
ATOM     19  O   UNL     1      37.942 -25.794 -14.515  0.00  0.00    -0.270 OA
ATOM     20  N   UNL     1      37.240 -23.598 -14.042  0.00  0.00    -0.281 N 
ATOM     21  C   UNL     1      37.851 -24.830 -13.765  0.00  0.00    +0.250 C 
ATOM     22  H   UNL     1      37.260 -22.933 -13.316  0.00  0.00    +0.155 HD
BRANCH  21  23
ATOM     23  C   UNL     1      38.415 -24.866 -12.385  0.00  0.00    +0.058 C 
ATOM     24  C   UNL     1      38.038 -23.963 -11.473  0.00  0.00    +0.005 C 
ENDBRANCH  21  23
ENDBRANCH   8  20
TORSDOF 3
ENDMDL
MODEL 4
REMARK VINA RESULT:     -10.2      7.095     10.375
REMARK  Name = 10401956
REMARK  3 active torsions:
REMARK  status: ('A' for Active; 'I' for Inactive)
REMARK    1  A    between atoms: N_1  and  C_13
REMARK    2  A    between atoms: C_8  and  N_20
REMARK    3  A    between atoms: C_21  and  C_23
REMARK                            x       y       z     vdW  Elec       q    Type
REMARK                         _______ _______ _______ _____ _____    ______ ____
ROOT
ATOM      1  N   UNL     1      35.200 -17.209 -21.342  0.00  0.00    -0.301 N 
ATOM      2  N   UNL     1      34.080 -15.902 -25.105  0.00  0.00    -0.248 NA
ATOM      3  N   UNL     1      35.082 -17.554 -23.665  0.00  0.00    -0.233 NA
ATOM      4  C   UNL     1      34.181 -15.510 -22.741  0.00  0.00    +0.117 C 
ATOM      5  C   UNL     1      33.825 -15.119 -24.042  0.00  0.00    +0.067 C 
ATOM      6  C   UNL     1      34.810 -16.746 -22.623  0.00  0.00    +0.115 C 
ATOM      7  C   UNL     1      33.909 -14.684 -21.637  0.00  0.00    +0.001 C 
ATOM      8  C   UNL     1      33.277 -13.459 -21.824  0.00  0.00    +0.047 C 
ATOM      9  C   UNL     1      33.193 -13.888 -24.200  0.00  0.00    +0.016 C 
ATOM     10  C   UNL     1      32.918 -13.061 -23.107  0.00  0.00    +0.016 C 
ATOM     11  C   UNL     1      34.695 -17.077 -24.859  0.00  0.00    +0.251 C 
ATOM     12  H   UNL     1      35.331 -16.515 -20.655  0.00  0.00    +0.153 HD
ENDROOT
BRANCH   1  13
ATOM     13  C   UNL     1      35.421 -18.512 -20.932  0.00  0.00    +0.049 C 
ATOM     14  C   UNL     1      34.351 -19.417 -20.787  0.00  0.00    +0.015 C 
ATOM     15  C   UNL     1      36.722 -18.971 -20.648  0.00  0.00    +0.015 C 
ATOM     16  C   UNL     1      34.574 -20.730 -20.373  0.00  0.00    +0.001 C 
ATOM     17  C   UNL     1      36.943 -20.285 -20.233  0.00  0.00    +0.001 C 
ATOM     18  C   UNL     1      35.869 -21.164 -20.096  0.00  0.00    +0.000 C 
ENDBRANCH   1  13
BRANCH   8  20
ATOM     19  O   UNL     1      30.863 -11.782 -21.210  0.00  0.00    -0.270 OA
ATOM     20  N   UNL     1      33.004 -12.635 -20.732  0.00  0.00    -0.281 N 
ATOM     21  C   UNL     1      31.852 -11.870 -20.494  0.00  0.00    +0.250 C 
ATOM     22  H   UNL     1      33.706 -12.584 -20.044  0.00  0.00    +0.155 HD
BRANCH  21  23
ATOM     23  C   UNL     1      31.947 -11.121 -19.207  0.00  0.00    +0.058 C 
ATOM     24  C   UNL     1      31.162 -10.063 -18.978  0.00  0.00    +0.005 C 
ENDBRANCH  21  23
ENDBRANCH   8  20
TORSDOF 3
ENDMDL
MODEL 5
REMARK VINA RESULT:     -10.1      2.654      6.918
REMARK  Name = 10401956
REMARK  3 active torsions:
REMARK  status: ('A' for Active; 'I' for Inactive)
REMARK    1  A    between atoms: N_1  and  C_13
REMARK    2  A    between atoms: C_8  and  N_20
REMARK    3  A    between atoms: C_21  and  C_23
REMARK                            x       y       z     vdW  Elec       q    Type
REMARK                         _______ _______ _______ _____ _____    ______ ____
ROOT
ATOM      1  N   UNL     1      32.592 -23.457 -14.889  0.00  0.00    -0.301 N 
ATOM      2  N   UNL     1      35.980 -24.550 -12.777  0.00  0.00    -0.248 NA
ATOM      3  N   UNL     1      33.583 -24.480 -13.017  0.00  0.00    -0.233 NA
ATOM      4  C   UNL     1      35.010 -23.495 -14.701  0.00  0.00    +0.117 C 
ATOM      5  C   UNL     1      36.122 -23.891 -13.941  0.00  0.00    +0.067 C 
ATOM      6  C   UNL     1      33.762 -23.823 -14.179  0.00  0.00    +0.115 C 
ATOM      7  C   UNL     1      35.171 -22.808 -15.917  0.00  0.00    +0.001 C 
ATOM      8  C   UNL     1      36.448 -22.511 -16.384  0.00  0.00    +0.047 C 
ATOM      9  C   UNL     1      37.388 -23.581 -14.432  0.00  0.00    +0.016 C 
ATOM     10  C   UNL     1      37.557 -22.898 -15.641  0.00  0.00    +0.016 C 
ATOM     11  C   UNL     1      34.717 -24.808 -12.379  0.00  0.00    +0.251 C 
ATOM     12  H   UNL     1      32.688 -22.704 -15.517  0.00  0.00    +0.153 HD
ENDROOT
BRANCH   1  13
ATOM     13  C   UNL     1      31.332 -24.022 -14.812  0.00  0.00    +0.049 C 
ATOM     14  C   UNL     1      30.195 -23.324 -15.263  0.00  0.00    +0.015 C 
ATOM     15  C   UNL     1      31.150 -25.314 -14.281  0.00  0.00    +0.015 C 
ATOM     16  C   UNL     1      28.925 -23.894 -15.185  0.00  0.00    +0.001 C 
ATOM     17  C   UNL     1      29.878 -25.884 -14.203  0.00  0.00    +0.001 C 
ATOM     18  C   UNL     1      28.766 -25.174 -14.655  0.00  0.00    +0.000 C 
ENDBRANCH   1  13
BRANCH   8  20
ATOM     19  O   UNL     1      34.991 -22.795 -18.994  0.00  0.00    -0.270 OA
ATOM     20  N   UNL     1      36.614 -21.830 -17.589  0.00  0.00    -0.281 N 
ATOM     21  C   UNL     1      35.901 -22.004 -18.785  0.00  0.00    +0.250 C 
ATOM     22  H   UNL     1      37.319 -21.142 -17.603  0.00  0.00    +0.155 HD
BRANCH  21  23
ATOM     23  C   UNL     1      36.383 -21.078 -19.851  0.00  0.00    +0.058 C 
ATOM     24  C   UNL     1      35.522 -20.303 -20.518  0.00  0.00    +0.005 C 
ENDBRANCH  21  23
ENDBRANCH   8  20
TORSDOF 3
ENDMDL
MODEL 6
REMARK VINA RESULT:      -9.7      2.801      6.098
REMARK  Name = 10401956
REMARK  3 active torsions:
REMARK  status: ('A' for Active; 'I' for Inactive)
REMARK    1  A    between atoms: N_1  and  C_13
REMARK    2  A    between atoms: C_8  and  N_20
REMARK    3  A    between atoms: C_21  and  C_23
REMARK                            x       y       z     vdW  Elec       q    Type
REMARK                         _______ _______ _______ _____ _____    ______ ____
ROOT
ATOM      1  N   UNL     1      34.763 -24.509 -14.276  0.00  0.00    -0.301 N 
ATOM      2  N   UNL     1      30.715 -24.939 -13.533  0.00  0.00    -0.248 NA
ATOM      3  N   UNL     1      33.015 -25.337 -12.937  0.00  0.00    -0.233 NA
ATOM      4  C   UNL     1      32.467 -24.077 -14.926  0.00  0.00    +0.117 C 
ATOM      5  C   UNL     1      31.107 -24.256 -14.623  0.00  0.00    +0.067 C 
ATOM      6  C   UNL     1      33.374 -24.647 -14.037  0.00  0.00    +0.115 C 
ATOM      7  C   UNL     1      32.866 -23.361 -16.068  0.00  0.00    +0.001 C 
ATOM      8  C   UNL     1      31.908 -22.816 -16.918  0.00  0.00    +0.047 C 
ATOM      9  C   UNL     1      30.170 -23.700 -15.491  0.00  0.00    +0.016 C 
ATOM     10  C   UNL     1      30.558 -22.986 -16.628  0.00  0.00    +0.016 C 
ATOM     11  C   UNL     1      31.690 -25.442 -12.750  0.00  0.00    +0.251 C 
ATOM     12  H   UNL     1      35.024 -24.332 -15.209  0.00  0.00    +0.153 HD
ENDROOT
BRANCH   1  13
ATOM     13  C   UNL     1      35.801 -24.590 -13.365  0.00  0.00    +0.049 C 
ATOM     14  C   UNL     1      36.606 -25.742 -13.283  0.00  0.00    +0.015 C 
ATOM     15  C   UNL     1      36.081 -23.521 -12.491  0.00  0.00    +0.015 C 
ATOM     16  C   UNL     1      37.651 -25.824 -12.363  0.00  0.00    +0.001 C 
ATOM     17  C   UNL     1      37.127 -23.604 -11.571  0.00  0.00    +0.001 C 
ATOM     18  C   UNL     1      37.912 -24.755 -11.507  0.00  0.00    +0.000 C 
ENDBRANCH   1  13
BRANCH   8  20
ATOM     19  O   UNL     1      34.322 -23.131 -18.676  0.00  0.00    -0.270 OA
ATOM     20  N   UNL     1      32.298 -22.104 -18.052  0.00  0.00    -0.281 N 
ATOM     21  C   UNL     1      33.442 -22.294 -18.840  0.00  0.00    +0.250 C 
ATOM     22  H   UNL     1      31.695 -21.378 -18.334  0.00  0.00    +0.155 HD
BRANCH  21  23
ATOM     23  C   UNL     1      33.499 -21.322 -19.971  0.00  0.00    +0.058 C 
ATOM     24  C   UNL     1      34.626 -20.654 -20.236  0.00  0.00    +0.005 C 
ENDBRANCH  21  23
ENDBRANCH   8  20
TORSDOF 3
ENDMDL
MODEL 7
REMARK VINA RESULT:      -9.7      2.197      3.625
REMARK  Name = 10401956
REMARK  3 active torsions:
REMARK  status: ('A' for Active; 'I' for Inactive)
REMARK    1  A    between atoms: N_1  and  C_13
REMARK    2  A    between atoms: C_8  and  N_20
REMARK    3  A    between atoms: C_21  and  C_23
REMARK                            x       y       z     vdW  Elec       q    Type
REMARK                         _______ _______ _______ _____ _____    ______ ____
ROOT
ATOM      1  N   UNL     1      34.188 -20.878 -20.452  0.00  0.00    -0.301 N 
ATOM      2  N   UNL     1      36.580 -22.398 -17.436  0.00  0.00    -0.248 NA
ATOM      3  N   UNL     1      36.321 -21.211 -19.517  0.00  0.00    -0.233 NA
ATOM      4  C   UNL     1      34.387 -22.080 -18.356  0.00  0.00    +0.117 C 
ATOM      5  C   UNL     1      35.249 -22.574 -17.362  0.00  0.00    +0.067 C 
ATOM      6  C   UNL     1      34.992 -21.405 -19.412  0.00  0.00    +0.115 C 
ATOM      7  C   UNL     1      32.997 -22.270 -18.267  0.00  0.00    +0.001 C 
ATOM      8  C   UNL     1      32.456 -22.955 -17.184  0.00  0.00    +0.047 C 
ATOM      9  C   UNL     1      34.679 -23.256 -16.289  0.00  0.00    +0.016 C 
ATOM     10  C   UNL     1      33.298 -23.448 -16.194  0.00  0.00    +0.016 C 
ATOM     11  C   UNL     1      37.043 -21.726 -18.510  0.00  0.00    +0.251 C 
ATOM     12  H   UNL     1      33.306 -21.300 -20.570  0.00  0.00    +0.153 HD
ENDROOT
BRANCH   1  13
ATOM     13  C   UNL     1      34.485 -19.846 -21.324  0.00  0.00    +0.049 C 
ATOM     14  C   UNL     1      35.146 -18.686 -20.877  0.00  0.00    +0.015 C 
ATOM     15  C   UNL     1      34.132 -19.925 -22.686  0.00  0.00    +0.015 C 
ATOM     16  C   UNL     1      35.444 -17.645 -21.756  0.00  0.00    +0.001 C 
ATOM     17  C   UNL     1      34.430 -18.883 -23.565  0.00  0.00    +0.001 C 
ATOM     18  C   UNL     1      35.086 -17.743 -23.099  0.00  0.00    +0.000 C 
ENDBRANCH   1  13
BRANCH   8  20
ATOM     19  O   UNL     1      30.656 -22.993 -14.781  0.00  0.00    -0.270 OA
ATOM     20  N   UNL     1      31.077 -23.145 -17.091  0.00  0.00    -0.281 N 
ATOM     21  C   UNL     1      30.282 -23.154 -15.936  0.00  0.00    +0.250 C 
ATOM     22  H   UNL     1      30.604 -23.293 -17.942  0.00  0.00    +0.155 HD
BRANCH  21  23
ATOM     23  C   UNL     1      28.845 -23.392 -16.259  0.00  0.00    +0.058 C 
ATOM     24  C   UNL     1      27.881 -22.888 -15.482  0.00  0.00    +0.005 C 
ENDBRANCH  21  23
ENDBRANCH   8  20
TORSDOF 3
ENDMDL
MODEL 8
REMARK VINA RESULT:      -9.7     11.248     14.550
REMARK  Name = 10401956
REMARK  3 active torsions:
REMARK  status: ('A' for Active; 'I' for Inactive)
REMARK    1  A    between atoms: N_1  and  C_13
REMARK    2  A    between atoms: C_8  and  N_20
REMARK    3  A    between atoms: C_21  and  C_23
REMARK                            x       y       z     vdW  Elec       q    Type
REMARK                         _______ _______ _______ _____ _____    ______ ____
ROOT
ATOM      1  N   UNL     1      33.113 -12.585 -23.572  0.00  0.00    -0.301 N 
ATOM      2  N   UNL     1      31.173 -10.930 -20.312  0.00  0.00    -0.248 NA
ATOM      3  N   UNL     1      31.866 -12.849 -21.595  0.00  0.00    -0.233 NA
ATOM      4  C   UNL     1      32.443 -10.617 -22.324  0.00  0.00    +0.117 C 
ATOM      5  C   UNL     1      31.769 -10.113 -21.199  0.00  0.00    +0.067 C 
ATOM      6  C   UNL     1      32.453 -12.002 -22.462  0.00  0.00    +0.115 C 
ATOM      7  C   UNL     1      33.063  -9.754 -23.243  0.00  0.00    +0.001 C 
ATOM      8  C   UNL     1      33.015  -8.377 -23.046  0.00  0.00    +0.047 C 
ATOM      9  C   UNL     1      31.738  -8.731 -21.026  0.00  0.00    +0.016 C 
ATOM     10  C   UNL     1      32.352  -7.866 -21.936  0.00  0.00    +0.016 C 
ATOM     11  C   UNL     1      31.255 -12.254 -20.559  0.00  0.00    +0.251 C 
ATOM     12  H   UNL     1      33.226 -12.004 -24.359  0.00  0.00    +0.153 HD
ENDROOT
BRANCH   1  13
ATOM     13  C   UNL     1      33.618 -13.867 -23.691  0.00  0.00    +0.049 C 
ATOM     14  C   UNL     1      33.294 -14.676 -24.798  0.00  0.00    +0.015 C 
ATOM     15  C   UNL     1      34.473 -14.402 -22.706  0.00  0.00    +0.015 C 
ATOM     16  C   UNL     1      33.803 -15.969 -24.916  0.00  0.00    +0.001 C 
ATOM     17  C   UNL     1      34.981 -15.696 -22.826  0.00  0.00    +0.001 C 
ATOM     18  C   UNL     1      34.646 -16.479 -23.931  0.00  0.00    +0.000 C 
ENDBRANCH   1  13
BRANCH   8  20
ATOM     19  O   UNL     1      35.782  -7.210 -23.055  0.00  0.00    -0.270 OA
ATOM     20  N   UNL     1      33.629  -7.516 -23.955  0.00  0.00    -0.281 N 
ATOM     21  C   UNL     1      34.932  -6.998 -23.910  0.00  0.00    +0.250 C 
ATOM     22  H   UNL     1      33.079  -7.236 -24.723  0.00  0.00    +0.155 HD
BRANCH  21  23
ATOM     23  C   UNL     1      35.209  -6.107 -25.074  0.00  0.00    +0.058 C 
ATOM     24  C   UNL     1      34.917  -6.503 -26.318  0.00  0.00    +0.005 C 
ENDBRANCH  21  23
ENDBRANCH   8  20
TORSDOF 3
ENDMDL
MODEL 9
REMARK VINA RESULT:      -9.6     11.726     14.696
REMARK  Name = 10401956
REMARK  3 active torsions:
REMARK  status: ('A' for Active; 'I' for Inactive)
REMARK    1  A    between atoms: N_1  and  C_13
REMARK    2  A    between atoms: C_8  and  N_20
REMARK    3  A    between atoms: C_21  and  C_23
REMARK                            x       y       z     vdW  Elec       q    Type
REMARK                         _______ _______ _______ _____ _____    ______ ____
ROOT
ATOM      1  N   UNL     1      33.682  -8.766 -23.564  0.00  0.00    -0.301 N 
ATOM      2  N   UNL     1      31.547  -9.651 -20.131  0.00  0.00    -0.248 NA
ATOM      3  N   UNL     1      32.643  -8.063 -21.574  0.00  0.00    -0.233 NA
ATOM      4  C   UNL     1      32.595 -10.410 -22.151  0.00  0.00    +0.117 C 
ATOM      5  C   UNL     1      31.872 -10.650 -20.971  0.00  0.00    +0.067 C 
ATOM      6  C   UNL     1      32.951  -9.087 -22.394  0.00  0.00    +0.115 C 
ATOM      7  C   UNL     1      32.929 -11.462 -23.021  0.00  0.00    +0.001 C 
ATOM      8  C   UNL     1      32.542 -12.764 -22.720  0.00  0.00    +0.047 C 
ATOM      9  C   UNL     1      31.498 -11.963 -20.694  0.00  0.00    +0.016 C 
ATOM     10  C   UNL     1      31.826 -13.015 -21.555  0.00  0.00    +0.016 C 
ATOM     11  C   UNL     1      31.951  -8.412 -20.479  0.00  0.00    +0.251 C 
ATOM     12  H   UNL     1      34.199  -9.504 -23.964  0.00  0.00    +0.153 HD
ENDROOT
BRANCH   1  13
ATOM     13  C   UNL     1      33.762  -7.550 -24.217  0.00  0.00    +0.049 C 
ATOM     14  C   UNL     1      32.614  -6.944 -24.766  0.00  0.00    +0.015 C 
ATOM     15  C   UNL     1      34.994  -6.881 -24.354  0.00  0.00    +0.015 C 
ATOM     16  C   UNL     1      32.695  -5.718 -25.425  0.00  0.00    +0.001 C 
ATOM     17  C   UNL     1      35.074  -5.654 -25.014  0.00  0.00    +0.001 C 
ATOM     18  C   UNL     1      33.925  -5.073 -25.549  0.00  0.00    +0.000 C 
ENDBRANCH   1  13
BRANCH   8  20
ATOM     19  O   UNL     1      34.891 -14.635 -22.698  0.00  0.00    -0.270 OA
ATOM     20  N   UNL     1      32.870 -13.812 -23.580  0.00  0.00    -0.281 N 
ATOM     21  C   UNL     1      33.987 -14.659 -23.523  0.00  0.00    +0.250 C 
ATOM     22  H   UNL     1      32.240 -13.977 -24.319  0.00  0.00    +0.155 HD
BRANCH  21  23
ATOM     23  C   UNL     1      33.975 -15.658 -24.632  0.00  0.00    +0.058 C 
ATOM     24  C   UNL     1      34.498 -16.875 -24.454  0.00  0.00    +0.005 C 
ENDBRANCH  21  23
ENDBRANCH   8  20
TORSDOF 3
ENDMDL
