MODEL 1
REMARK VINA RESULT:     -11.4      0.000      0.000
REMARK  Name = 6918248
REMARK  5 active torsions:
REMARK  status: ('A' for Active; 'I' for Inactive)
REMARK    1  A    between atoms: N_1  and  C_18
REMARK    2  A    between atoms: N_2  and  C_8
REMARK    3  A    between atoms: C_11  and  C_17
REMARK    4  A    between atoms: C_18  and  C_19
REMARK    5  A    between atoms: C_19  and  N_21
REMARK                            x       y       z     vdW  Elec       q    Type
REMARK                         _______ _______ _______ _____ _____    ______ ____
ROOT
ATOM      1  N   UNL     1      34.562 -16.146 -21.796  0.00  0.00    +0.391 N 
ATOM      2  N   UNL     1      33.371 -13.554 -21.618  0.00  0.00    -0.312 N 
ATOM      3  C   UNL     1      34.548 -15.420 -20.520  0.00  0.00    -0.055 C 
ATOM      4  C   UNL     1      34.680 -15.194 -22.909  0.00  0.00    -0.055 C 
ATOM      5  C   UNL     1      33.369 -14.448 -20.453  0.00  0.00    +0.068 C 
ATOM      6  C   UNL     1      33.505 -14.214 -22.921  0.00  0.00    +0.068 C 
ATOM      7  H   UNL     1      33.685 -16.658 -21.894  0.00  0.00    -0.079 HD
ENDROOT
BRANCH   2   8
ATOM      8  C   UNL     1      32.675 -12.345 -21.520  0.00  0.00    +0.048 C 
ATOM      9  C   UNL     1      32.283 -11.832 -20.268  0.00  0.00    +0.018 C 
ATOM     10  C   UNL     1      32.345 -11.602 -22.672  0.00  0.00    +0.015 C 
ATOM     11  C   UNL     1      31.590 -10.625 -20.171  0.00  0.00    +0.073 C 
ATOM     12  C   UNL     1      31.653 -10.395 -22.575  0.00  0.00    +0.001 C 
ATOM     13  C   UNL     1      31.274  -9.906 -21.324  0.00  0.00    +0.004 C 
BRANCH  11  17
ATOM     14  F   UNL     1      31.757 -10.771 -17.789  0.00  0.00    -0.166 F 
ATOM     15  F   UNL     1      31.509  -8.791 -18.639  0.00  0.00    -0.166 F 
ATOM     16  F   UNL     1      29.838 -10.182 -18.626  0.00  0.00    -0.166 F 
ATOM     17  C   UNL     1      31.185 -10.103 -18.834  0.00  0.00    +0.419 C 
ENDBRANCH  11  17
ENDBRANCH   2   8
BRANCH   1  18
ATOM     18  C   UNL     1      35.660 -17.110 -21.827  0.00  0.00    -0.052 C 
BRANCH  18  19
ATOM     19  C   UNL     1      35.127 -18.510 -22.091  0.00  0.00    +0.088 C 
BRANCH  19  21
ATOM     20  O   UNL     1      37.927 -18.985 -21.068  0.00  0.00    -0.247 OA
ATOM     21  N   UNL     1      35.592 -19.441 -21.099  0.00  0.00    -0.282 N 
ATOM     22  N   UNL     1      36.926 -20.623 -19.689  0.00  0.00    -0.305 N 
ATOM     23  C   UNL     1      34.789 -20.346 -20.386  0.00  0.00    +0.079 A 
ATOM     24  C   UNL     1      36.944 -19.597 -20.676  0.00  0.00    +0.328 A 
ATOM     25  C   UNL     1      35.613 -21.067 -19.525  0.00  0.00    +0.076 A 
ATOM     26  C   UNL     1      33.429 -20.573 -20.441  0.00  0.00    +0.019 C 
ATOM     27  C   UNL     1      35.128 -22.042 -18.680  0.00  0.00    +0.019 C 
ATOM     28  C   UNL     1      32.913 -21.558 -19.593  0.00  0.00    +0.002 C 
ATOM     29  C   UNL     1      33.753 -22.285 -18.723  0.00  0.00    +0.002 C 
ATOM     30  H   UNL     1      37.711 -20.963 -19.202  0.00  0.00    +0.170 HD
ENDBRANCH  19  21
ENDBRANCH  18  19
ENDBRANCH   1  18
TORSDOF 5
ENDMDL
MODEL 2
REMARK VINA RESULT:     -11.3      6.768      9.301
REMARK  Name = 6918248
REMARK  5 active torsions:
REMARK  status: ('A' for Active; 'I' for Inactive)
REMARK    1  A    between atoms: N_1  and  C_18
REMARK    2  A    between atoms: N_2  and  C_8
REMARK    3  A    between atoms: C_11  and  C_17
REMARK    4  A    between atoms: C_18  and  C_19
REMARK    5  A    between atoms: C_19  and  N_21
REMARK                            x       y       z     vdW  Elec       q    Type
REMARK                         _______ _______ _______ _____ _____    ______ ____
ROOT
ATOM      1  N   UNL     1      34.535 -23.248 -17.320  0.00  0.00    +0.391 N 
ATOM      2  N   UNL     1      35.268 -21.294 -19.271  0.00  0.00    -0.312 N 
ATOM      3  C   UNL     1      33.501 -22.503 -18.048  0.00  0.00    -0.055 C 
ATOM      4  C   UNL     1      35.713 -22.396 -17.113  0.00  0.00    -0.055 C 
ATOM      5  C   UNL     1      34.015 -22.046 -19.416  0.00  0.00    +0.068 C 
ATOM      6  C   UNL     1      36.299 -21.934 -18.449  0.00  0.00    +0.068 C 
ATOM      7  H   UNL     1      34.810 -24.059 -17.875  0.00  0.00    -0.079 HD
ENDROOT
BRANCH   2   8
ATOM      8  C   UNL     1      35.641 -20.433 -20.308  0.00  0.00    +0.048 C 
ATOM      9  C   UNL     1      34.852 -20.310 -21.469  0.00  0.00    +0.018 C 
ATOM     10  C   UNL     1      36.818 -19.662 -20.223  0.00  0.00    +0.015 C 
ATOM     11  C   UNL     1      35.225 -19.451 -22.503  0.00  0.00    +0.073 C 
ATOM     12  C   UNL     1      37.190 -18.802 -21.256  0.00  0.00    +0.001 C 
ATOM     13  C   UNL     1      36.394 -18.697 -22.397  0.00  0.00    +0.004 C 
BRANCH  11  17
ATOM     14  F   UNL     1      33.036 -19.429 -23.467  0.00  0.00    -0.166 F 
ATOM     15  F   UNL     1      34.531 -18.158 -24.391  0.00  0.00    -0.166 F 
ATOM     16  F   UNL     1      34.639 -20.315 -24.639  0.00  0.00    -0.166 F 
ATOM     17  C   UNL     1      34.375 -19.338 -23.723  0.00  0.00    +0.419 C 
ENDBRANCH  11  17
ENDBRANCH   2   8
BRANCH   1  18
ATOM     18  C   UNL     1      34.016 -23.727 -16.039  0.00  0.00    -0.052 C 
BRANCH  18  19
ATOM     19  C   UNL     1      34.708 -23.012 -14.888  0.00  0.00    +0.088 C 
BRANCH  19  21
ATOM     20  O   UNL     1      33.195 -24.144 -12.534  0.00  0.00    -0.247 OA
ATOM     21  N   UNL     1      35.144 -23.944 -13.883  0.00  0.00    -0.282 N 
ATOM     22  N   UNL     1      35.195 -25.317 -12.073  0.00  0.00    -0.305 N 
ATOM     23  C   UNL     1      36.419 -24.529 -13.809  0.00  0.00    +0.079 A 
ATOM     24  C   UNL     1      34.354 -24.426 -12.800  0.00  0.00    +0.328 A 
ATOM     25  C   UNL     1      36.442 -25.369 -12.697  0.00  0.00    +0.076 A 
ATOM     26  C   UNL     1      37.523 -24.379 -14.623  0.00  0.00    +0.019 C 
ATOM     27  C   UNL     1      37.557 -26.096 -12.344  0.00  0.00    +0.019 C 
ATOM     28  C   UNL     1      38.668 -25.108 -14.284  0.00  0.00    +0.002 C 
ATOM     29  C   UNL     1      38.685 -25.956 -13.157  0.00  0.00    +0.002 C 
ATOM     30  H   UNL     1      34.938 -25.815 -11.264  0.00  0.00    +0.170 HD
ENDBRANCH  19  21
ENDBRANCH  18  19
ENDBRANCH   1  18
TORSDOF 5
ENDMDL
MODEL 3
REMARK VINA RESULT:     -11.2      1.894      2.406
REMARK  Name = 6918248
REMARK  5 active torsions:
REMARK  status: ('A' for Active; 'I' for Inactive)
REMARK    1  A    between atoms: N_1  and  C_18
REMARK    2  A    between atoms: N_2  and  C_8
REMARK    3  A    between atoms: C_11  and  C_17
REMARK    4  A    between atoms: C_18  and  C_19
REMARK    5  A    between atoms: C_19  and  N_21
REMARK                            x       y       z     vdW  Elec       q    Type
REMARK                         _______ _______ _______ _____ _____    ______ ____
ROOT
ATOM      1  N   UNL     1      34.558 -16.026 -22.000  0.00  0.00    +0.391 N 
ATOM      2  N   UNL     1      33.268 -13.477 -21.941  0.00  0.00    -0.312 N 
ATOM      3  C   UNL     1      34.535 -15.234 -20.764  0.00  0.00    -0.055 C 
ATOM      4  C   UNL     1      34.622 -15.132 -23.164  0.00  0.00    -0.055 C 
ATOM      5  C   UNL     1      33.319 -14.305 -20.729  0.00  0.00    +0.068 C 
ATOM      6  C   UNL     1      33.410 -14.200 -23.208  0.00  0.00    +0.068 C 
ATOM      7  H   UNL     1      33.701 -16.576 -22.055  0.00  0.00    -0.079 HD
ENDROOT
BRANCH   2   8
ATOM      8  C   UNL     1      32.527 -12.292 -21.896  0.00  0.00    +0.048 C 
ATOM      9  C   UNL     1      32.856 -11.197 -22.720  0.00  0.00    +0.018 C 
ATOM     10  C   UNL     1      31.427 -12.156 -21.025  0.00  0.00    +0.015 C 
ATOM     11  C   UNL     1      32.116 -10.016 -22.675  0.00  0.00    +0.073 C 
ATOM     12  C   UNL     1      30.686 -10.975 -20.981  0.00  0.00    +0.001 C 
ATOM     13  C   UNL     1      31.031  -9.904 -21.805  0.00  0.00    +0.004 C 
BRANCH  11  17
ATOM     14  F   UNL     1      33.817  -8.815 -23.853  0.00  0.00    -0.166 F 
ATOM     15  F   UNL     1      31.850  -8.885 -24.765  0.00  0.00    -0.166 F 
ATOM     16  F   UNL     1      32.183  -7.661 -22.999  0.00  0.00    -0.166 F 
ATOM     17  C   UNL     1      32.485  -8.871 -23.556  0.00  0.00    +0.419 C 
ENDBRANCH  11  17
ENDBRANCH   2   8
BRANCH   1  18
ATOM     18  C   UNL     1      35.693 -16.948 -21.997  0.00  0.00    -0.052 C 
BRANCH  18  19
ATOM     19  C   UNL     1      35.226 -18.363 -22.304  0.00  0.00    +0.088 C 
BRANCH  19  21
ATOM     20  O   UNL     1      37.985 -18.868 -21.187  0.00  0.00    -0.247 OA
ATOM     21  N   UNL     1      35.644 -19.282 -21.280  0.00  0.00    -0.282 N 
ATOM     22  N   UNL     1      36.912 -20.461 -19.808  0.00  0.00    -0.305 N 
ATOM     23  C   UNL     1      34.802 -20.159 -20.576  0.00  0.00    +0.079 A 
ATOM     24  C   UNL     1      36.979 -19.454 -20.813  0.00  0.00    +0.328 A 
ATOM     25  C   UNL     1      35.587 -20.878 -19.676  0.00  0.00    +0.076 A 
ATOM     26  C   UNL     1      33.441 -20.362 -20.668  0.00  0.00    +0.019 C 
ATOM     27  C   UNL     1      35.058 -21.827 -18.829  0.00  0.00    +0.019 C 
ATOM     28  C   UNL     1      32.881 -21.322 -19.818  0.00  0.00    +0.002 C 
ATOM     29  C   UNL     1      33.681 -22.046 -18.909  0.00  0.00    +0.002 C 
ATOM     30  H   UNL     1      37.675 -20.806 -19.291  0.00  0.00    +0.170 HD
ENDBRANCH  19  21
ENDBRANCH  18  19
ENDBRANCH   1  18
TORSDOF 5
ENDMDL
MODEL 4
REMARK VINA RESULT:     -11.1      3.057      4.498
REMARK  Name = 6918248
REMARK  5 active torsions:
REMARK  status: ('A' for Active; 'I' for Inactive)
REMARK    1  A    between atoms: N_1  and  C_18
REMARK    2  A    between atoms: N_2  and  C_8
REMARK    3  A    between atoms: C_11  and  C_17
REMARK    4  A    between atoms: C_18  and  C_19
REMARK    5  A    between atoms: C_19  and  N_21
REMARK                            x       y       z     vdW  Elec       q    Type
REMARK                         _______ _______ _______ _____ _____    ______ ____
ROOT
ATOM      1  N   UNL     1      32.832 -13.228 -22.577  0.00  0.00    +0.391 N 
ATOM      2  N   UNL     1      32.400 -10.429 -22.954  0.00  0.00    -0.312 N 
ATOM      3  C   UNL     1      32.226 -12.421 -21.512  0.00  0.00    -0.055 C 
ATOM      4  C   UNL     1      33.804 -12.419 -23.324  0.00  0.00    -0.055 C 
ATOM      5  C   UNL     1      31.500 -11.204 -22.090  0.00  0.00    +0.068 C 
ATOM      6  C   UNL     1      33.131 -11.202 -23.962  0.00  0.00    +0.068 C 
ATOM      7  H   UNL     1      32.099 -13.535 -23.217  0.00  0.00    -0.079 HD
ENDROOT
BRANCH   2   8
ATOM      8  C   UNL     1      32.082  -9.089 -23.201  0.00  0.00    +0.048 C 
ATOM      9  C   UNL     1      31.989  -8.159 -22.147  0.00  0.00    +0.018 C 
ATOM     10  C   UNL     1      31.846  -8.630 -24.512  0.00  0.00    +0.015 C 
ATOM     11  C   UNL     1      31.672  -6.823 -22.394  0.00  0.00    +0.073 C 
ATOM     12  C   UNL     1      31.530  -7.294 -24.759  0.00  0.00    +0.001 C 
ATOM     13  C   UNL     1      31.442  -6.390 -23.700  0.00  0.00    +0.004 C 
BRANCH  11  17
ATOM     14  F   UNL     1      32.232  -4.680 -21.491  0.00  0.00    -0.166 F 
ATOM     15  F   UNL     1      30.297  -5.498 -20.955  0.00  0.00    -0.166 F 
ATOM     16  F   UNL     1      32.108  -6.350 -20.105  0.00  0.00    -0.166 F 
ATOM     17  C   UNL     1      31.578  -5.857 -21.262  0.00  0.00    +0.419 C 
ENDBRANCH  11  17
ENDBRANCH   2   8
BRANCH   1  18
ATOM     18  C   UNL     1      33.476 -14.416 -22.017  0.00  0.00    -0.052 C 
BRANCH  18  19
ATOM     19  C   UNL     1      34.681 -14.810 -22.857  0.00  0.00    +0.088 C 
BRANCH  19  21
ATOM     20  O   UNL     1      33.668 -15.717 -25.552  0.00  0.00    -0.247 OA
ATOM     21  N   UNL     1      34.539 -16.142 -23.379  0.00  0.00    -0.282 N 
ATOM     22  N   UNL     1      34.086 -17.900 -24.746  0.00  0.00    -0.305 N 
ATOM     23  C   UNL     1      34.863 -17.326 -22.697  0.00  0.00    +0.079 A 
ATOM     24  C   UNL     1      34.048 -16.478 -24.674  0.00  0.00    +0.328 A 
ATOM     25  C   UNL     1      34.582 -18.399 -23.540  0.00  0.00    +0.076 A 
ATOM     26  C   UNL     1      35.369 -17.520 -21.428  0.00  0.00    +0.019 C 
ATOM     27  C   UNL     1      34.790 -19.709 -23.166  0.00  0.00    +0.019 C 
ATOM     28  C   UNL     1      35.589 -18.842 -21.025  0.00  0.00    +0.002 C 
ATOM     29  C   UNL     1      35.303 -19.923 -21.884  0.00  0.00    +0.002 C 
ATOM     30  H   UNL     1      33.808 -18.442 -25.519  0.00  0.00    +0.170 HD
ENDBRANCH  19  21
ENDBRANCH  18  19
ENDBRANCH   1  18
TORSDOF 5
ENDMDL
MODEL 5
REMARK VINA RESULT:     -11.1      3.925      5.364
REMARK  Name = 6918248
REMARK  5 active torsions:
REMARK  status: ('A' for Active; 'I' for Inactive)
REMARK    1  A    between atoms: N_1  and  C_18
REMARK    2  A    between atoms: N_2  and  C_8
REMARK    3  A    between atoms: C_11  and  C_17
REMARK    4  A    between atoms: C_18  and  C_19
REMARK    5  A    between atoms: C_19  and  N_21
REMARK                            x       y       z     vdW  Elec       q    Type
REMARK                         _______ _______ _______ _____ _____    ______ ____
ROOT
ATOM      1  N   UNL     1      32.572 -12.754 -22.517  0.00  0.00    +0.391 N 
ATOM      2  N   UNL     1      32.557  -9.909 -22.257  0.00  0.00    -0.312 N 
ATOM      3  C   UNL     1      32.113 -12.125 -21.273  0.00  0.00    -0.055 C 
ATOM      4  C   UNL     1      33.640 -11.946 -23.121  0.00  0.00    -0.055 C 
ATOM      5  C   UNL     1      31.567 -10.720 -21.537  0.00  0.00    +0.068 C 
ATOM      6  C   UNL     1      33.144 -10.535 -23.446  0.00  0.00    +0.068 C 
ATOM      7  H   UNL     1      31.790 -12.804 -23.170  0.00  0.00    -0.079 HD
ENDROOT
BRANCH   2   8
ATOM      8  C   UNL     1      32.438  -8.516 -22.193  0.00  0.00    +0.048 C 
ATOM      9  C   UNL     1      32.949  -7.695 -23.217  0.00  0.00    +0.018 C 
ATOM     10  C   UNL     1      31.801  -7.892 -21.101  0.00  0.00    +0.015 C 
ATOM     11  C   UNL     1      32.830  -6.307 -23.152  0.00  0.00    +0.073 C 
ATOM     12  C   UNL     1      31.681  -6.504 -21.036  0.00  0.00    +0.001 C 
ATOM     13  C   UNL     1      32.196  -5.711 -22.062  0.00  0.00    +0.004 C 
BRANCH  11  17
ATOM     14  F   UNL     1      33.035  -4.141 -24.147  0.00  0.00    -0.166 F 
ATOM     15  F   UNL     1      34.745  -5.465 -24.311  0.00  0.00    -0.166 F 
ATOM     16  F   UNL     1      32.955  -5.855 -25.483  0.00  0.00    -0.166 F 
ATOM     17  C   UNL     1      33.380  -5.459 -24.248  0.00  0.00    +0.419 C 
ENDBRANCH  11  17
ENDBRANCH   2   8
BRANCH   1  18
ATOM     18  C   UNL     1      33.042 -14.115 -22.261  0.00  0.00    -0.052 C 
BRANCH  18  19
ATOM     19  C   UNL     1      34.318 -14.390 -23.041  0.00  0.00    +0.088 C 
BRANCH  19  21
ATOM     20  O   UNL     1      33.551 -15.527 -25.729  0.00  0.00    -0.247 OA
ATOM     21  N   UNL     1      34.363 -15.750 -23.504  0.00  0.00    -0.282 N 
ATOM     22  N   UNL     1      34.190 -17.607 -24.803  0.00  0.00    -0.305 N 
ATOM     23  C   UNL     1      34.793 -16.856 -22.753  0.00  0.00    +0.079 A 
ATOM     24  C   UNL     1      33.977 -16.199 -24.801  0.00  0.00    +0.328 A 
ATOM     25  C   UNL     1      34.684 -17.990 -23.555  0.00  0.00    +0.076 A 
ATOM     26  C   UNL     1      35.259 -16.933 -21.456  0.00  0.00    +0.019 C 
ATOM     27  C   UNL     1      35.031 -19.247 -23.111  0.00  0.00    +0.019 C 
ATOM     28  C   UNL     1      35.617 -18.199 -20.982  0.00  0.00    +0.002 C 
ATOM     29  C   UNL     1      35.504 -19.343 -21.800  0.00  0.00    +0.002 C 
ATOM     30  H   UNL     1      34.016 -18.211 -25.561  0.00  0.00    +0.170 HD
ENDBRANCH  19  21
ENDBRANCH  18  19
ENDBRANCH   1  18
TORSDOF 5
ENDMDL
MODEL 6
REMARK VINA RESULT:     -11.0      6.745      9.282
REMARK  Name = 6918248
REMARK  5 active torsions:
REMARK  status: ('A' for Active; 'I' for Inactive)
REMARK    1  A    between atoms: N_1  and  C_18
REMARK    2  A    between atoms: N_2  and  C_8
REMARK    3  A    between atoms: C_11  and  C_17
REMARK    4  A    between atoms: C_18  and  C_19
REMARK    5  A    between atoms: C_19  and  N_21
REMARK                            x       y       z     vdW  Elec       q    Type
REMARK                         _______ _______ _______ _____ _____    ______ ____
ROOT
ATOM      1  N   UNL     1      35.094 -23.449 -16.780  0.00  0.00    +0.391 N 
ATOM      2  N   UNL     1      35.635 -21.489 -18.788  0.00  0.00    -0.312 N 
ATOM      3  C   UNL     1      34.001 -22.887 -17.582  0.00  0.00    -0.055 C 
ATOM      4  C   UNL     1      36.131 -22.431 -16.566  0.00  0.00    -0.055 C 
ATOM      5  C   UNL     1      34.507 -22.416 -18.948  0.00  0.00    +0.068 C 
ATOM      6  C   UNL     1      36.707 -21.945 -17.898  0.00  0.00    +0.068 C 
ATOM      7  H   UNL     1      35.505 -24.234 -17.287  0.00  0.00    -0.079 HD
ENDROOT
BRANCH   2   8
ATOM      8  C   UNL     1      35.932 -20.626 -19.848  0.00  0.00    +0.048 C 
ATOM      9  C   UNL     1      35.028 -20.449 -20.915  0.00  0.00    +0.018 C 
ATOM     10  C   UNL     1      37.143 -19.907 -19.881  0.00  0.00    +0.015 C 
ATOM     11  C   UNL     1      35.324 -19.588 -21.971  0.00  0.00    +0.073 C 
ATOM     12  C   UNL     1      37.439 -19.045 -20.937  0.00  0.00    +0.001 C 
ATOM     13  C   UNL     1      36.530 -18.886 -21.983  0.00  0.00    +0.004 C 
BRANCH  11  17
ATOM     14  F   UNL     1      34.247 -18.130 -23.532  0.00  0.00    -0.166 F 
ATOM     15  F   UNL     1      34.663 -20.151 -24.199  0.00  0.00    -0.166 F 
ATOM     16  F   UNL     1      33.086 -19.792 -22.747  0.00  0.00    -0.166 F 
ATOM     17  C   UNL     1      34.353 -19.418 -23.090  0.00  0.00    +0.419 C 
ENDBRANCH  11  17
ENDBRANCH   2   8
BRANCH   1  18
ATOM     18  C   UNL     1      34.590 -23.945 -15.500  0.00  0.00    -0.052 C 
BRANCH  18  19
ATOM     19  C   UNL     1      33.424 -23.091 -15.025  0.00  0.00    +0.088 C 
BRANCH  19  21
ATOM     20  O   UNL     1      33.415 -25.010 -12.695  0.00  0.00    -0.247 OA
ATOM     21  N   UNL     1      32.355 -23.906 -14.516  0.00  0.00    -0.282 N 
ATOM     22  N   UNL     1      31.152 -25.378 -13.271  0.00  0.00    -0.305 N 
ATOM     23  C   UNL     1      31.051 -23.962 -15.036  0.00  0.00    +0.079 A 
ATOM     24  C   UNL     1      32.442 -24.790 -13.402  0.00  0.00    +0.328 A 
ATOM     25  C   UNL     1      30.320 -24.866 -14.268  0.00  0.00    +0.076 A 
ATOM     26  C   UNL     1      30.482 -23.296 -16.103  0.00  0.00    +0.019 C 
ATOM     27  C   UNL     1      28.996 -25.149 -14.521  0.00  0.00    +0.019 C 
ATOM     28  C   UNL     1      29.138 -23.568 -16.378  0.00  0.00    +0.002 C 
ATOM     29  C   UNL     1      28.403 -24.484 -15.597  0.00  0.00    +0.002 C 
ATOM     30  H   UNL     1      30.889 -26.036 -12.588  0.00  0.00    +0.170 HD
ENDBRANCH  19  21
ENDBRANCH  18  19
ENDBRANCH   1  18
TORSDOF 5
ENDMDL
MODEL 7
REMARK VINA RESULT:     -10.9      5.277     10.687
REMARK  Name = 6918248
REMARK  5 active torsions:
REMARK  status: ('A' for Active; 'I' for Inactive)
REMARK    1  A    between atoms: N_1  and  C_18
REMARK    2  A    between atoms: N_2  and  C_8
REMARK    3  A    between atoms: C_11  and  C_17
REMARK    4  A    between atoms: C_18  and  C_19
REMARK    5  A    between atoms: C_19  and  N_21
REMARK                            x       y       z     vdW  Elec       q    Type
REMARK                         _______ _______ _______ _____ _____    ______ ____
ROOT
ATOM      1  N   UNL     1      32.304 -10.641 -21.816  0.00  0.00    +0.391 N 
ATOM      2  N   UNL     1      33.125 -13.178 -22.843  0.00  0.00    -0.312 N 
ATOM      3  C   UNL     1      31.608 -11.867 -21.408  0.00  0.00    -0.055 C 
ATOM      4  C   UNL     1      32.766 -10.768 -23.205  0.00  0.00    -0.055 C 
ATOM      5  C   UNL     1      32.535 -13.081 -21.501  0.00  0.00    +0.068 C 
ATOM      6  C   UNL     1      33.731 -11.945 -23.357  0.00  0.00    +0.068 C 
ATOM      7  H   UNL     1      33.115 -10.505 -21.212  0.00  0.00    -0.079 HD
ENDROOT
BRANCH   2   8
ATOM      8  C   UNL     1      33.619 -14.420 -23.256  0.00  0.00    +0.048 C 
ATOM      9  C   UNL     1      34.210 -15.309 -22.337  0.00  0.00    +0.018 C 
ATOM     10  C   UNL     1      33.538 -14.820 -24.605  0.00  0.00    +0.015 C 
ATOM     11  C   UNL     1      34.701 -16.547 -22.750  0.00  0.00    +0.073 C 
ATOM     12  C   UNL     1      34.028 -16.059 -25.018  0.00  0.00    +0.001 C 
ATOM     13  C   UNL     1      34.610 -16.923 -24.090  0.00  0.00    +0.004 C 
BRANCH  11  17
ATOM     14  F   UNL     1      34.660 -18.657 -21.623  0.00  0.00    -0.166 F 
ATOM     15  F   UNL     1      36.610 -17.815 -22.065  0.00  0.00    -0.166 F 
ATOM     16  F   UNL     1      35.378 -16.936 -20.504  0.00  0.00    -0.166 F 
ATOM     17  C   UNL     1      35.324 -17.471 -21.759  0.00  0.00    +0.419 C 
ENDBRANCH  11  17
ENDBRANCH   2   8
BRANCH   1  18
ATOM     18  C   UNL     1      31.426  -9.480 -21.671  0.00  0.00    -0.052 C 
BRANCH  18  19
ATOM     19  C   UNL     1      32.184  -8.318 -21.049  0.00  0.00    +0.088 C 
BRANCH  19  21
ATOM     20  O   UNL     1      30.230  -6.073 -21.551  0.00  0.00    -0.247 OA
ATOM     21  N   UNL     1      32.279  -7.210 -21.961  0.00  0.00    -0.282 N 
ATOM     22  N   UNL     1      31.819  -5.316 -23.130  0.00  0.00    -0.305 N 
ATOM     23  C   UNL     1      33.353  -6.956 -22.830  0.00  0.00    +0.079 A 
ATOM     24  C   UNL     1      31.299  -6.190 -22.132  0.00  0.00    +0.328 A 
ATOM     25  C   UNL     1      33.064  -5.795 -23.543  0.00  0.00    +0.076 A 
ATOM     26  C   UNL     1      34.528  -7.652 -23.031  0.00  0.00    +0.019 C 
ATOM     27  C   UNL     1      33.923  -5.271 -24.484  0.00  0.00    +0.019 C 
ATOM     28  C   UNL     1      35.416  -7.139 -23.982  0.00  0.00    +0.002 C 
ATOM     29  C   UNL     1      35.117  -5.963 -24.700  0.00  0.00    +0.002 C 
ATOM     30  H   UNL     1      31.373  -4.509 -23.472  0.00  0.00    +0.170 HD
ENDBRANCH  19  21
ENDBRANCH  18  19
ENDBRANCH   1  18
TORSDOF 5
ENDMDL
MODEL 8
REMARK VINA RESULT:     -10.8      5.469     10.066
REMARK  Name = 6918248
REMARK  5 active torsions:
REMARK  status: ('A' for Active; 'I' for Inactive)
REMARK    1  A    between atoms: N_1  and  C_18
REMARK    2  A    between atoms: N_2  and  C_8
REMARK    3  A    between atoms: C_11  and  C_17
REMARK    4  A    between atoms: C_18  and  C_19
REMARK    5  A    between atoms: C_19  and  N_21
REMARK                            x       y       z     vdW  Elec       q    Type
REMARK                         _______ _______ _______ _____ _____    ______ ____
ROOT
ATOM      1  N   UNL     1      34.734 -20.637 -21.040  0.00  0.00    +0.391 N 
ATOM      2  N   UNL     1      35.432 -21.688 -18.476  0.00  0.00    -0.312 N 
ATOM      3  C   UNL     1      35.957 -20.190 -20.362  0.00  0.00    -0.055 C 
ATOM      4  C   UNL     1      33.692 -20.931 -20.048  0.00  0.00    -0.055 C 
ATOM      5  C   UNL     1      36.483 -21.267 -19.411  0.00  0.00    +0.068 C 
ATOM      6  C   UNL     1      34.144 -22.032 -19.086  0.00  0.00    +0.068 C 
ATOM      7  H   UNL     1      34.940 -21.490 -21.562  0.00  0.00    -0.079 HD
ENDROOT
BRANCH   2   8
ATOM      8  C   UNL     1      35.822 -22.302 -17.282  0.00  0.00    +0.048 C 
ATOM      9  C   UNL     1      34.893 -23.008 -16.491  0.00  0.00    +0.018 C 
ATOM     10  C   UNL     1      37.157 -22.236 -16.834  0.00  0.00    +0.015 C 
ATOM     11  C   UNL     1      35.283 -23.621 -15.300  0.00  0.00    +0.073 C 
ATOM     12  C   UNL     1      37.547 -22.851 -15.644  0.00  0.00    +0.001 C 
ATOM     13  C   UNL     1      36.610 -23.543 -14.876  0.00  0.00    +0.004 C 
BRANCH  11  17
ATOM     14  F   UNL     1      34.186 -23.908 -13.194  0.00  0.00    -0.166 F 
ATOM     15  F   UNL     1      33.012 -24.295 -14.976  0.00  0.00    -0.166 F 
ATOM     16  F   UNL     1      34.567 -25.692 -14.378  0.00  0.00    -0.166 F 
ATOM     17  C   UNL     1      34.282 -24.361 -14.479  0.00  0.00    +0.419 C 
ENDBRANCH  11  17
ENDBRANCH   2   8
BRANCH   1  18
ATOM     18  C   UNL     1      34.271 -19.623 -21.986  0.00  0.00    -0.052 C 
BRANCH  18  19
ATOM     19  C   UNL     1      35.404 -18.670 -22.337  0.00  0.00    +0.088 C 
BRANCH  19  21
ATOM     20  O   UNL     1      34.624 -18.007 -25.177  0.00  0.00    -0.247 OA
ATOM     21  N   UNL     1      34.899 -17.440 -22.883  0.00  0.00    -0.282 N 
ATOM     22  N   UNL     1      34.108 -15.865 -24.318  0.00  0.00    -0.305 N 
ATOM     23  C   UNL     1      34.664 -16.260 -22.158  0.00  0.00    +0.079 A 
ATOM     24  C   UNL     1      34.555 -17.216 -24.247  0.00  0.00    +0.328 A 
ATOM     25  C   UNL     1      34.180 -15.300 -23.044  0.00  0.00    +0.076 A 
ATOM     26  C   UNL     1      34.842 -15.980 -20.818  0.00  0.00    +0.019 C 
ATOM     27  C   UNL     1      33.849 -14.024 -22.644  0.00  0.00    +0.019 C 
ATOM     28  C   UNL     1      34.513 -14.690 -20.388  0.00  0.00    +0.002 C 
ATOM     29  C   UNL     1      34.022 -13.723 -21.290  0.00  0.00    +0.002 C 
ATOM     30  H   UNL     1      33.798 -15.407 -25.132  0.00  0.00    +0.170 HD
ENDBRANCH  19  21
ENDBRANCH  18  19
ENDBRANCH   1  18
TORSDOF 5
ENDMDL
MODEL 9
REMARK VINA RESULT:     -10.7      3.724      6.390
REMARK  Name = 6918248
REMARK  5 active torsions:
REMARK  status: ('A' for Active; 'I' for Inactive)
REMARK    1  A    between atoms: N_1  and  C_18
REMARK    2  A    between atoms: N_2  and  C_8
REMARK    3  A    between atoms: C_11  and  C_17
REMARK    4  A    between atoms: C_18  and  C_19
REMARK    5  A    between atoms: C_19  and  N_21
REMARK                            x       y       z     vdW  Elec       q    Type
REMARK                         _______ _______ _______ _____ _____    ______ ____
ROOT
ATOM      1  N   UNL     1      35.297 -21.721 -19.421  0.00  0.00    +0.391 N 
ATOM      2  N   UNL     1      35.057 -19.317 -20.946  0.00  0.00    -0.312 N 
ATOM      3  C   UNL     1      33.996 -21.055 -19.557  0.00  0.00    -0.055 C 
ATOM      4  C   UNL     1      36.371 -20.720 -19.406  0.00  0.00    -0.055 C 
ATOM      5  C   UNL     1      33.925 -20.248 -20.855  0.00  0.00    +0.068 C 
ATOM      6  C   UNL     1      36.379 -19.902 -20.699  0.00  0.00    +0.068 C 
ATOM      7  H   UNL     1      35.436 -22.340 -20.221  0.00  0.00    -0.079 HD
ENDROOT
BRANCH   2   8
ATOM      8  C   UNL     1      34.934 -18.213 -21.796  0.00  0.00    +0.048 C 
ATOM      9  C   UNL     1      34.728 -16.918 -21.280  0.00  0.00    +0.018 C 
ATOM     10  C   UNL     1      35.013 -18.363 -23.196  0.00  0.00    +0.015 C 
ATOM     11  C   UNL     1      34.606 -15.818 -22.129  0.00  0.00    +0.073 C 
ATOM     12  C   UNL     1      34.892 -17.262 -24.044  0.00  0.00    +0.001 C 
ATOM     13  C   UNL     1      34.687 -15.990 -23.511  0.00  0.00    +0.004 C 
BRANCH  11  17
ATOM     14  F   UNL     1      34.808 -13.447 -22.377  0.00  0.00    -0.166 F 
ATOM     15  F   UNL     1      33.076 -14.179 -21.297  0.00  0.00    -0.166 F 
ATOM     16  F   UNL     1      35.044 -14.270 -20.378  0.00  0.00    -0.166 F 
ATOM     17  C   UNL     1      34.386 -14.457 -21.560  0.00  0.00    +0.419 C 
ENDBRANCH  11  17
ENDBRANCH   2   8
BRANCH   1  18
ATOM     18  C   UNL     1      35.334 -22.533 -18.205  0.00  0.00    -0.052 C 
BRANCH  18  19
ATOM     19  C   UNL     1      34.000 -23.235 -17.997  0.00  0.00    +0.088 C 
BRANCH  19  21
ATOM     20  O   UNL     1      35.916 -23.956 -15.779  0.00  0.00    -0.247 OA
ATOM     21  N   UNL     1      33.740 -23.456 -16.601  0.00  0.00    -0.282 N 
ATOM     22  N   UNL     1      34.004 -23.914 -14.390  0.00  0.00    -0.305 N 
ATOM     23  C   UNL     1      32.483 -23.373 -15.980  0.00  0.00    +0.079 A 
ATOM     24  C   UNL     1      34.715 -23.796 -15.619  0.00  0.00    +0.328 A 
ATOM     25  C   UNL     1      32.652 -23.656 -14.626  0.00  0.00    +0.076 A 
ATOM     26  C   UNL     1      31.242 -23.078 -16.505  0.00  0.00    +0.019 C 
ATOM     27  C   UNL     1      31.603 -23.656 -13.734  0.00  0.00    +0.019 C 
ATOM     28  C   UNL     1      30.160 -23.072 -15.618  0.00  0.00    +0.002 C 
ATOM     29  C   UNL     1      30.338 -23.359 -14.249  0.00  0.00    +0.002 C 
ATOM     30  H   UNL     1      34.400 -24.141 -13.519  0.00  0.00    +0.170 HD
ENDBRANCH  19  21
ENDBRANCH  18  19
ENDBRANCH   1  18
TORSDOF 5
ENDMDL
