MODEL 1
REMARK VINA RESULT:     -11.6      0.000      0.000
REMARK  Name = 25093369
REMARK  5 active torsions:
REMARK  status: ('A' for Active; 'I' for Inactive)
REMARK    1  A    between atoms: C_1  and  C_3
REMARK    2  A    between atoms: C_1  and  C_17
REMARK    3  A    between atoms: C_4  and  C_9
REMARK    4  A    between atoms: C_7  and  O_15
REMARK    5  A    between atoms: C_18  and  C_23
REMARK                            x       y       z     vdW  Elec       q    Type
REMARK                         _______ _______ _______ _____ _____    ______ ____
ROOT
ATOM      1  C   UNL     1      32.745 -24.302 -13.504  0.00  0.00    +0.086 C 
ATOM      2  C   UNL     1      31.895 -25.487 -13.006  0.00  0.00    +0.019 C 
ENDROOT
BRANCH   1   3
ATOM      3  C   UNL     1      32.266 -23.763 -14.809  0.00  0.00    -0.007 C 
ATOM      4  C   UNL     1      32.736 -22.789 -16.970  0.00  0.00    +0.003 C 
ATOM      5  C   UNL     1      33.184 -23.294 -15.749  0.00  0.00    -0.003 C 
ATOM      6  C   UNL     1      30.900 -23.727 -15.089  0.00  0.00    +0.034 C 
ATOM      7  C   UNL     1      30.452 -23.222 -16.310  0.00  0.00    +0.138 C 
ATOM      8  C   UNL     1      31.370 -22.753 -17.250  0.00  0.00    +0.037 C 
BRANCH   4   9
ATOM      9  C   UNL     1      33.687 -22.304 -17.945  0.00  0.00    +0.000 C 
ATOM     10  C   UNL     1      33.241 -21.622 -19.077  0.00  0.00    +0.000 C 
ATOM     11  C   UNL     1      35.052 -22.517 -17.753  0.00  0.00    +0.000 C 
ATOM     12  C   UNL     1      34.157 -21.154 -20.017  0.00  0.00    +0.000 C 
ATOM     13  C   UNL     1      35.970 -22.048 -18.694  0.00  0.00    +0.000 C 
ATOM     14  C   UNL     1      35.523 -21.367 -19.825  0.00  0.00    +0.000 C 
ENDBRANCH   4   9
BRANCH   7  15
ATOM     15  O   UNL     1      29.119 -23.188 -16.584  0.00  0.00    -0.471 OA
ATOM     16  C   UNL     1      28.245 -22.827 -15.516  0.00  0.00    +0.252 C 
ENDBRANCH   7  15
ENDBRANCH   1   3
BRANCH   1  17
ATOM     17  C   UNL     1      34.176 -24.696 -13.545  0.00  0.00    -0.087 C 
ATOM     18  C   UNL     1      35.329 -25.028 -13.595  0.00  0.00    -0.076 C 
BRANCH  18  23
ATOM     19  N   UNL     1      39.004 -25.042 -13.077  0.00  0.00    -0.336 NA
ATOM     20  N   UNL     1      38.404 -26.949 -14.423  0.00  0.00    -0.317 NA
ATOM     21  N   UNL     1      36.147 -27.345 -15.008  0.00  0.00    -0.334 N 
ATOM     22  N   UNL     1      40.639 -26.544 -13.835  0.00  0.00    -0.283 N 
ATOM     23  C   UNL     1      36.701 -25.427 -13.661  0.00  0.00    +0.179 C 
ATOM     24  C   UNL     1      37.699 -24.703 -13.041  0.00  0.00    +0.120 C 
ATOM     25  C   UNL     1      37.116 -26.551 -14.345  0.00  0.00    +0.186 C 
ATOM     26  C   UNL     1      37.383 -23.463 -12.267  0.00  0.00    +0.064 C 
ATOM     27  C   UNL     1      39.282 -26.159 -13.776  0.00  0.00    +0.196 C 
ATOM     28  H   UNL     1      36.423 -28.151 -15.500  0.00  0.00    +0.144 HD
ATOM     29  H   UNL     1      35.196 -27.089 -14.975  0.00  0.00    +0.144 HD
ATOM     30  H   UNL     1      41.324 -26.004 -13.380  0.00  0.00    +0.156 HD
ATOM     31  H   UNL     1      40.900 -27.354 -14.332  0.00  0.00    +0.156 HD
ENDBRANCH  18  23
ENDBRANCH   1  17
TORSDOF 5
ENDMDL
MODEL 2
REMARK VINA RESULT:     -10.1      2.670      4.473
REMARK  Name = 25093369
REMARK  5 active torsions:
REMARK  status: ('A' for Active; 'I' for Inactive)
REMARK    1  A    between atoms: C_1  and  C_3
REMARK    2  A    between atoms: C_1  and  C_17
REMARK    3  A    between atoms: C_4  and  C_9
REMARK    4  A    between atoms: C_7  and  O_15
REMARK    5  A    between atoms: C_18  and  C_23
REMARK                            x       y       z     vdW  Elec       q    Type
REMARK                         _______ _______ _______ _____ _____    ______ ____
ROOT
ATOM      1  C   UNL     1      37.213 -22.265 -16.896  0.00  0.00    +0.086 C 
ATOM      2  C   UNL     1      37.993 -20.963 -16.631  0.00  0.00    +0.019 C 
ENDROOT
BRANCH   1   3
ATOM      3  C   UNL     1      36.037 -22.057 -17.788  0.00  0.00    -0.007 C 
ATOM      4  C   UNL     1      35.040 -21.015 -19.726  0.00  0.00    +0.003 C 
ATOM      5  C   UNL     1      36.140 -21.210 -18.893  0.00  0.00    -0.003 C 
ATOM      6  C   UNL     1      34.833 -22.706 -17.516  0.00  0.00    +0.034 C 
ATOM      7  C   UNL     1      33.732 -22.510 -18.350  0.00  0.00    +0.138 C 
ATOM      8  C   UNL     1      33.835 -21.664 -19.455  0.00  0.00    +0.037 C 
BRANCH   4   9
ATOM      9  C   UNL     1      35.146 -20.139 -20.872  0.00  0.00    +0.000 C 
ATOM     10  C   UNL     1      36.251 -19.299 -21.009  0.00  0.00    +0.000 C 
ATOM     11  C   UNL     1      34.143 -20.133 -21.841  0.00  0.00    +0.000 C 
ATOM     12  C   UNL     1      36.355 -18.456 -22.114  0.00  0.00    +0.000 C 
ATOM     13  C   UNL     1      34.245 -19.289 -22.947  0.00  0.00    +0.000 C 
ATOM     14  C   UNL     1      35.351 -18.450 -23.083  0.00  0.00    +0.000 C 
ENDBRANCH   4   9
BRANCH   7  15
ATOM     15  O   UNL     1      32.557 -23.145 -18.086  0.00  0.00    -0.471 OA
ATOM     16  C   UNL     1      32.118 -23.161 -16.730  0.00  0.00    +0.252 C 
ENDBRANCH   7  15
ENDBRANCH   1   3
BRANCH   1  17
ATOM     17  C   UNL     1      36.840 -22.895 -15.604  0.00  0.00    -0.087 C 
ATOM     18  C   UNL     1      36.555 -23.396 -14.549  0.00  0.00    -0.076 C 
BRANCH  18  23
ATOM     19  N   UNL     1      36.907 -25.143 -11.294  0.00  0.00    -0.336 NA
ATOM     20  N   UNL     1      34.591 -24.559 -11.614  0.00  0.00    -0.317 NA
ATOM     21  N   UNL     1      33.896 -23.423 -13.568  0.00  0.00    -0.334 N 
ATOM     22  N   UNL     1      35.294 -25.686  -9.680  0.00  0.00    -0.283 N 
ATOM     23  C   UNL     1      36.221 -23.987 -13.290  0.00  0.00    +0.179 C 
ATOM     24  C   UNL     1      37.177 -24.575 -12.488  0.00  0.00    +0.120 C 
ATOM     25  C   UNL     1      34.932 -24.009 -12.798  0.00  0.00    +0.186 C 
ATOM     26  C   UNL     1      38.612 -24.619 -12.906  0.00  0.00    +0.064 C 
ATOM     27  C   UNL     1      35.613 -25.101 -10.924  0.00  0.00    +0.196 C 
ATOM     28  H   UNL     1      32.971 -23.428 -13.234  0.00  0.00    +0.144 HD
ATOM     29  H   UNL     1      34.104 -23.010 -14.438  0.00  0.00    +0.144 HD
ATOM     30  H   UNL     1      36.002 -26.098  -9.133  0.00  0.00    +0.156 HD
ATOM     31  H   UNL     1      34.363 -25.684  -9.359  0.00  0.00    +0.156 HD
ENDBRANCH  18  23
ENDBRANCH   1  17
TORSDOF 5
ENDMDL
MODEL 3
REMARK VINA RESULT:     -10.0      4.086      7.007
REMARK  Name = 25093369
REMARK  5 active torsions:
REMARK  status: ('A' for Active; 'I' for Inactive)
REMARK    1  A    between atoms: C_1  and  C_3
REMARK    2  A    between atoms: C_1  and  C_17
REMARK    3  A    between atoms: C_4  and  C_9
REMARK    4  A    between atoms: C_7  and  O_15
REMARK    5  A    between atoms: C_18  and  C_23
REMARK                            x       y       z     vdW  Elec       q    Type
REMARK                         _______ _______ _______ _____ _____    ______ ____
ROOT
ATOM      1  C   UNL     1      34.144 -24.936 -13.797  0.00  0.00    +0.086 C 
ATOM      2  C   UNL     1      34.208 -24.546 -12.307  0.00  0.00    +0.019 C 
ENDROOT
BRANCH   1   3
ATOM      3  C   UNL     1      35.245 -24.325 -14.596  0.00  0.00    -0.007 C 
ATOM      4  C   UNL     1      35.980 -23.048 -16.511  0.00  0.00    +0.003 C 
ATOM      5  C   UNL     1      34.950 -23.618 -15.763  0.00  0.00    -0.003 C 
ATOM      6  C   UNL     1      36.568 -24.462 -14.178  0.00  0.00    +0.034 C 
ATOM      7  C   UNL     1      37.598 -23.891 -14.927  0.00  0.00    +0.138 C 
ATOM      8  C   UNL     1      37.304 -23.185 -16.093  0.00  0.00    +0.037 C 
BRANCH   4   9
ATOM      9  C   UNL     1      35.676 -22.314 -17.719  0.00  0.00    +0.000 C 
ATOM     10  C   UNL     1      36.665 -21.555 -18.343  0.00  0.00    +0.000 C 
ATOM     11  C   UNL     1      34.391 -22.367 -18.262  0.00  0.00    +0.000 C 
ATOM     12  C   UNL     1      36.372 -20.848 -19.508  0.00  0.00    +0.000 C 
ATOM     13  C   UNL     1      34.098 -21.660 -19.429  0.00  0.00    +0.000 C 
ATOM     14  C   UNL     1      35.088 -20.900 -20.051  0.00  0.00    +0.000 C 
ENDBRANCH   4   9
BRANCH   7  15
ATOM     15  O   UNL     1      38.890 -24.024 -14.517  0.00  0.00    -0.471 OA
ATOM     16  C   UNL     1      39.353 -25.345 -14.247  0.00  0.00    +0.252 C 
ENDBRANCH   7  15
ENDBRANCH   1   3
BRANCH   1  17
ATOM     17  C   UNL     1      32.801 -24.609 -14.340  0.00  0.00    -0.087 C 
ATOM     18  C   UNL     1      31.724 -24.328 -14.791  0.00  0.00    -0.076 C 
BRANCH  18  23
ATOM     19  N   UNL     1      28.055 -24.277 -15.348  0.00  0.00    -0.336 NA
ATOM     20  N   UNL     1      29.093 -22.735 -16.882  0.00  0.00    -0.317 NA
ATOM     21  N   UNL     1      31.439 -22.438 -16.884  0.00  0.00    -0.334 N 
ATOM     22  N   UNL     1      26.766 -23.039 -16.869  0.00  0.00    -0.283 N 
ATOM     23  C   UNL     1      30.444 -23.990 -15.334  0.00  0.00    +0.179 C 
ATOM     24  C   UNL     1      29.281 -24.567 -14.867  0.00  0.00    +0.120 C 
ATOM     25  C   UNL     1      30.288 -23.072 -16.353  0.00  0.00    +0.186 C 
ATOM     26  C   UNL     1      29.312 -25.577 -13.765  0.00  0.00    +0.064 C 
ATOM     27  C   UNL     1      28.034 -23.367 -16.340  0.00  0.00    +0.196 C 
ATOM     28  H   UNL     1      31.349 -21.780 -17.610  0.00  0.00    +0.144 HD
ATOM     29  H   UNL     1      32.331 -22.656 -16.525  0.00  0.00    +0.144 HD
ATOM     30  H   UNL     1      25.957 -23.471 -16.511  0.00  0.00    +0.156 HD
ATOM     31  H   UNL     1      26.692 -22.379 -17.596  0.00  0.00    +0.156 HD
ENDBRANCH  18  23
ENDBRANCH   1  17
TORSDOF 5
ENDMDL
MODEL 4
REMARK VINA RESULT:     -10.0      4.179      6.911
REMARK  Name = 25093369
REMARK  5 active torsions:
REMARK  status: ('A' for Active; 'I' for Inactive)
REMARK    1  A    between atoms: C_1  and  C_3
REMARK    2  A    between atoms: C_1  and  C_17
REMARK    3  A    between atoms: C_4  and  C_9
REMARK    4  A    between atoms: C_7  and  O_15
REMARK    5  A    between atoms: C_18  and  C_23
REMARK                            x       y       z     vdW  Elec       q    Type
REMARK                         _______ _______ _______ _____ _____    ______ ____
ROOT
ATOM      1  C   UNL     1      34.461 -24.798 -13.662  0.00  0.00    +0.086 C 
ATOM      2  C   UNL     1      34.535 -24.284 -12.211  0.00  0.00    +0.019 C 
ENDROOT
BRANCH   1   3
ATOM      3  C   UNL     1      35.540 -24.236 -14.524  0.00  0.00    -0.007 C 
ATOM      4  C   UNL     1      36.221 -23.007 -16.491  0.00  0.00    +0.003 C 
ATOM      5  C   UNL     1      35.211 -23.533 -15.684  0.00  0.00    -0.003 C 
ATOM      6  C   UNL     1      36.878 -24.414 -14.172  0.00  0.00    +0.034 C 
ATOM      7  C   UNL     1      37.887 -23.888 -14.979  0.00  0.00    +0.138 C 
ATOM      8  C   UNL     1      37.558 -23.185 -16.138  0.00  0.00    +0.037 C 
BRANCH   4   9
ATOM      9  C   UNL     1      35.881 -22.278 -17.692  0.00  0.00    +0.000 C 
ATOM     10  C   UNL     1      36.830 -21.461 -18.306  0.00  0.00    +0.000 C 
ATOM     11  C   UNL     1      34.602 -22.391 -18.238  0.00  0.00    +0.000 C 
ATOM     12  C   UNL     1      36.503 -20.758 -19.464  0.00  0.00    +0.000 C 
ATOM     13  C   UNL     1      34.273 -21.688 -19.398  0.00  0.00    +0.000 C 
ATOM     14  C   UNL     1      35.224 -20.872 -20.010  0.00  0.00    +0.000 C 
ENDBRANCH   4   9
BRANCH   7  15
ATOM     15  O   UNL     1      39.193 -24.061 -14.634  0.00  0.00    -0.471 OA
ATOM     16  C   UNL     1      39.674 -25.402 -14.563  0.00  0.00    +0.252 C 
ENDBRANCH   7  15
ENDBRANCH   1   3
BRANCH   1  17
ATOM     17  C   UNL     1      33.106 -24.544 -14.214  0.00  0.00    -0.087 C 
ATOM     18  C   UNL     1      32.009 -24.320 -14.649  0.00  0.00    -0.076 C 
BRANCH  18  23
ATOM     19  N   UNL     1      29.299 -22.900 -16.749  0.00  0.00    -0.336 NA
ATOM     20  N   UNL     1      28.319 -24.370 -15.110  0.00  0.00    -0.317 NA
ATOM     21  N   UNL     1      29.683 -25.504 -13.545  0.00  0.00    -0.334 N 
ATOM     22  N   UNL     1      26.979 -23.238 -16.668  0.00  0.00    -0.283 N 
ATOM     23  C   UNL     1      30.704 -24.045 -15.166  0.00  0.00    +0.179 C 
ATOM     24  C   UNL     1      30.510 -23.188 -16.230  0.00  0.00    +0.120 C 
ATOM     25  C   UNL     1      29.562 -24.612 -14.640  0.00  0.00    +0.186 C 
ATOM     26  C   UNL     1      31.666 -22.506 -16.890  0.00  0.00    +0.064 C 
ATOM     27  C   UNL     1      28.263 -23.516 -16.150  0.00  0.00    +0.196 C 
ATOM     28  H   UNL     1      28.880 -25.919 -13.157  0.00  0.00    +0.144 HD
ATOM     29  H   UNL     1      30.572 -25.708 -13.173  0.00  0.00    +0.144 HD
ATOM     30  H   UNL     1      26.878 -22.621 -17.428  0.00  0.00    +0.156 HD
ATOM     31  H   UNL     1      26.184 -23.661 -16.268  0.00  0.00    +0.156 HD
ENDBRANCH  18  23
ENDBRANCH   1  17
TORSDOF 5
ENDMDL
MODEL 5
REMARK VINA RESULT:      -9.9      2.566      4.718
REMARK  Name = 25093369
REMARK  5 active torsions:
REMARK  status: ('A' for Active; 'I' for Inactive)
REMARK    1  A    between atoms: C_1  and  C_3
REMARK    2  A    between atoms: C_1  and  C_17
REMARK    3  A    between atoms: C_4  and  C_9
REMARK    4  A    between atoms: C_7  and  O_15
REMARK    5  A    between atoms: C_18  and  C_23
REMARK                            x       y       z     vdW  Elec       q    Type
REMARK                         _______ _______ _______ _____ _____    ______ ____
ROOT
ATOM      1  C   UNL     1      37.383 -21.469 -17.766  0.00  0.00    +0.086 C 
ATOM      2  C   UNL     1      37.849 -20.110 -17.207  0.00  0.00    +0.019 C 
ENDROOT
BRANCH   1   3
ATOM      3  C   UNL     1      36.131 -21.359 -18.568  0.00  0.00    -0.007 C 
ATOM      4  C   UNL     1      34.902 -20.384 -20.406  0.00  0.00    +0.003 C 
ATOM      5  C   UNL     1      36.074 -20.487 -19.657  0.00  0.00    -0.003 C 
ATOM      6  C   UNL     1      35.017 -22.127 -18.230  0.00  0.00    +0.034 C 
ATOM      7  C   UNL     1      33.846 -22.023 -18.980  0.00  0.00    +0.138 C 
ATOM      8  C   UNL     1      33.788 -21.152 -20.068  0.00  0.00    +0.037 C 
BRANCH   4   9
ATOM      9  C   UNL     1      34.842 -19.481 -21.534  0.00  0.00    +0.000 C 
ATOM     10  C   UNL     1      35.327 -18.179 -21.414  0.00  0.00    +0.000 C 
ATOM     11  C   UNL     1      34.300 -19.914 -22.745  0.00  0.00    +0.000 C 
ATOM     12  C   UNL     1      35.270 -17.309 -22.502  0.00  0.00    +0.000 C 
ATOM     13  C   UNL     1      34.243 -19.043 -23.834  0.00  0.00    +0.000 C 
ATOM     14  C   UNL     1      34.727 -17.741 -23.712  0.00  0.00    +0.000 C 
ENDBRANCH   4   9
BRANCH   7  15
ATOM     15  O   UNL     1      32.758 -22.774 -18.651  0.00  0.00    -0.471 OA
ATOM     16  C   UNL     1      32.634 -23.172 -17.287  0.00  0.00    +0.252 C 
ENDBRANCH   7  15
ENDBRANCH   1   3
BRANCH   1  17
ATOM     17  C   UNL     1      37.261 -22.449 -16.657  0.00  0.00    -0.087 C 
ATOM     18  C   UNL     1      37.184 -23.244 -15.760  0.00  0.00    -0.076 C 
BRANCH  18  23
ATOM     19  N   UNL     1      35.834 -25.201 -12.910  0.00  0.00    -0.336 NA
ATOM     20  N   UNL     1      38.092 -25.923 -13.346  0.00  0.00    -0.317 NA
ATOM     21  N   UNL     1      39.352 -24.942 -15.090  0.00  0.00    -0.334 N 
ATOM     22  N   UNL     1      36.830 -26.888 -11.619  0.00  0.00    -0.283 N 
ATOM     23  C   UNL     1      37.100 -24.190 -14.690  0.00  0.00    +0.179 C 
ATOM     24  C   UNL     1      35.958 -24.323 -13.928  0.00  0.00    +0.120 C 
ATOM     25  C   UNL     1      38.146 -25.023 -14.351  0.00  0.00    +0.186 C 
ATOM     26  C   UNL     1      34.752 -23.479 -14.192  0.00  0.00    +0.064 C 
ATOM     27  C   UNL     1      36.923 -25.958 -12.677  0.00  0.00    +0.196 C 
ATOM     28  H   UNL     1      40.109 -25.529 -14.864  0.00  0.00    +0.144 HD
ATOM     29  H   UNL     1      39.432 -24.298 -15.832  0.00  0.00    +0.144 HD
ATOM     30  H   UNL     1      35.999 -26.957 -11.096  0.00  0.00    +0.156 HD
ATOM     31  H   UNL     1      37.596 -27.468 -11.404  0.00  0.00    +0.156 HD
ENDBRANCH  18  23
ENDBRANCH   1  17
TORSDOF 5
ENDMDL
MODEL 6
REMARK VINA RESULT:      -9.7      4.160      7.235
REMARK  Name = 25093369
REMARK  5 active torsions:
REMARK  status: ('A' for Active; 'I' for Inactive)
REMARK    1  A    between atoms: C_1  and  C_3
REMARK    2  A    between atoms: C_1  and  C_17
REMARK    3  A    between atoms: C_4  and  C_9
REMARK    4  A    between atoms: C_7  and  O_15
REMARK    5  A    between atoms: C_18  and  C_23
REMARK                            x       y       z     vdW  Elec       q    Type
REMARK                         _______ _______ _______ _____ _____    ______ ____
ROOT
ATOM      1  C   UNL     1      37.220 -22.904 -15.235  0.00  0.00    +0.086 C 
ATOM      2  C   UNL     1      38.397 -23.851 -15.541  0.00  0.00    +0.019 C 
ENDROOT
BRANCH   1   3
ATOM      3  C   UNL     1      36.175 -23.546 -14.387  0.00  0.00    -0.007 C 
ATOM      4  C   UNL     1      33.861 -24.125 -13.998  0.00  0.00    +0.003 C 
ATOM      5  C   UNL     1      34.839 -23.525 -14.791  0.00  0.00    -0.003 C 
ATOM      6  C   UNL     1      36.532 -24.167 -13.190  0.00  0.00    +0.034 C 
ATOM      7  C   UNL     1      35.554 -24.767 -12.397  0.00  0.00    +0.138 C 
ATOM      8  C   UNL     1      34.219 -24.745 -12.801  0.00  0.00    +0.037 C 
BRANCH   4   9
ATOM      9  C   UNL     1      32.477 -24.104 -14.415  0.00  0.00    +0.000 C 
ATOM     10  C   UNL     1      31.559 -24.980 -13.838  0.00  0.00    +0.000 C 
ATOM     11  C   UNL     1      32.059 -23.205 -15.398  0.00  0.00    +0.000 C 
ATOM     12  C   UNL     1      30.225 -24.960 -14.240  0.00  0.00    +0.000 C 
ATOM     13  C   UNL     1      30.723 -23.184 -15.801  0.00  0.00    +0.000 C 
ATOM     14  C   UNL     1      29.806 -24.061 -15.222  0.00  0.00    +0.000 C 
ENDBRANCH   4   9
BRANCH   7  15
ATOM     15  O   UNL     1      35.903 -25.374 -11.230  0.00  0.00    -0.471 OA
ATOM     16  C   UNL     1      35.705 -24.633 -10.028  0.00  0.00    +0.252 C 
ENDBRANCH   7  15
ENDBRANCH   1   3
BRANCH   1  17
ATOM     17  C   UNL     1      36.668 -22.367 -16.505  0.00  0.00    -0.087 C 
ATOM     18  C   UNL     1      36.224 -21.912 -17.524  0.00  0.00    -0.076 C 
BRANCH  18  23
ATOM     19  N   UNL     1      33.951 -21.279 -20.388  0.00  0.00    -0.336 NA
ATOM     20  N   UNL     1      35.890 -19.866 -20.611  0.00  0.00    -0.317 NA
ATOM     21  N   UNL     1      37.618 -19.934 -18.998  0.00  0.00    -0.334 N 
ATOM     22  N   UNL     1      34.167 -19.810 -22.204  0.00  0.00    -0.283 N 
ATOM     23  C   UNL     1      35.698 -21.363 -18.736  0.00  0.00    +0.179 C 
ATOM     24  C   UNL     1      34.484 -21.770 -19.250  0.00  0.00    +0.120 C 
ATOM     25  C   UNL     1      36.364 -20.400 -19.465  0.00  0.00    +0.186 C 
ATOM     26  C   UNL     1      33.662 -22.808 -18.556  0.00  0.00    +0.064 C 
ATOM     27  C   UNL     1      34.695 -20.345 -21.009  0.00  0.00    +0.196 C 
ATOM     28  H   UNL     1      38.108 -19.246 -19.504  0.00  0.00    +0.144 HD
ATOM     29  H   UNL     1      37.999 -20.297 -18.165  0.00  0.00    +0.144 HD
ATOM     30  H   UNL     1      33.298 -20.123 -22.542  0.00  0.00    +0.156 HD
ATOM     31  H   UNL     1      34.670 -19.123 -22.700  0.00  0.00    +0.156 HD
ENDBRANCH  18  23
ENDBRANCH   1  17
TORSDOF 5
ENDMDL
MODEL 7
REMARK VINA RESULT:      -9.6     11.553     14.522
REMARK  Name = 25093369
REMARK  5 active torsions:
REMARK  status: ('A' for Active; 'I' for Inactive)
REMARK    1  A    between atoms: C_1  and  C_3
REMARK    2  A    between atoms: C_1  and  C_17
REMARK    3  A    between atoms: C_4  and  C_9
REMARK    4  A    between atoms: C_7  and  O_15
REMARK    5  A    between atoms: C_18  and  C_23
REMARK                            x       y       z     vdW  Elec       q    Type
REMARK                         _______ _______ _______ _____ _____    ______ ____
ROOT
ATOM      1  C   UNL     1      33.479 -11.919 -23.891  0.00  0.00    +0.086 C 
ATOM      2  C   UNL     1      34.699 -11.245 -24.550  0.00  0.00    +0.019 C 
ENDROOT
BRANCH   1   3
ATOM      3  C   UNL     1      32.823 -11.046 -22.875  0.00  0.00    -0.007 C 
ATOM      4  C   UNL     1      32.023  -8.872 -22.188  0.00  0.00    +0.003 C 
ATOM      5  C   UNL     1      32.636  -9.688 -23.138  0.00  0.00    -0.003 C 
ATOM      6  C   UNL     1      32.398 -11.587 -21.662  0.00  0.00    +0.034 C 
ATOM      7  C   UNL     1      31.785 -10.770 -20.712  0.00  0.00    +0.138 C 
ATOM      8  C   UNL     1      31.598  -9.413 -20.975  0.00  0.00    +0.037 C 
BRANCH   4   9
ATOM      9  C   UNL     1      31.827  -7.466 -22.460  0.00  0.00    +0.000 C 
ATOM     10  C   UNL     1      31.911  -6.535 -21.425  0.00  0.00    +0.000 C 
ATOM     11  C   UNL     1      31.555  -7.038 -23.760  0.00  0.00    +0.000 C 
ATOM     12  C   UNL     1      31.724  -5.179 -21.687  0.00  0.00    +0.000 C 
ATOM     13  C   UNL     1      31.367  -5.681 -24.024  0.00  0.00    +0.000 C 
ATOM     14  C   UNL     1      31.451  -4.752 -22.987  0.00  0.00    +0.000 C 
ENDBRANCH   4   9
BRANCH   7  15
ATOM     15  O   UNL     1      31.369 -11.299 -19.528  0.00  0.00    -0.471 OA
ATOM     16  C   UNL     1      31.464 -10.464 -18.375  0.00  0.00    +0.252 C 
ENDBRANCH   7  15
ENDBRANCH   1   3
BRANCH   1  17
ATOM     17  C   UNL     1      33.877 -13.236 -23.333  0.00  0.00    -0.087 C 
ATOM     18  C   UNL     1      34.217 -14.302 -22.894  0.00  0.00    -0.076 C 
BRANCH  18  23
ATOM     19  N   UNL     1      35.053 -16.997 -20.484  0.00  0.00    -0.336 NA
ATOM     20  N   UNL     1      35.402 -17.822 -22.721  0.00  0.00    -0.317 NA
ATOM     21  N   UNL     1      34.991 -16.435 -24.592  0.00  0.00    -0.334 N 
ATOM     22  N   UNL     1      35.805 -19.188 -20.856  0.00  0.00    -0.283 N 
ATOM     23  C   UNL     1      34.629 -15.569 -22.374  0.00  0.00    +0.179 C 
ATOM     24  C   UNL     1      34.672 -15.818 -21.018  0.00  0.00    +0.120 C 
ATOM     25  C   UNL     1      35.009 -16.617 -23.186  0.00  0.00    +0.186 C 
ATOM     26  C   UNL     1      34.285 -14.765 -20.029  0.00  0.00    +0.064 C 
ATOM     27  C   UNL     1      35.400 -17.940 -21.379  0.00  0.00    +0.196 C 
ATOM     28  H   UNL     1      35.258 -17.171 -25.187  0.00  0.00    +0.144 HD
ATOM     29  H   UNL     1      34.710 -15.570 -24.972  0.00  0.00    +0.144 HD
ATOM     30  H   UNL     1      35.823 -19.330 -19.882  0.00  0.00    +0.156 HD
ATOM     31  H   UNL     1      36.070 -19.915 -21.465  0.00  0.00    +0.156 HD
ENDBRANCH  18  23
ENDBRANCH   1  17
TORSDOF 5
ENDMDL
MODEL 8
REMARK VINA RESULT:      -9.3     10.791     13.840
REMARK  Name = 25093369
REMARK  5 active torsions:
REMARK  status: ('A' for Active; 'I' for Inactive)
REMARK    1  A    between atoms: C_1  and  C_3
REMARK    2  A    between atoms: C_1  and  C_17
REMARK    3  A    between atoms: C_4  and  C_9
REMARK    4  A    between atoms: C_7  and  O_15
REMARK    5  A    between atoms: C_18  and  C_23
REMARK                            x       y       z     vdW  Elec       q    Type
REMARK                         _______ _______ _______ _____ _____    ______ ____
ROOT
ATOM      1  C   UNL     1      32.752 -13.328 -24.239  0.00  0.00    +0.086 C 
ATOM      2  C   UNL     1      33.486 -12.986 -25.549  0.00  0.00    +0.019 C 
ENDROOT
BRANCH   1   3
ATOM      3  C   UNL     1      32.602 -12.146 -23.341  0.00  0.00    -0.007 C 
ATOM      4  C   UNL     1      32.949  -9.796 -22.901  0.00  0.00    +0.003 C 
ATOM      5  C   UNL     1      33.089 -10.901 -23.741  0.00  0.00    -0.003 C 
ATOM      6  C   UNL     1      31.977 -12.287 -22.102  0.00  0.00    +0.034 C 
ATOM      7  C   UNL     1      31.838 -11.182 -21.263  0.00  0.00    +0.138 C 
ATOM      8  C   UNL     1      32.324  -9.937 -21.662  0.00  0.00    +0.037 C 
BRANCH   4   9
ATOM      9  C   UNL     1      33.452  -8.505 -23.314  0.00  0.00    +0.000 C 
ATOM     10  C   UNL     1      34.821  -8.241 -23.268  0.00  0.00    +0.000 C 
ATOM     11  C   UNL     1      32.568  -7.523 -23.761  0.00  0.00    +0.000 C 
ATOM     12  C   UNL     1      35.306  -6.996 -23.667  0.00  0.00    +0.000 C 
ATOM     13  C   UNL     1      33.053  -6.277 -24.160  0.00  0.00    +0.000 C 
ATOM     14  C   UNL     1      34.422  -6.014 -24.114  0.00  0.00    +0.000 C 
ENDBRANCH   4   9
BRANCH   7  15
ATOM     15  O   UNL     1      31.226 -11.319 -20.054  0.00  0.00    -0.471 OA
ATOM     16  C   UNL     1      31.568 -10.373 -19.042  0.00  0.00    +0.252 C 
ENDBRANCH   7  15
ENDBRANCH   1   3
BRANCH   1  17
ATOM     17  C   UNL     1      33.431 -14.466 -23.568  0.00  0.00    -0.087 C 
ATOM     18  C   UNL     1      33.996 -15.385 -23.040  0.00  0.00    -0.076 C 
BRANCH  18  23
ATOM     19  N   UNL     1      35.602 -17.487 -20.437  0.00  0.00    -0.336 NA
ATOM     20  N   UNL     1      35.727 -18.640 -22.550  0.00  0.00    -0.317 NA
ATOM     21  N   UNL     1      34.823 -17.666 -24.506  0.00  0.00    -0.334 N 
ATOM     22  N   UNL     1      36.620 -19.594 -20.601  0.00  0.00    -0.283 N 
ATOM     23  C   UNL     1      34.676 -16.478 -22.416  0.00  0.00    +0.179 C 
ATOM     24  C   UNL     1      34.964 -16.478 -21.067  0.00  0.00    +0.120 C 
ATOM     25  C   UNL     1      35.085 -17.595 -23.115  0.00  0.00    +0.186 C 
ATOM     26  C   UNL     1      34.575 -15.327 -20.196  0.00  0.00    +0.064 C 
ATOM     27  C   UNL     1      35.950 -18.520 -21.227  0.00  0.00    +0.196 C 
ATOM     28  H   UNL     1      35.106 -18.454 -25.022  0.00  0.00    +0.144 HD
ATOM     29  H   UNL     1      34.355 -16.925 -24.957  0.00  0.00    +0.144 HD
ATOM     30  H   UNL     1      36.810 -19.560 -19.636  0.00  0.00    +0.156 HD
ATOM     31  H   UNL     1      36.898 -20.377 -21.131  0.00  0.00    +0.156 HD
ENDBRANCH  18  23
ENDBRANCH   1  17
TORSDOF 5
ENDMDL
MODEL 9
REMARK VINA RESULT:      -9.1     10.715     13.865
REMARK  Name = 25093369
REMARK  5 active torsions:
REMARK  status: ('A' for Active; 'I' for Inactive)
REMARK    1  A    between atoms: C_1  and  C_3
REMARK    2  A    between atoms: C_1  and  C_17
REMARK    3  A    between atoms: C_4  and  C_9
REMARK    4  A    between atoms: C_7  and  O_15
REMARK    5  A    between atoms: C_18  and  C_23
REMARK                            x       y       z     vdW  Elec       q    Type
REMARK                         _______ _______ _______ _____ _____    ______ ____
ROOT
ATOM      1  C   UNL     1      32.791 -13.309 -24.134  0.00  0.00    +0.086 C 
ATOM      2  C   UNL     1      33.510 -12.938 -25.446  0.00  0.00    +0.019 C 
ENDROOT
BRANCH   1   3
ATOM      3  C   UNL     1      32.637 -12.143 -23.217  0.00  0.00    -0.007 C 
ATOM      4  C   UNL     1      32.972  -9.798 -22.739  0.00  0.00    +0.003 C 
ATOM      5  C   UNL     1      33.115 -10.888 -23.598  0.00  0.00    -0.003 C 
ATOM      6  C   UNL     1      32.016 -12.307 -21.979  0.00  0.00    +0.034 C 
ATOM      7  C   UNL     1      31.873 -11.217 -21.121  0.00  0.00    +0.138 C 
ATOM      8  C   UNL     1      32.351  -9.963 -21.501  0.00  0.00    +0.037 C 
BRANCH   4   9
ATOM      9  C   UNL     1      33.466  -8.498 -23.133  0.00  0.00    +0.000 C 
ATOM     10  C   UNL     1      34.798  -8.343 -23.518  0.00  0.00    +0.000 C 
ATOM     11  C   UNL     1      32.610  -7.396 -23.128  0.00  0.00    +0.000 C 
ATOM     12  C   UNL     1      35.275  -7.090 -23.898  0.00  0.00    +0.000 C 
ATOM     13  C   UNL     1      33.087  -6.141 -23.508  0.00  0.00    +0.000 C 
ATOM     14  C   UNL     1      34.419  -5.988 -23.893  0.00  0.00    +0.000 C 
ENDBRANCH   4   9
BRANCH   7  15
ATOM     15  O   UNL     1      31.265 -11.377 -19.913  0.00  0.00    -0.471 OA
ATOM     16  C   UNL     1      31.212 -10.238 -19.057  0.00  0.00    +0.252 C 
ENDBRANCH   7  15
ENDBRANCH   1   3
BRANCH   1  17
ATOM     17  C   UNL     1      33.488 -14.450 -23.488  0.00  0.00    -0.087 C 
ATOM     18  C   UNL     1      34.033 -15.383 -22.963  0.00  0.00    -0.076 C 
BRANCH  18  23
ATOM     19  N   UNL     1      35.617 -18.707 -22.502  0.00  0.00    -0.336 NA
ATOM     20  N   UNL     1      35.605 -17.555 -20.386  0.00  0.00    -0.317 NA
ATOM     21  N   UNL     1      34.684 -15.384 -20.204  0.00  0.00    -0.334 N 
ATOM     22  N   UNL     1      36.516 -19.708 -20.581  0.00  0.00    -0.283 N 
ATOM     23  C   UNL     1      34.675 -16.498 -22.339  0.00  0.00    +0.179 C 
ATOM     24  C   UNL     1      35.011 -17.633 -23.049  0.00  0.00    +0.120 C 
ATOM     25  C   UNL     1      34.999 -16.515 -20.998  0.00  0.00    +0.186 C 
ATOM     26  C   UNL     1      34.715 -17.742 -24.511  0.00  0.00    +0.064 C 
ATOM     27  C   UNL     1      35.881 -18.602 -21.186  0.00  0.00    +0.196 C 
ATOM     28  H   UNL     1      34.908 -15.376 -19.246  0.00  0.00    +0.144 HD
ATOM     29  H   UNL     1      34.242 -14.604 -20.613  0.00  0.00    +0.144 HD
ATOM     30  H   UNL     1      36.741 -20.502 -21.118  0.00  0.00    +0.156 HD
ATOM     31  H   UNL     1      36.732 -19.686 -19.620  0.00  0.00    +0.156 HD
ENDBRANCH  18  23
ENDBRANCH   1  17
TORSDOF 5
ENDMDL
