MODEL 1
REMARK VINA RESULT:     -10.7      0.000      0.000
REMARK  Name = 11291932
REMARK  3 active torsions:
REMARK  status: ('A' for Active; 'I' for Inactive)
REMARK    1  A    between atoms: C_2  and  C_16
REMARK    2  A    between atoms: C_3  and  C_19
REMARK    3  A    between atoms: C_19  and  C_23
REMARK                            x       y       z     vdW  Elec       q    Type
REMARK                         _______ _______ _______ _____ _____    ______ ____
ROOT
ATOM      1  F   UNL     1      34.842  -7.494 -23.059  0.00  0.00    -0.204 F 
ATOM      2  C   UNL     1      32.992  -8.733 -22.233  0.00  0.00    +0.081 C 
ATOM      3  C   UNL     1      32.801 -11.073 -22.775  0.00  0.00    -0.016 C 
ATOM      4  C   UNL     1      32.304  -9.938 -22.136  0.00  0.00    +0.003 C 
ATOM      5  C   UNL     1      34.175  -8.653 -22.963  0.00  0.00    +0.144 C 
ATOM      6  C   UNL     1      33.985 -10.998 -23.508  0.00  0.00    -0.002 C 
ATOM      7  C   UNL     1      34.672  -9.788 -23.602  0.00  0.00    +0.029 C 
ENDROOT
BRANCH   2  16
ATOM      8  O   UNL     1      32.867  -7.339 -20.414  0.00  0.00    -0.270 OA
ATOM      9  N   UNL     1      31.570  -6.728 -22.263  0.00  0.00    -0.278 N 
ATOM     10  N   UNL     1      32.817  -4.967 -24.170  0.00  0.00    +0.385 N 
ATOM     11  C   UNL     1      31.041  -5.526 -21.620  0.00  0.00    +0.091 C 
ATOM     12  C   UNL     1      31.805  -4.262 -22.007  0.00  0.00    -0.002 C 
ATOM     13  C   UNL     1      31.215  -6.894 -23.677  0.00  0.00    +0.070 C 
ATOM     14  C   UNL     1      31.911  -4.024 -23.518  0.00  0.00    -0.080 C 
ATOM     15  C   UNL     1      32.184  -6.198 -24.635  0.00  0.00    -0.060 C 
ATOM     16  C   UNL     1      32.466  -7.540 -21.559  0.00  0.00    +0.251 C 
ATOM     17  H   UNL     1      33.548  -5.218 -23.505  0.00  0.00    -0.084 HD
ATOM     18  H   UNL     1      33.174  -4.495 -25.001  0.00  0.00    -0.084 HD
ENDBRANCH   2  16
BRANCH   3  19
ATOM     19  C   UNL     1      32.066 -12.367 -22.677  0.00  0.00    +0.074 C 
BRANCH  19  23
ATOM     20  O   UNL     1      34.852 -16.436 -25.110  0.00  0.00    -0.266 OA
ATOM     21  N   UNL     1      32.809 -13.582 -24.594  0.00  0.00    -0.174 NA
ATOM     22  N   UNL     1      33.498 -14.586 -25.184  0.00  0.00    -0.242 N 
ATOM     23  C   UNL     1      32.835 -13.487 -23.302  0.00  0.00    +0.083 A 
ATOM     24  C   UNL     1      33.580 -14.420 -22.434  0.00  0.00    +0.020 A 
ATOM     25  C   UNL     1      34.283 -15.446 -23.061  0.00  0.00    +0.059 A 
ATOM     26  C   UNL     1      33.602 -14.311 -21.042  0.00  0.00    +0.001 C 
ATOM     27  C   UNL     1      34.243 -15.543 -24.529  0.00  0.00    +0.273 A 
ATOM     28  C   UNL     1      35.011 -16.369 -22.305  0.00  0.00    +0.005 C 
ATOM     29  C   UNL     1      34.330 -15.232 -20.286  0.00  0.00    +0.000 C 
ATOM     30  C   UNL     1      35.033 -16.258 -20.915  0.00  0.00    +0.000 C 
ATOM     31  H   UNL     1      33.464 -14.638 -26.166  0.00  0.00    +0.192 HD
ENDBRANCH  19  23
ENDBRANCH   3  19
TORSDOF 3
ENDMDL
MODEL 2
REMARK VINA RESULT:     -10.6      1.523      2.123
REMARK  Name = 11291932
REMARK  3 active torsions:
REMARK  status: ('A' for Active; 'I' for Inactive)
REMARK    1  A    between atoms: C_2  and  C_16
REMARK    2  A    between atoms: C_3  and  C_19
REMARK    3  A    between atoms: C_19  and  C_23
REMARK                            x       y       z     vdW  Elec       q    Type
REMARK                         _______ _______ _______ _____ _____    ______ ____
ROOT
ATOM      1  F   UNL     1      34.893  -7.287 -22.944  0.00  0.00    -0.204 F 
ATOM      2  C   UNL     1      33.004  -8.551 -22.253  0.00  0.00    +0.081 C 
ATOM      3  C   UNL     1      32.831 -10.866 -22.900  0.00  0.00    -0.016 C 
ATOM      4  C   UNL     1      32.309  -9.755 -22.237  0.00  0.00    +0.003 C 
ATOM      5  C   UNL     1      34.219  -8.446 -22.926  0.00  0.00    +0.144 C 
ATOM      6  C   UNL     1      34.047 -10.766 -23.575  0.00  0.00    -0.002 C 
ATOM      7  C   UNL     1      34.741  -9.556 -23.588  0.00  0.00    +0.029 C 
ENDROOT
BRANCH   2  16
ATOM      8  O   UNL     1      32.817  -7.222 -20.391  0.00  0.00    -0.270 OA
ATOM      9  N   UNL     1      31.573  -6.552 -22.257  0.00  0.00    -0.278 N 
ATOM     10  N   UNL     1      32.867  -4.721 -24.063  0.00  0.00    +0.385 N 
ATOM     11  C   UNL     1      31.018  -5.376 -21.589  0.00  0.00    +0.091 C 
ATOM     12  C   UNL     1      31.787  -4.096 -21.909  0.00  0.00    -0.002 C 
ATOM     13  C   UNL     1      31.261  -6.671 -23.686  0.00  0.00    +0.070 C 
ATOM     14  C   UNL     1      31.937  -3.805 -23.406  0.00  0.00    -0.080 C 
ATOM     15  C   UNL     1      32.256  -5.937 -24.590  0.00  0.00    -0.060 C 
ATOM     16  C   UNL     1      32.451  -7.384 -21.555  0.00  0.00    +0.251 C 
ATOM     17  H   UNL     1      33.579  -4.991 -23.385  0.00  0.00    -0.084 HD
ATOM     18  H   UNL     1      33.246  -4.219 -24.866  0.00  0.00    -0.084 HD
ENDBRANCH   2  16
BRANCH   3  19
ATOM     19  C   UNL     1      32.089 -12.160 -22.888  0.00  0.00    +0.074 C 
BRANCH  19  23
ATOM     20  O   UNL     1      34.948 -16.062 -20.274  0.00  0.00    -0.266 OA
ATOM     21  N   UNL     1      32.992 -13.175 -20.924  0.00  0.00    -0.174 NA
ATOM     22  N   UNL     1      33.697 -14.140 -20.290  0.00  0.00    -0.242 N 
ATOM     23  C   UNL     1      32.874 -13.239 -22.213  0.00  0.00    +0.083 A 
ATOM     24  C   UNL     1      33.472 -14.313 -23.031  0.00  0.00    +0.020 A 
ATOM     25  C   UNL     1      34.192 -15.296 -22.358  0.00  0.00    +0.059 A 
ATOM     26  C   UNL     1      33.340 -14.373 -24.420  0.00  0.00    +0.001 C 
ATOM     27  C   UNL     1      34.319 -15.211 -20.895  0.00  0.00    +0.273 A 
ATOM     28  C   UNL     1      34.788 -16.345 -23.065  0.00  0.00    +0.005 C 
ATOM     29  C   UNL     1      33.933 -15.421 -25.128  0.00  0.00    +0.000 C 
ATOM     30  C   UNL     1      34.655 -16.404 -24.453  0.00  0.00    +0.000 C 
ATOM     31  H   UNL     1      33.773 -14.072 -19.311  0.00  0.00    +0.192 HD
ENDBRANCH  19  23
ENDBRANCH   3  19
TORSDOF 3
ENDMDL
MODEL 3
REMARK VINA RESULT:     -10.3     11.506     16.085
REMARK  Name = 11291932
REMARK  3 active torsions:
REMARK  status: ('A' for Active; 'I' for Inactive)
REMARK    1  A    between atoms: C_2  and  C_16
REMARK    2  A    between atoms: C_3  and  C_19
REMARK    3  A    between atoms: C_19  and  C_23
REMARK                            x       y       z     vdW  Elec       q    Type
REMARK                         _______ _______ _______ _____ _____    ______ ____
ROOT
ATOM      1  F   UNL     1      34.124 -25.027 -12.175  0.00  0.00    -0.204 F 
ATOM      2  C   UNL     1      34.678 -25.008 -14.485  0.00  0.00    +0.081 C 
ATOM      3  C   UNL     1      33.323 -23.730 -16.014  0.00  0.00    -0.016 C 
ATOM      4  C   UNL     1      34.409 -24.572 -15.778  0.00  0.00    +0.003 C 
ATOM      5  C   UNL     1      33.870 -24.609 -13.424  0.00  0.00    +0.144 C 
ATOM      6  C   UNL     1      32.510 -23.328 -14.955  0.00  0.00    -0.002 C 
ATOM      7  C   UNL     1      32.783 -23.768 -13.660  0.00  0.00    +0.029 C 
ENDROOT
BRANCH   2  16
ATOM      8  O   UNL     1      35.679 -27.072 -14.561  0.00  0.00    -0.270 OA
ATOM      9  N   UNL     1      36.977 -25.337 -13.679  0.00  0.00    -0.278 N 
ATOM     10  N   UNL     1      38.629 -23.900 -15.549  0.00  0.00    +0.385 N 
ATOM     11  C   UNL     1      38.136 -26.194 -13.436  0.00  0.00    +0.091 C 
ATOM     12  C   UNL     1      39.174 -26.116 -14.553  0.00  0.00    -0.002 C 
ATOM     13  C   UNL     1      37.191 -23.905 -13.438  0.00  0.00    +0.070 C 
ATOM     14  C   UNL     1      39.653 -24.695 -14.875  0.00  0.00    -0.080 C 
ATOM     15  C   UNL     1      37.745 -23.159 -14.654  0.00  0.00    -0.060 C 
ATOM     16  C   UNL     1      35.823 -25.893 -14.240  0.00  0.00    +0.251 C 
ATOM     17  H   UNL     1      38.056 -24.530 -16.111  0.00  0.00    -0.084 HD
ATOM     18  H   UNL     1      39.125 -23.204 -16.105  0.00  0.00    -0.084 HD
ENDBRANCH   2  16
BRANCH   3  19
ATOM     19  C   UNL     1      33.029 -23.261 -17.399  0.00  0.00    +0.074 C 
BRANCH  19  23
ATOM     20  O   UNL     1      37.426 -20.731 -19.519  0.00  0.00    -0.266 OA
ATOM     21  N   UNL     1      35.369 -22.795 -17.497  0.00  0.00    -0.174 NA
ATOM     22  N   UNL     1      36.445 -22.168 -18.025  0.00  0.00    -0.242 N 
ATOM     23  C   UNL     1      34.200 -22.554 -18.002  0.00  0.00    +0.083 A 
ATOM     24  C   UNL     1      33.978 -21.627 -19.130  0.00  0.00    +0.020 A 
ATOM     25  C   UNL     1      35.099 -20.993 -19.659  0.00  0.00    +0.059 A 
ATOM     26  C   UNL     1      32.715 -21.372 -19.668  0.00  0.00    +0.001 C 
ATOM     27  C   UNL     1      36.420 -21.275 -19.075  0.00  0.00    +0.273 A 
ATOM     28  C   UNL     1      34.968 -20.101 -20.728  0.00  0.00    +0.005 C 
ATOM     29  C   UNL     1      32.583 -20.483 -20.736  0.00  0.00    +0.000 C 
ATOM     30  C   UNL     1      33.706 -19.848 -21.264  0.00  0.00    +0.000 C 
ATOM     31  H   UNL     1      37.322 -22.367 -17.626  0.00  0.00    +0.192 HD
ENDBRANCH  19  23
ENDBRANCH   3  19
TORSDOF 3
ENDMDL
MODEL 4
REMARK VINA RESULT:     -10.1      2.224      3.035
REMARK  Name = 11291932
REMARK  3 active torsions:
REMARK  status: ('A' for Active; 'I' for Inactive)
REMARK    1  A    between atoms: C_2  and  C_16
REMARK    2  A    between atoms: C_3  and  C_19
REMARK    3  A    between atoms: C_19  and  C_23
REMARK                            x       y       z     vdW  Elec       q    Type
REMARK                         _______ _______ _______ _____ _____    ______ ____
ROOT
ATOM      1  F   UNL     1      31.593  -8.161 -18.890  0.00  0.00    -0.204 F 
ATOM      2  C   UNL     1      32.335  -8.997 -20.986  0.00  0.00    +0.081 C 
ATOM      3  C   UNL     1      31.884 -11.291 -21.570  0.00  0.00    -0.016 C 
ATOM      4  C   UNL     1      32.433 -10.050 -21.889  0.00  0.00    +0.003 C 
ATOM      5  C   UNL     1      31.690  -9.173 -19.765  0.00  0.00    +0.144 C 
ATOM      6  C   UNL     1      31.237 -11.473 -20.347  0.00  0.00    -0.002 C 
ATOM      7  C   UNL     1      31.141 -10.414 -19.445  0.00  0.00    +0.029 C 
ENDROOT
BRANCH   2  16
ATOM      8  O   UNL     1      34.010  -7.436 -20.829  0.00  0.00    -0.270 OA
ATOM      9  N   UNL     1      32.194  -6.855 -22.185  0.00  0.00    -0.278 N 
ATOM     10  N   UNL     1      32.406  -7.553 -24.971  0.00  0.00    +0.385 N 
ATOM     11  C   UNL     1      32.754  -5.555 -22.550  0.00  0.00    +0.091 C 
ATOM     12  C   UNL     1      33.476  -5.579 -23.895  0.00  0.00    -0.002 C 
ATOM     13  C   UNL     1      30.962  -7.230 -22.888  0.00  0.00    +0.070 C 
ATOM     14  C   UNL     1      32.631  -6.111 -25.058  0.00  0.00    -0.080 C 
ATOM     15  C   UNL     1      31.213  -7.938 -24.222  0.00  0.00    -0.060 C 
ATOM     16  C   UNL     1      32.914  -7.692 -21.326  0.00  0.00    +0.251 C 
ATOM     17  H   UNL     1      33.216  -7.975 -24.517  0.00  0.00    -0.084 HD
ATOM     18  H   UNL     1      32.264  -7.880 -25.926  0.00  0.00    -0.084 HD
ENDBRANCH   2  16
BRANCH   3  19
ATOM     19  C   UNL     1      31.988 -12.425 -22.533  0.00  0.00    +0.074 C 
BRANCH  19  23
ATOM     20  O   UNL     1      35.139 -16.413 -20.435  0.00  0.00    -0.266 OA
ATOM     21  N   UNL     1      33.032 -13.573 -20.718  0.00  0.00    -0.174 NA
ATOM     22  N   UNL     1      33.809 -14.558 -20.211  0.00  0.00    -0.242 N 
ATOM     23  C   UNL     1      32.851 -13.523 -22.000  0.00  0.00    +0.083 A 
ATOM     24  C   UNL     1      33.451 -14.489 -22.943  0.00  0.00    +0.020 A 
ATOM     25  C   UNL     1      34.246 -15.495 -22.400  0.00  0.00    +0.059 A 
ATOM     26  C   UNL     1      33.251 -14.427 -24.324  0.00  0.00    +0.001 C 
ATOM     27  C   UNL     1      34.444 -15.539 -20.943  0.00  0.00    +0.273 A 
ATOM     28  C   UNL     1      34.848 -16.445 -23.230  0.00  0.00    +0.005 C 
ATOM     29  C   UNL     1      33.851 -15.377 -25.154  0.00  0.00    +0.000 C 
ATOM     30  C   UNL     1      34.647 -16.383 -24.609  0.00  0.00    +0.000 C 
ATOM     31  H   UNL     1      33.932 -14.577 -19.235  0.00  0.00    +0.192 HD
ENDBRANCH  19  23
ENDBRANCH   3  19
TORSDOF 3
ENDMDL
MODEL 5
REMARK VINA RESULT:     -10.1      2.376      3.354
REMARK  Name = 11291932
REMARK  3 active torsions:
REMARK  status: ('A' for Active; 'I' for Inactive)
REMARK    1  A    between atoms: C_2  and  C_16
REMARK    2  A    between atoms: C_3  and  C_19
REMARK    3  A    between atoms: C_19  and  C_23
REMARK                            x       y       z     vdW  Elec       q    Type
REMARK                         _______ _______ _______ _____ _____    ______ ____
ROOT
ATOM      1  F   UNL     1      32.755  -7.049 -19.705  0.00  0.00    -0.204 F 
ATOM      2  C   UNL     1      31.813  -8.482 -21.349  0.00  0.00    +0.081 C 
ATOM      3  C   UNL     1      31.406 -10.795 -20.805  0.00  0.00    -0.016 C 
ATOM      4  C   UNL     1      31.359  -9.743 -21.720  0.00  0.00    +0.003 C 
ATOM      5  C   UNL     1      32.315  -8.262 -20.068  0.00  0.00    +0.144 C 
ATOM      6  C   UNL     1      31.908 -10.579 -19.522  0.00  0.00    -0.002 C 
ATOM      7  C   UNL     1      32.362  -9.314 -19.154  0.00  0.00    +0.029 C 
ENDROOT
BRANCH   2  16
ATOM      8  O   UNL     1      31.079  -6.407 -21.995  0.00  0.00    -0.270 OA
ATOM      9  N   UNL     1      32.492  -7.507 -23.500  0.00  0.00    -0.278 N 
ATOM     10  N   UNL     1      35.310  -6.986 -23.219  0.00  0.00    +0.385 N 
ATOM     11  C   UNL     1      32.469  -6.416 -24.474  0.00  0.00    +0.091 C 
ATOM     12  C   UNL     1      33.675  -5.488 -24.351  0.00  0.00    -0.002 C 
ATOM     13  C   UNL     1      33.421  -8.602 -23.803  0.00  0.00    +0.070 C 
ATOM     14  C   UNL     1      35.031  -6.199 -24.419  0.00  0.00    -0.080 C 
ATOM     15  C   UNL     1      34.836  -8.366 -23.271  0.00  0.00    -0.060 C 
ATOM     16  C   UNL     1      31.762  -7.378 -22.314  0.00  0.00    +0.251 C 
ATOM     17  H   UNL     1      34.863  -6.527 -22.426  0.00  0.00    -0.084 HD
ATOM     18  H   UNL     1      36.326  -7.034 -23.136  0.00  0.00    -0.084 HD
ENDBRANCH   2  16
BRANCH   3  19
ATOM     19  C   UNL     1      30.922 -12.149 -21.199  0.00  0.00    +0.074 C 
BRANCH  19  23
ATOM     20  O   UNL     1      34.815 -15.966 -20.481  0.00  0.00    -0.266 OA
ATOM     21  N   UNL     1      32.137 -13.720 -19.872  0.00  0.00    -0.174 NA
ATOM     22  N   UNL     1      33.098 -14.658 -19.706  0.00  0.00    -0.242 N 
ATOM     23  C   UNL     1      31.991 -13.183 -21.042  0.00  0.00    +0.083 A 
ATOM     24  C   UNL     1      32.821 -13.542 -22.210  0.00  0.00    +0.020 A 
ATOM     25  C   UNL     1      33.802 -14.511 -22.017  0.00  0.00    +0.059 A 
ATOM     26  C   UNL     1      32.657 -12.958 -23.468  0.00  0.00    +0.001 C 
ATOM     27  C   UNL     1      33.958 -15.111 -20.683  0.00  0.00    +0.273 A 
ATOM     28  C   UNL     1      34.628 -14.902 -23.075  0.00  0.00    +0.005 C 
ATOM     29  C   UNL     1      33.479 -13.349 -24.526  0.00  0.00    +0.000 C 
ATOM     30  C   UNL     1      34.462 -14.318 -24.331  0.00  0.00    +0.000 C 
ATOM     31  H   UNL     1      33.190 -15.052 -18.808  0.00  0.00    +0.192 HD
ENDBRANCH  19  23
ENDBRANCH   3  19
TORSDOF 3
ENDMDL
MODEL 6
REMARK VINA RESULT:      -9.8      1.900      2.728
REMARK  Name = 11291932
REMARK  3 active torsions:
REMARK  status: ('A' for Active; 'I' for Inactive)
REMARK    1  A    between atoms: C_2  and  C_16
REMARK    2  A    between atoms: C_3  and  C_19
REMARK    3  A    between atoms: C_19  and  C_23
REMARK                            x       y       z     vdW  Elec       q    Type
REMARK                         _______ _______ _______ _____ _____    ______ ____
ROOT
ATOM      1  F   UNL     1      32.501  -6.661 -19.899  0.00  0.00    -0.204 F 
ATOM      2  C   UNL     1      31.839  -8.482 -21.273  0.00  0.00    +0.081 C 
ATOM      3  C   UNL     1      31.783 -10.704 -20.341  0.00  0.00    -0.016 C 
ATOM      4  C   UNL     1      31.597  -9.844 -21.423  0.00  0.00    +0.003 C 
ATOM      5  C   UNL     1      32.265  -7.972 -20.049  0.00  0.00    +0.144 C 
ATOM      6  C   UNL     1      32.210 -10.198 -19.114  0.00  0.00    -0.002 C 
ATOM      7  C   UNL     1      32.451  -8.833 -18.968  0.00  0.00    +0.029 C 
ENDROOT
BRANCH   2  16
ATOM      8  O   UNL     1      30.793  -6.701 -22.273  0.00  0.00    -0.270 OA
ATOM      9  N   UNL     1      32.430  -7.776 -23.552  0.00  0.00    -0.278 N 
ATOM     10  N   UNL     1      35.107  -6.737 -23.331  0.00  0.00    +0.385 N 
ATOM     11  C   UNL     1      32.264  -6.883 -24.697  0.00  0.00    +0.091 C 
ATOM     12  C   UNL     1      33.291  -5.753 -24.721  0.00  0.00    -0.002 C 
ATOM     13  C   UNL     1      33.541  -8.730 -23.653  0.00  0.00    +0.070 C 
ATOM     14  C   UNL     1      34.749  -6.221 -24.651  0.00  0.00    -0.080 C 
ATOM     15  C   UNL     1      34.875  -8.168 -23.153  0.00  0.00    -0.060 C 
ATOM     16  C   UNL     1      31.642  -7.579 -22.413  0.00  0.00    +0.251 C 
ATOM     17  H   UNL     1      34.557  -6.237 -22.634  0.00  0.00    -0.084 HD
ATOM     18  H   UNL     1      36.112  -6.595 -23.230  0.00  0.00    -0.084 HD
ENDBRANCH   2  16
BRANCH   3  19
ATOM     19  C   UNL     1      31.527 -12.165 -20.497  0.00  0.00    +0.074 C 
BRANCH  19  23
ATOM     20  O   UNL     1      34.029 -14.114 -24.988  0.00  0.00    -0.266 OA
ATOM     21  N   UNL     1      31.981 -12.170 -22.842  0.00  0.00    -0.174 NA
ATOM     22  N   UNL     1      32.602 -12.656 -23.941  0.00  0.00    -0.242 N 
ATOM     23  C   UNL     1      32.226 -12.723 -21.695  0.00  0.00    +0.083 A 
ATOM     24  C   UNL     1      33.150 -13.861 -21.524  0.00  0.00    +0.020 A 
ATOM     25  C   UNL     1      33.779 -14.345 -22.668  0.00  0.00    +0.059 A 
ATOM     26  C   UNL     1      33.408 -14.452 -20.284  0.00  0.00    +0.001 C 
ATOM     27  C   UNL     1      33.491 -13.709 -23.963  0.00  0.00    +0.273 A 
ATOM     28  C   UNL     1      34.668 -15.422 -22.584  0.00  0.00    +0.005 C 
ATOM     29  C   UNL     1      34.296 -15.526 -20.200  0.00  0.00    +0.000 C 
ATOM     30  C   UNL     1      34.924 -16.009 -21.346  0.00  0.00    +0.000 C 
ATOM     31  H   UNL     1      32.401 -12.220 -24.800  0.00  0.00    +0.192 HD
ENDBRANCH  19  23
ENDBRANCH   3  19
TORSDOF 3
ENDMDL
MODEL 7
REMARK VINA RESULT:      -9.7      2.269      3.333
REMARK  Name = 11291932
REMARK  3 active torsions:
REMARK  status: ('A' for Active; 'I' for Inactive)
REMARK    1  A    between atoms: C_2  and  C_16
REMARK    2  A    between atoms: C_3  and  C_19
REMARK    3  A    between atoms: C_19  and  C_23
REMARK                            x       y       z     vdW  Elec       q    Type
REMARK                         _______ _______ _______ _____ _____    ______ ____
ROOT
ATOM      1  F   UNL     1      30.523  -9.409 -21.478  0.00  0.00    -0.204 F 
ATOM      2  C   UNL     1      32.144  -9.952 -23.126  0.00  0.00    +0.081 C 
ATOM      3  C   UNL     1      33.005 -12.201 -23.240  0.00  0.00    -0.016 C 
ATOM      4  C   UNL     1      32.980 -10.892 -23.721  0.00  0.00    +0.003 C 
ATOM      5  C   UNL     1      31.330 -10.310 -22.054  0.00  0.00    +0.144 C 
ATOM      6  C   UNL     1      32.192 -12.564 -22.166  0.00  0.00    -0.002 C 
ATOM      7  C   UNL     1      31.355 -11.619 -21.574  0.00  0.00    +0.029 C 
ENDROOT
BRANCH   2  16
ATOM      8  O   UNL     1      31.329  -8.346 -24.548  0.00  0.00    -0.270 OA
ATOM      9  N   UNL     1      32.979  -7.642 -23.046  0.00  0.00    -0.278 N 
ATOM     10  N   UNL     1      32.051  -6.609 -20.523  0.00  0.00    +0.385 N 
ATOM     11  C   UNL     1      32.967  -6.261 -23.525  0.00  0.00    +0.091 C 
ATOM     12  C   UNL     1      32.097  -5.345 -22.667  0.00  0.00    -0.002 C 
ATOM     13  C   UNL     1      33.809  -7.891 -21.862  0.00  0.00    +0.070 C 
ATOM     14  C   UNL     1      32.442  -5.360 -21.174  0.00  0.00    -0.080 C 
ATOM     15  C   UNL     1      33.074  -7.651 -20.541  0.00  0.00    -0.060 C 
ATOM     16  C   UNL     1      32.120  -8.576 -23.635  0.00  0.00    +0.251 C 
ATOM     17  H   UNL     1      31.223  -6.969 -20.997  0.00  0.00    -0.084 HD
ATOM     18  H   UNL     1      31.888  -6.384 -19.542  0.00  0.00    -0.084 HD
ENDBRANCH   2  16
BRANCH   3  19
ATOM     19  C   UNL     1      33.901 -13.212 -23.872  0.00  0.00    +0.074 C 
BRANCH  19  23
ATOM     20  O   UNL     1      35.283 -17.093 -20.231  0.00  0.00    -0.266 OA
ATOM     21  N   UNL     1      34.530 -13.948 -21.689  0.00  0.00    -0.174 NA
ATOM     22  N   UNL     1      34.869 -14.911 -20.801  0.00  0.00    -0.242 N 
ATOM     23  C   UNL     1      34.273 -14.295 -22.911  0.00  0.00    +0.083 A 
ATOM     24  C   UNL     1      34.331 -15.691 -23.388  0.00  0.00    +0.020 A 
ATOM     25  C   UNL     1      34.681 -16.666 -22.457  0.00  0.00    +0.059 A 
ATOM     26  C   UNL     1      34.053 -16.056 -24.708  0.00  0.00    +0.001 C 
ATOM     27  C   UNL     1      34.971 -16.258 -21.074  0.00  0.00    +0.273 A 
ATOM     28  C   UNL     1      34.757 -18.010 -22.835  0.00  0.00    +0.005 C 
ATOM     29  C   UNL     1      34.128 -17.398 -25.086  0.00  0.00    +0.000 C 
ATOM     30  C   UNL     1      34.479 -18.372 -24.153  0.00  0.00    +0.000 C 
ATOM     31  H   UNL     1      35.059 -14.624 -19.878  0.00  0.00    +0.192 HD
ENDBRANCH  19  23
ENDBRANCH   3  19
TORSDOF 3
ENDMDL
MODEL 8
REMARK VINA RESULT:      -9.6      3.814      5.586
REMARK  Name = 11291932
REMARK  3 active torsions:
REMARK  status: ('A' for Active; 'I' for Inactive)
REMARK    1  A    between atoms: C_2  and  C_16
REMARK    2  A    between atoms: C_3  and  C_19
REMARK    3  A    between atoms: C_19  and  C_23
REMARK                            x       y       z     vdW  Elec       q    Type
REMARK                         _______ _______ _______ _____ _____    ______ ____
ROOT
ATOM      1  F   UNL     1      36.083  -5.663 -24.739  0.00  0.00    -0.204 F 
ATOM      2  C   UNL     1      33.725  -5.950 -24.785  0.00  0.00    +0.081 C 
ATOM      3  C   UNL     1      32.716  -7.661 -23.421  0.00  0.00    -0.016 C 
ATOM      4  C   UNL     1      32.591  -6.622 -24.342  0.00  0.00    +0.003 C 
ATOM      5  C   UNL     1      34.986  -6.307 -24.315  0.00  0.00    +0.144 C 
ATOM      6  C   UNL     1      33.977  -8.023 -22.947  0.00  0.00    -0.002 C 
ATOM      7  C   UNL     1      35.111  -7.347 -23.393  0.00  0.00    +0.029 C 
ENDROOT
BRANCH   2  16
ATOM      8  O   UNL     1      33.371  -3.739 -25.290  0.00  0.00    -0.270 OA
ATOM      9  N   UNL     1      33.727  -5.161 -27.114  0.00  0.00    -0.278 N 
ATOM     10  N   UNL     1      36.454  -5.454 -27.990  0.00  0.00    +0.385 N 
ATOM     11  C   UNL     1      33.609  -4.088 -28.100  0.00  0.00    +0.091 C 
ATOM     12  C   UNL     1      34.963  -3.536 -28.539  0.00  0.00    -0.002 C 
ATOM     13  C   UNL     1      34.134  -6.466 -27.647  0.00  0.00    +0.070 C 
ATOM     14  C   UNL     1      35.941  -4.597 -29.058  0.00  0.00    -0.080 C 
ATOM     15  C   UNL     1      35.652  -6.645 -27.727  0.00  0.00    -0.060 C 
ATOM     16  C   UNL     1      33.590  -4.857 -25.755  0.00  0.00    +0.251 C 
ATOM     17  H   UNL     1      36.496  -4.903 -27.133  0.00  0.00    -0.084 HD
ATOM     18  H   UNL     1      37.368  -5.785 -28.301  0.00  0.00    -0.084 HD
ENDBRANCH   2  16
BRANCH   3  19
ATOM     19  C   UNL     1      31.504  -8.387 -22.944  0.00  0.00    +0.074 C 
BRANCH  19  23
ATOM     20  O   UNL     1      32.112 -10.044 -17.736  0.00  0.00    -0.266 OA
ATOM     21  N   UNL     1      31.696  -7.988 -20.597  0.00  0.00    -0.174 NA
ATOM     22  N   UNL     1      31.846  -8.406 -19.319  0.00  0.00    -0.242 N 
ATOM     23  C   UNL     1      31.671  -8.876 -21.541  0.00  0.00    +0.083 A 
ATOM     24  C   UNL     1      31.798 -10.326 -21.295  0.00  0.00    +0.020 A 
ATOM     25  C   UNL     1      31.950 -10.734 -19.972  0.00  0.00    +0.059 A 
ATOM     26  C   UNL     1      31.771 -11.276 -22.318  0.00  0.00    +0.001 C 
ATOM     27  C   UNL     1      31.978  -9.716 -18.911  0.00  0.00    +0.273 A 
ATOM     28  C   UNL     1      32.077 -12.091 -19.661  0.00  0.00    +0.005 C 
ATOM     29  C   UNL     1      31.896 -12.632 -22.009  0.00  0.00    +0.000 C 
ATOM     30  C   UNL     1      32.049 -13.039 -20.684  0.00  0.00    +0.000 C 
ATOM     31  H   UNL     1      31.861  -7.714 -18.619  0.00  0.00    +0.192 HD
ENDBRANCH  19  23
ENDBRANCH   3  19
TORSDOF 3
ENDMDL
MODEL 9
REMARK VINA RESULT:      -9.5     11.175     15.601
REMARK  Name = 11291932
REMARK  3 active torsions:
REMARK  status: ('A' for Active; 'I' for Inactive)
REMARK    1  A    between atoms: C_2  and  C_16
REMARK    2  A    between atoms: C_3  and  C_19
REMARK    3  A    between atoms: C_19  and  C_23
REMARK                            x       y       z     vdW  Elec       q    Type
REMARK                         _______ _______ _______ _____ _____    ______ ____
ROOT
ATOM      1  F   UNL     1      31.967 -23.349 -12.771  0.00  0.00    -0.204 F 
ATOM      2  C   UNL     1      33.867 -23.900 -14.086  0.00  0.00    +0.081 C 
ATOM      3  C   UNL     1      33.762 -23.636 -16.480  0.00  0.00    -0.016 C 
ATOM      4  C   UNL     1      34.472 -23.997 -15.335  0.00  0.00    +0.003 C 
ATOM      5  C   UNL     1      32.556 -23.444 -13.971  0.00  0.00    +0.144 C 
ATOM      6  C   UNL     1      32.449 -23.179 -16.370  0.00  0.00    -0.002 C 
ATOM      7  C   UNL     1      31.846 -23.083 -15.116  0.00  0.00    +0.029 C 
ENDROOT
BRANCH   2  16
ATOM      8  O   UNL     1      34.031 -25.009 -12.084  0.00  0.00    -0.270 OA
ATOM      9  N   UNL     1      35.924 -23.803 -12.745  0.00  0.00    -0.278 N 
ATOM     10  N   UNL     1      37.881 -25.245 -14.289  0.00  0.00    +0.385 N 
ATOM     11  C   UNL     1      36.698 -24.178 -11.562  0.00  0.00    +0.091 C 
ATOM     12  C   UNL     1      37.628 -25.362 -11.815  0.00  0.00    -0.002 C 
ATOM     13  C   UNL     1      36.663 -23.060 -13.772  0.00  0.00    +0.070 C 
ATOM     14  C   UNL     1      38.577 -25.181 -13.005  0.00  0.00    -0.080 C 
ATOM     15  C   UNL     1      37.384 -23.962 -14.777  0.00  0.00    -0.060 C 
ATOM     16  C   UNL     1      34.617 -24.281 -12.884  0.00  0.00    +0.251 C 
ATOM     17  H   UNL     1      37.086 -25.876 -14.189  0.00  0.00    -0.084 HD
ATOM     18  H   UNL     1      38.567 -25.566 -14.972  0.00  0.00    -0.084 HD
ENDBRANCH   2  16
BRANCH   3  19
ATOM     19  C   UNL     1      34.406 -23.739 -17.821  0.00  0.00    +0.074 C 
BRANCH  19  23
ATOM     20  O   UNL     1      32.633 -19.743 -21.156  0.00  0.00    -0.266 OA
ATOM     21  N   UNL     1      32.698 -22.567 -19.010  0.00  0.00    -0.174 NA
ATOM     22  N   UNL     1      32.272 -21.580 -19.831  0.00  0.00    -0.242 N 
ATOM     23  C   UNL     1      33.962 -22.639 -18.732  0.00  0.00    +0.083 A 
ATOM     24  C   UNL     1      34.966 -21.699 -19.266  0.00  0.00    +0.020 A 
ATOM     25  C   UNL     1      34.506 -20.690 -20.109  0.00  0.00    +0.059 A 
ATOM     26  C   UNL     1      36.327 -21.785 -18.962  0.00  0.00    +0.001 C 
ATOM     27  C   UNL     1      33.069 -20.620 -20.417  0.00  0.00    +0.273 A 
ATOM     28  C   UNL     1      35.398 -19.762 -20.654  0.00  0.00    +0.005 C 
ATOM     29  C   UNL     1      37.219 -20.857 -19.504  0.00  0.00    +0.000 C 
ATOM     30  C   UNL     1      36.756 -19.849 -20.348  0.00  0.00    +0.000 C 
ATOM     31  H   UNL     1      31.308 -21.544 -20.028  0.00  0.00    +0.192 HD
ENDBRANCH  19  23
ENDBRANCH   3  19
TORSDOF 3
ENDMDL
