MODEL 1
REMARK VINA RESULT:     -12.6      0.000      0.000
REMARK  Name = 10407120
REMARK  4 active torsions:
REMARK  status: ('A' for Active; 'I' for Inactive)
REMARK    1  A    between atoms: N_2  and  C_19
REMARK    2  A    between atoms: C_3  and  C_6
REMARK    3  A    between atoms: C_5  and  C_16
REMARK    4  A    between atoms: C_19  and  C_21
REMARK                            x       y       z     vdW  Elec       q    Type
REMARK                         _______ _______ _______ _____ _____    ______ ____
ROOT
ATOM      1  O   UNL     1      33.784 -16.417 -25.466  0.00  0.00    -0.270 OA
ATOM      2  N   UNL     1      34.684 -17.303 -23.515  0.00  0.00    -0.267 N 
ATOM      3  C   UNL     1      34.174 -16.270 -24.307  0.00  0.00    +0.250 C 
ATOM      4  C   UNL     1      34.774 -18.648 -24.067  0.00  0.00    +0.116 C 
ENDROOT
BRANCH   3   6
ATOM      5  C   UNL     1      32.979 -14.228 -23.598  0.00  0.00    +0.006 C 
ATOM      6  C   UNL     1      34.143 -14.915 -23.680  0.00  0.00    +0.058 C 
BRANCH   5  16
ATOM      7  O   UNL     1      31.715  -7.545 -19.982  0.00  0.00    -0.275 OA
ATOM      8  N   UNL     1      32.460  -9.035 -21.563  0.00  0.00    -0.270 N 
ATOM      9  N   UNL     1      33.322 -10.535 -23.176  0.00  0.00    -0.229 NA
ATOM     10  C   UNL     1      31.054 -11.092 -20.214  0.00  0.00    +0.039 C 
ATOM     11  C   UNL     1      31.942 -11.386 -21.384  0.00  0.00    +0.010 C 
ATOM     12  C   UNL     1      31.552  -9.877 -19.449  0.00  0.00    +0.090 C 
ATOM     13  C   UNL     1      32.590 -10.349 -22.052  0.00  0.00    +0.130 C 
ATOM     14  C   UNL     1      32.065 -12.677 -21.901  0.00  0.00    +0.000 C 
ATOM     15  C   UNL     1      31.878  -8.707 -20.355  0.00  0.00    +0.227 C 
ATOM     16  C   UNL     1      32.829 -12.896 -23.041  0.00  0.00    +0.019 C 
ATOM     17  C   UNL     1      33.429 -11.801 -23.637  0.00  0.00    +0.100 C 
ATOM     18  H   UNL     1      32.807  -8.301 -22.119  0.00  0.00    +0.156 HD
ENDBRANCH   5  16
ENDBRANCH   3   6
BRANCH   2  19
ATOM     19  C   UNL     1      35.184 -17.147 -22.150  0.00  0.00    +0.158 C 
BRANCH  19  21
ATOM     20  O   UNL     1      33.986 -18.920 -21.065  0.00  0.00    -0.456 OA
ATOM     21  C   UNL     1      35.200 -18.450 -21.405  0.00  0.00    +0.139 A 
ATOM     22  C   UNL     1      36.209 -19.259 -21.003  0.00  0.00    +0.013 A 
ATOM     23  C   UNL     1      35.581 -20.348 -20.343  0.00  0.00    +0.033 A 
ATOM     24  C   UNL     1      34.215 -20.092 -20.408  0.00  0.00    +0.145 A 
ATOM     25  C   UNL     1      37.658 -19.060 -21.203  0.00  0.00    +0.034 C 
ATOM     26  C   UNL     1      36.015 -21.520 -19.700  0.00  0.00    +0.003 C 
ATOM     27  C   UNL     1      33.237 -20.928 -19.874  0.00  0.00    +0.037 C 
ATOM     28  C   UNL     1      35.054 -22.381 -19.151  0.00  0.00    +0.000 C 
ATOM     29  C   UNL     1      33.691 -22.087 -19.237  0.00  0.00    +0.003 C 
ENDBRANCH  19  21
ENDBRANCH   2  19
TORSDOF 4
ENDMDL
MODEL 2
REMARK VINA RESULT:     -12.5      2.385      9.519
REMARK  Name = 10407120
REMARK  4 active torsions:
REMARK  status: ('A' for Active; 'I' for Inactive)
REMARK    1  A    between atoms: N_2  and  C_19
REMARK    2  A    between atoms: C_3  and  C_6
REMARK    3  A    between atoms: C_5  and  C_16
REMARK    4  A    between atoms: C_19  and  C_21
REMARK                            x       y       z     vdW  Elec       q    Type
REMARK                         _______ _______ _______ _____ _____    ______ ____
ROOT
ATOM      1  O   UNL     1      33.467 -16.831 -25.351  0.00  0.00    -0.270 OA
ATOM      2  N   UNL     1      33.984 -14.749 -24.455  0.00  0.00    -0.267 N 
ATOM      3  C   UNL     1      33.958 -16.146 -24.452  0.00  0.00    +0.250 C 
ATOM      4  C   UNL     1      33.401 -14.026 -25.578  0.00  0.00    +0.116 C 
ENDROOT
BRANCH   3   6
ATOM      5  C   UNL     1      34.572 -18.163 -23.165  0.00  0.00    +0.006 C 
ATOM      6  C   UNL     1      34.547 -16.812 -23.253  0.00  0.00    +0.058 C 
BRANCH   5  16
ATOM      7  O   UNL     1      36.520 -22.617 -17.190  0.00  0.00    -0.275 OA
ATOM      8  N   UNL     1      36.677 -21.013 -18.827  0.00  0.00    -0.270 N 
ATOM      9  N   UNL     1      36.923 -19.408 -20.546  0.00  0.00    -0.229 NA
ATOM     10  C   UNL     1      33.965 -21.497 -19.490  0.00  0.00    +0.039 C 
ATOM     11  C   UNL     1      34.815 -20.565 -20.297  0.00  0.00    +0.010 C 
ATOM     12  C   UNL     1      34.809 -22.599 -18.869  0.00  0.00    +0.090 C 
ATOM     13  C   UNL     1      36.135 -20.316 -19.924  0.00  0.00    +0.130 C 
ATOM     14  C   UNL     1      34.292 -19.844 -21.371  0.00  0.00    +0.000 C 
ATOM     15  C   UNL     1      36.056 -22.069 -18.189  0.00  0.00    +0.227 C 
ATOM     16  C   UNL     1      35.088 -18.922 -22.040  0.00  0.00    +0.019 C 
ATOM     17  C   UNL     1      36.384 -18.741 -21.591  0.00  0.00    +0.100 C 
ATOM     18  H   UNL     1      37.558 -20.730 -18.492  0.00  0.00    +0.156 HD
ENDBRANCH   5  16
ENDBRANCH   3   6
BRANCH   2  19
ATOM     19  C   UNL     1      34.530 -13.916 -23.385  0.00  0.00    +0.158 C 
BRANCH  19  21
ATOM     20  O   UNL     1      33.726 -11.677 -23.705  0.00  0.00    -0.456 OA
ATOM     21  C   UNL     1      33.589 -12.814 -22.996  0.00  0.00    +0.139 A 
ATOM     22  C   UNL     1      32.614 -12.734 -22.060  0.00  0.00    +0.013 A 
ATOM     23  C   UNL     1      32.077 -11.425 -22.181  0.00  0.00    +0.033 A 
ATOM     24  C   UNL     1      32.796 -10.816 -23.205  0.00  0.00    +0.145 A 
ATOM     25  C   UNL     1      32.190 -13.782 -21.109  0.00  0.00    +0.034 C 
ATOM     26  C   UNL     1      31.067 -10.689 -21.539  0.00  0.00    +0.003 C 
ATOM     27  C   UNL     1      32.578  -9.512 -23.644  0.00  0.00    +0.037 C 
ATOM     28  C   UNL     1      30.825  -9.373 -21.958  0.00  0.00    +0.000 C 
ATOM     29  C   UNL     1      31.569  -8.797 -22.991  0.00  0.00    +0.003 C 
ENDBRANCH  19  21
ENDBRANCH   2  19
TORSDOF 4
ENDMDL
MODEL 3
REMARK VINA RESULT:     -12.3      2.578      9.467
REMARK  Name = 10407120
REMARK  4 active torsions:
REMARK  status: ('A' for Active; 'I' for Inactive)
REMARK    1  A    between atoms: N_2  and  C_19
REMARK    2  A    between atoms: C_3  and  C_6
REMARK    3  A    between atoms: C_5  and  C_16
REMARK    4  A    between atoms: C_19  and  C_21
REMARK                            x       y       z     vdW  Elec       q    Type
REMARK                         _______ _______ _______ _____ _____    ______ ____
ROOT
ATOM      1  O   UNL     1      34.051 -17.732 -25.067  0.00  0.00    -0.270 OA
ATOM      2  N   UNL     1      34.341 -15.753 -23.883  0.00  0.00    -0.267 N 
ATOM      3  C   UNL     1      34.406 -17.140 -24.047  0.00  0.00    +0.250 C 
ATOM      4  C   UNL     1      33.826 -14.929 -24.969  0.00  0.00    +0.116 C 
ENDROOT
BRANCH   3   6
ATOM      5  C   UNL     1      34.242 -19.004 -22.435  0.00  0.00    +0.006 C 
ATOM      6  C   UNL     1      34.916 -17.917 -22.879  0.00  0.00    +0.058 C 
BRANCH   5  16
ATOM      7  O   UNL     1      35.387 -23.583 -16.348  0.00  0.00    -0.275 OA
ATOM      8  N   UNL     1      35.827 -22.094 -18.040  0.00  0.00    -0.270 N 
ATOM      9  N   UNL     1      36.353 -20.624 -19.817  0.00  0.00    -0.229 NA
ATOM     10  C   UNL     1      33.058 -22.035 -18.640  0.00  0.00    +0.039 C 
ATOM     11  C   UNL     1      34.061 -21.320 -19.493  0.00  0.00    +0.010 C 
ATOM     12  C   UNL     1      33.676 -23.267 -17.997  0.00  0.00    +0.090 C 
ATOM     13  C   UNL     1      35.412 -21.333 -19.151  0.00  0.00    +0.130 C 
ATOM     14  C   UNL     1      33.669 -20.540 -20.582  0.00  0.00    +0.000 C 
ATOM     15  C   UNL     1      35.020 -22.982 -17.357  0.00  0.00    +0.227 C 
ATOM     16  C   UNL     1      34.619 -19.819 -21.295  0.00  0.00    +0.019 C 
ATOM     17  C   UNL     1      35.935 -19.892 -20.874  0.00  0.00    +0.100 C 
ATOM     18  H   UNL     1      36.755 -21.985 -17.730  0.00  0.00    +0.156 HD
ENDBRANCH   5  16
ENDBRANCH   3   6
BRANCH   2  19
ATOM     19  C   UNL     1      34.724 -15.031 -22.671  0.00  0.00    +0.158 C 
BRANCH  19  21
ATOM     20  O   UNL     1      33.838 -12.872 -23.229  0.00  0.00    -0.456 OA
ATOM     21  C   UNL     1      33.780 -13.905 -22.367  0.00  0.00    +0.139 A 
ATOM     22  C   UNL     1      32.867 -13.718 -21.384  0.00  0.00    +0.013 A 
ATOM     23  C   UNL     1      32.288 -12.447 -21.640  0.00  0.00    +0.033 A 
ATOM     24  C   UNL     1      32.919 -11.969 -22.785  0.00  0.00    +0.145 A 
ATOM     25  C   UNL     1      32.538 -14.635 -20.275  0.00  0.00    +0.034 C 
ATOM     26  C   UNL     1      31.302 -11.650 -21.034  0.00  0.00    +0.003 C 
ATOM     27  C   UNL     1      32.636 -10.740 -23.377  0.00  0.00    +0.037 C 
ATOM     28  C   UNL     1      30.996 -10.408 -21.606  0.00  0.00    +0.000 C 
ATOM     29  C   UNL     1      31.653  -9.963 -22.756  0.00  0.00    +0.003 C 
ENDBRANCH  19  21
ENDBRANCH   2  19
TORSDOF 4
ENDMDL
MODEL 4
REMARK VINA RESULT:     -11.9      2.818      9.550
REMARK  Name = 10407120
REMARK  4 active torsions:
REMARK  status: ('A' for Active; 'I' for Inactive)
REMARK    1  A    between atoms: N_2  and  C_19
REMARK    2  A    between atoms: C_3  and  C_6
REMARK    3  A    between atoms: C_5  and  C_16
REMARK    4  A    between atoms: C_19  and  C_21
REMARK                            x       y       z     vdW  Elec       q    Type
REMARK                         _______ _______ _______ _____ _____    ______ ____
ROOT
ATOM      1  O   UNL     1      34.533 -18.114 -24.711  0.00  0.00    -0.270 OA
ATOM      2  N   UNL     1      34.656 -16.197 -23.402  0.00  0.00    -0.267 N 
ATOM      3  C   UNL     1      34.692 -17.579 -23.613  0.00  0.00    +0.250 C 
ATOM      4  C   UNL     1      34.418 -15.308 -24.531  0.00  0.00    +0.116 C 
ENDROOT
BRANCH   3   6
ATOM      5  C   UNL     1      34.020 -19.388 -22.072  0.00  0.00    +0.006 C 
ATOM      6  C   UNL     1      34.911 -18.423 -22.402  0.00  0.00    +0.058 C 
BRANCH   5  16
ATOM      7  O   UNL     1      35.367 -23.808 -15.909  0.00  0.00    -0.275 OA
ATOM      8  N   UNL     1      34.220 -22.738 -17.587  0.00  0.00    -0.270 N 
ATOM      9  N   UNL     1      32.981 -21.592 -19.244  0.00  0.00    -0.229 NA
ATOM     10  C   UNL     1      36.697 -21.861 -18.650  0.00  0.00    +0.039 C 
ATOM     11  C   UNL     1      35.391 -21.404 -19.225  0.00  0.00    +0.010 C 
ATOM     12  C   UNL     1      36.562 -22.151 -17.164  0.00  0.00    +0.090 C 
ATOM     13  C   UNL     1      34.189 -21.883 -18.706  0.00  0.00    +0.130 C 
ATOM     14  C   UNL     1      35.337 -20.579 -20.349  0.00  0.00    +0.000 C 
ATOM     15  C   UNL     1      35.351 -23.004 -16.841  0.00  0.00    +0.227 C 
ATOM     16  C   UNL     1      34.107 -20.249 -20.907  0.00  0.00    +0.019 C 
ATOM     17  C   UNL     1      32.970 -20.779 -20.324  0.00  0.00    +0.100 C 
ATOM     18  H   UNL     1      33.380 -23.174 -17.319  0.00  0.00    +0.156 HD
ENDBRANCH   5  16
ENDBRANCH   3   6
BRANCH   2  19
ATOM     19  C   UNL     1      34.809 -15.541 -22.104  0.00  0.00    +0.158 C 
BRANCH  19  21
ATOM     20  O   UNL     1      34.035 -13.410 -22.890  0.00  0.00    -0.456 OA
ATOM     21  C   UNL     1      33.885 -14.368 -21.957  0.00  0.00    +0.139 A 
ATOM     22  C   UNL     1      32.914 -14.078 -21.058  0.00  0.00    +0.013 A 
ATOM     23  C   UNL     1      32.396 -12.816 -21.453  0.00  0.00    +0.033 A 
ATOM     24  C   UNL     1      33.120 -12.449 -22.584  0.00  0.00    +0.145 A 
ATOM     25  C   UNL     1      32.479 -14.893 -19.907  0.00  0.00    +0.034 C 
ATOM     26  C   UNL     1      31.399 -11.946 -20.982  0.00  0.00    +0.003 C 
ATOM     27  C   UNL     1      32.919 -11.264 -23.289  0.00  0.00    +0.037 C 
ATOM     28  C   UNL     1      31.174 -10.745 -21.670  0.00  0.00    +0.000 C 
ATOM     29  C   UNL     1      31.922 -10.412 -22.802  0.00  0.00    +0.003 C 
ENDBRANCH  19  21
ENDBRANCH   2  19
TORSDOF 4
ENDMDL
MODEL 5
REMARK VINA RESULT:     -11.2      6.467     10.792
REMARK  Name = 10407120
REMARK  4 active torsions:
REMARK  status: ('A' for Active; 'I' for Inactive)
REMARK    1  A    between atoms: N_2  and  C_19
REMARK    2  A    between atoms: C_3  and  C_6
REMARK    3  A    between atoms: C_5  and  C_16
REMARK    4  A    between atoms: C_19  and  C_21
REMARK                            x       y       z     vdW  Elec       q    Type
REMARK                         _______ _______ _______ _____ _____    ______ ____
ROOT
ATOM      1  O   UNL     1      30.626 -24.828 -15.812  0.00  0.00    -0.270 OA
ATOM      2  N   UNL     1      31.904 -24.342 -13.932  0.00  0.00    -0.267 N 
ATOM      3  C   UNL     1      31.526 -24.185 -15.269  0.00  0.00    +0.250 C 
ATOM      4  C   UNL     1      31.211 -25.320 -13.104  0.00  0.00    +0.116 C 
ENDROOT
BRANCH   3   6
ATOM      5  C   UNL     1      33.154 -23.598 -17.030  0.00  0.00    +0.006 C 
ATOM      6  C   UNL     1      32.304 -23.187 -16.060  0.00  0.00    +0.058 C 
BRANCH   5  16
ATOM      7  O   UNL     1      36.808 -18.728 -21.750  0.00  0.00    -0.275 OA
ATOM      8  N   UNL     1      36.474 -20.294 -20.103  0.00  0.00    -0.270 N 
ATOM      9  N   UNL     1      36.178 -21.845 -18.341  0.00  0.00    -0.229 NA
ATOM     10  C   UNL     1      33.735 -20.395 -20.824  0.00  0.00    +0.039 C 
ATOM     11  C   UNL     1      34.263 -21.145 -19.640  0.00  0.00    +0.010 C 
ATOM     12  C   UNL     1      34.545 -19.131 -21.068  0.00  0.00    +0.090 C 
ATOM     13  C   UNL     1      35.622 -21.109 -19.332  0.00  0.00    +0.130 C 
ATOM     14  C   UNL     1      33.441 -21.978 -18.879  0.00  0.00    +0.000 C 
ATOM     15  C   UNL     1      36.040 -19.379 -21.041  0.00  0.00    +0.227 C 
ATOM     16  C   UNL     1      33.986 -22.728 -17.842  0.00  0.00    +0.019 C 
ATOM     17  C   UNL     1      35.347 -22.628 -17.618  0.00  0.00    +0.100 C 
ATOM     18  H   UNL     1      37.444 -20.383 -19.963  0.00  0.00    +0.156 HD
ENDBRANCH   5  16
ENDBRANCH   3   6
BRANCH   2  19
ATOM     19  C   UNL     1      32.990 -23.616 -13.276  0.00  0.00    +0.158 C 
BRANCH  19  21
ATOM     20  O   UNL     1      34.474 -25.128 -14.404  0.00  0.00    -0.456 OA
ATOM     21  C   UNL     1      34.275 -24.391 -13.295  0.00  0.00    +0.139 A 
ATOM     22  C   UNL     1      35.291 -24.497 -12.405  0.00  0.00    +0.013 A 
ATOM     23  C   UNL     1      36.226 -25.385 -13.000  0.00  0.00    +0.033 A 
ATOM     24  C   UNL     1      35.676 -25.744 -14.227  0.00  0.00    +0.145 A 
ATOM     25  C   UNL     1      35.410 -23.835 -11.091  0.00  0.00    +0.034 C 
ATOM     26  C   UNL     1      37.472 -25.923 -12.639  0.00  0.00    +0.003 C 
ATOM     27  C   UNL     1      36.286 -26.610 -15.132  0.00  0.00    +0.037 C 
ATOM     28  C   UNL     1      38.110 -26.798 -13.528  0.00  0.00    +0.000 C 
ATOM     29  C   UNL     1      37.525 -27.135 -14.752  0.00  0.00    +0.003 C 
ENDBRANCH  19  21
ENDBRANCH   2  19
TORSDOF 4
ENDMDL
MODEL 6
REMARK VINA RESULT:     -10.9      6.152     10.048
REMARK  Name = 10407120
REMARK  4 active torsions:
REMARK  status: ('A' for Active; 'I' for Inactive)
REMARK    1  A    between atoms: N_2  and  C_19
REMARK    2  A    between atoms: C_3  and  C_6
REMARK    3  A    between atoms: C_5  and  C_16
REMARK    4  A    between atoms: C_19  and  C_21
REMARK                            x       y       z     vdW  Elec       q    Type
REMARK                         _______ _______ _______ _____ _____    ______ ____
ROOT
ATOM      1  O   UNL     1      37.843 -22.532 -14.409  0.00  0.00    -0.270 OA
ATOM      2  N   UNL     1      36.593 -24.479 -14.636  0.00  0.00    -0.267 N 
ATOM      3  C   UNL     1      36.961 -23.175 -14.980  0.00  0.00    +0.250 C 
ATOM      4  C   UNL     1      37.277 -25.147 -13.536  0.00  0.00    +0.116 C 
ENDROOT
BRANCH   3   6
ATOM      5  C   UNL     1      36.800 -22.286 -17.279  0.00  0.00    +0.006 C 
ATOM      6  C   UNL     1      36.194 -22.548 -16.097  0.00  0.00    +0.058 C 
BRANCH   5  16
ATOM      7  O   UNL     1      34.237 -18.505 -23.482  0.00  0.00    -0.275 OA
ATOM      8  N   UNL     1      34.249 -19.908 -21.663  0.00  0.00    -0.270 N 
ATOM      9  N   UNL     1      34.234 -21.429 -19.851  0.00  0.00    -0.229 NA
ATOM     10  C   UNL     1      36.856 -18.989 -21.036  0.00  0.00    +0.039 C 
ATOM     11  C   UNL     1      36.210 -20.100 -20.267  0.00  0.00    +0.010 C 
ATOM     12  C   UNL     1      36.362 -18.968 -22.474  0.00  0.00    +0.090 C 
ATOM     13  C   UNL     1      34.911 -20.505 -20.572  0.00  0.00    +0.130 C 
ATOM     14  C   UNL     1      36.837 -20.687 -19.167  0.00  0.00    +0.000 C 
ATOM     15  C   UNL     1      34.854 -19.068 -22.577  0.00  0.00    +0.227 C 
ATOM     16  C   UNL     1      36.170 -21.654 -18.424  0.00  0.00    +0.019 C 
ATOM     17  C   UNL     1      34.882 -21.984 -18.802  0.00  0.00    +0.100 C 
ATOM     18  H   UNL     1      33.292 -20.103 -21.781  0.00  0.00    +0.156 HD
ENDBRANCH   5  16
ENDBRANCH   3   6
BRANCH   2  19
ATOM     19  C   UNL     1      35.528 -25.248 -15.277  0.00  0.00    +0.158 C 
BRANCH  19  21
ATOM     20  O   UNL     1      33.493 -24.286 -16.107  0.00  0.00    -0.456 OA
ATOM     21  C   UNL     1      34.173 -24.663 -15.008  0.00  0.00    +0.139 A 
ATOM     22  C   UNL     1      33.487 -24.435 -13.863  0.00  0.00    +0.013 A 
ATOM     23  C   UNL     1      32.254 -23.859 -14.267  0.00  0.00    +0.033 A 
ATOM     24  C   UNL     1      32.308 -23.788 -15.655  0.00  0.00    +0.145 A 
ATOM     25  C   UNL     1      33.921 -24.722 -12.481  0.00  0.00    +0.034 C 
ATOM     26  C   UNL     1      31.101 -23.390 -13.614  0.00  0.00    +0.003 C 
ATOM     27  C   UNL     1      31.284 -23.279 -16.452  0.00  0.00    +0.037 C 
ATOM     28  C   UNL     1      30.055 -22.871 -14.388  0.00  0.00    +0.000 C 
ATOM     29  C   UNL     1      30.147 -22.817 -15.782  0.00  0.00    +0.003 C 
ENDBRANCH  19  21
ENDBRANCH   2  19
TORSDOF 4
ENDMDL
MODEL 7
REMARK VINA RESULT:     -10.7      5.987     10.219
REMARK  Name = 10407120
REMARK  4 active torsions:
REMARK  status: ('A' for Active; 'I' for Inactive)
REMARK    1  A    between atoms: N_2  and  C_19
REMARK    2  A    between atoms: C_3  and  C_6
REMARK    3  A    between atoms: C_5  and  C_16
REMARK    4  A    between atoms: C_19  and  C_21
REMARK                            x       y       z     vdW  Elec       q    Type
REMARK                         _______ _______ _______ _____ _____    ______ ____
ROOT
ATOM      1  O   UNL     1      36.121 -24.868 -15.464  0.00  0.00    -0.270 OA
ATOM      2  N   UNL     1      34.520 -23.901 -14.084  0.00  0.00    -0.267 N 
ATOM      3  C   UNL     1      35.200 -24.069 -15.294  0.00  0.00    +0.250 C 
ATOM      4  C   UNL     1      34.902 -24.707 -12.932  0.00  0.00    +0.116 C 
ENDROOT
BRANCH   3   6
ATOM      5  C   UNL     1      35.656 -22.815 -17.373  0.00  0.00    +0.006 C 
ATOM      6  C   UNL     1      34.770 -23.185 -16.418  0.00  0.00    +0.058 C 
BRANCH   5  16
ATOM      7  O   UNL     1      34.992 -17.951 -23.309  0.00  0.00    -0.275 OA
ATOM      8  N   UNL     1      34.403 -19.460 -21.680  0.00  0.00    -0.270 N 
ATOM      9  N   UNL     1      33.759 -21.073 -20.075  0.00  0.00    -0.229 NA
ATOM     10  C   UNL     1      37.053 -19.338 -20.682  0.00  0.00    +0.039 C 
ATOM     11  C   UNL     1      36.047 -20.297 -20.122  0.00  0.00    +0.010 C 
ATOM     12  C   UNL     1      36.775 -19.058 -22.150  0.00  0.00    +0.090 C 
ATOM     13  C   UNL     1      34.740 -20.307 -20.606  0.00  0.00    +0.130 C 
ATOM     14  C   UNL     1      36.352 -21.126 -19.042  0.00  0.00    +0.000 C 
ATOM     15  C   UNL     1      35.318 -18.737 -22.420  0.00  0.00    +0.227 C 
ATOM     16  C   UNL     1      35.366 -21.938 -18.493  0.00  0.00    +0.019 C 
ATOM     17  C   UNL     1      34.097 -21.873 -19.039  0.00  0.00    +0.100 C 
ATOM     18  H   UNL     1      33.453 -19.378 -21.919  0.00  0.00    +0.156 HD
ENDBRANCH   5  16
ENDBRANCH   3   6
BRANCH   2  19
ATOM     19  C   UNL     1      33.447 -22.936 -13.850  0.00  0.00    +0.158 C 
BRANCH  19  21
ATOM     20  O   UNL     1      31.535 -22.699 -15.280  0.00  0.00    -0.456 OA
ATOM     21  C   UNL     1      32.119 -23.447 -14.326  0.00  0.00    +0.139 A 
ATOM     22  C   UNL     1      31.380 -24.529 -13.981  0.00  0.00    +0.013 A 
ATOM     23  C   UNL     1      30.215 -24.466 -14.790  0.00  0.00    +0.033 A 
ATOM     24  C   UNL     1      30.359 -23.322 -15.570  0.00  0.00    +0.145 A 
ATOM     25  C   UNL     1      31.708 -25.560 -12.977  0.00  0.00    +0.034 C 
ATOM     26  C   UNL     1      29.058 -25.247 -14.949  0.00  0.00    +0.003 C 
ATOM     27  C   UNL     1      29.423 -22.895 -16.510  0.00  0.00    +0.037 C 
ATOM     28  C   UNL     1      28.097 -24.842 -15.886  0.00  0.00    +0.000 C 
ATOM     29  C   UNL     1      28.278 -23.686 -16.651  0.00  0.00    +0.003 C 
ENDBRANCH  19  21
ENDBRANCH   2  19
TORSDOF 4
ENDMDL
MODEL 8
REMARK VINA RESULT:     -10.6      3.656      5.736
REMARK  Name = 10407120
REMARK  4 active torsions:
REMARK  status: ('A' for Active; 'I' for Inactive)
REMARK    1  A    between atoms: N_2  and  C_19
REMARK    2  A    between atoms: C_3  and  C_6
REMARK    3  A    between atoms: C_5  and  C_16
REMARK    4  A    between atoms: C_19  and  C_21
REMARK                            x       y       z     vdW  Elec       q    Type
REMARK                         _______ _______ _______ _____ _____    ______ ____
ROOT
ATOM      1  O   UNL     1      30.803 -11.676 -21.082  0.00  0.00    -0.270 OA
ATOM      2  N   UNL     1      32.702 -12.899 -21.630  0.00  0.00    -0.267 N 
ATOM      3  C   UNL     1      31.858 -11.788 -21.708  0.00  0.00    +0.250 C 
ATOM      4  C   UNL     1      32.340 -14.011 -20.762  0.00  0.00    +0.116 C 
ENDROOT
BRANCH   3   6
ATOM      5  C   UNL     1      31.984  -9.412 -22.370  0.00  0.00    +0.006 C 
ATOM      6  C   UNL     1      32.283 -10.704 -22.643  0.00  0.00    +0.058 C 
BRANCH   5  16
ATOM      7  O   UNL     1      34.598  -3.591 -26.686  0.00  0.00    -0.275 OA
ATOM      8  N   UNL     1      33.124  -5.004 -25.634  0.00  0.00    -0.270 N 
ATOM      9  N   UNL     1      31.564  -6.479 -24.642  0.00  0.00    -0.229 NA
ATOM     10  C   UNL     1      35.320  -6.269 -24.366  0.00  0.00    +0.039 C 
ATOM     11  C   UNL     1      33.923  -6.789 -24.218  0.00  0.00    +0.010 C 
ATOM     12  C   UNL     1      35.503  -5.586 -25.712  0.00  0.00    +0.090 C 
ATOM     13  C   UNL     1      32.857  -6.123 -24.821  0.00  0.00    +0.130 C 
ATOM     14  C   UNL     1      33.633  -7.880 -23.397  0.00  0.00    +0.000 C 
ATOM     15  C   UNL     1      34.387  -4.612 -26.032  0.00  0.00    +0.227 C 
ATOM     16  C   UNL     1      32.314  -8.277 -23.214  0.00  0.00    +0.019 C 
ATOM     17  C   UNL     1      31.326  -7.549 -23.850  0.00  0.00    +0.100 C 
ATOM     18  H   UNL     1      32.359  -4.466 -25.940  0.00  0.00    +0.156 HD
ENDBRANCH   5  16
ENDBRANCH   3   6
BRANCH   2  19
ATOM     19  C   UNL     1      33.940 -13.069 -22.389  0.00  0.00    +0.158 C 
BRANCH  19  21
ATOM     20  O   UNL     1      34.774 -15.216 -21.714  0.00  0.00    -0.456 OA
ATOM     21  C   UNL     1      34.208 -14.510 -22.710  0.00  0.00    +0.139 A 
ATOM     22  C   UNL     1      33.989 -15.254 -23.821  0.00  0.00    +0.013 A 
ATOM     23  C   UNL     1      34.459 -16.556 -23.505  0.00  0.00    +0.033 A 
ATOM     24  C   UNL     1      34.932 -16.479 -22.199  0.00  0.00    +0.145 A 
ATOM     25  C   UNL     1      33.389 -14.813 -25.096  0.00  0.00    +0.034 C 
ATOM     26  C   UNL     1      34.538 -17.787 -24.177  0.00  0.00    +0.003 C 
ATOM     27  C   UNL     1      35.483 -17.553 -21.503  0.00  0.00    +0.037 C 
ATOM     28  C   UNL     1      35.088 -18.886 -23.503  0.00  0.00    +0.000 C 
ATOM     29  C   UNL     1      35.552 -18.769 -22.191  0.00  0.00    +0.003 C 
ENDBRANCH  19  21
ENDBRANCH   2  19
TORSDOF 4
ENDMDL
MODEL 9
REMARK VINA RESULT:     -10.3      4.363      8.135
REMARK  Name = 10407120
REMARK  4 active torsions:
REMARK  status: ('A' for Active; 'I' for Inactive)
REMARK    1  A    between atoms: N_2  and  C_19
REMARK    2  A    between atoms: C_3  and  C_6
REMARK    3  A    between atoms: C_5  and  C_16
REMARK    4  A    between atoms: C_19  and  C_21
REMARK                            x       y       z     vdW  Elec       q    Type
REMARK                         _______ _______ _______ _____ _____    ______ ____
ROOT
ATOM      1  O   UNL     1      32.761  -7.682 -19.063  0.00  0.00    -0.270 OA
ATOM      2  N   UNL     1      31.636  -9.612 -19.706  0.00  0.00    -0.267 N 
ATOM      3  C   UNL     1      32.233  -8.370 -19.938  0.00  0.00    +0.250 C 
ATOM      4  C   UNL     1      31.619 -10.154 -18.354  0.00  0.00    +0.116 C 
ENDROOT
BRANCH   3   6
ATOM      5  C   UNL     1      33.114  -6.993 -21.790  0.00  0.00    +0.006 C 
ATOM      6  C   UNL     1      32.182  -7.869 -21.344  0.00  0.00    +0.058 C 
BRANCH   5  16
ATOM      7  O   UNL     1      33.918  -4.551 -29.051  0.00  0.00    -0.275 OA
ATOM      8  N   UNL     1      33.176  -4.655 -26.880  0.00  0.00    -0.270 N 
ATOM      9  N   UNL     1      32.317  -4.768 -24.679  0.00  0.00    -0.229 NA
ATOM     10  C   UNL     1      35.034  -6.741 -26.399  0.00  0.00    +0.039 C 
ATOM     11  C   UNL     1      34.040  -6.320 -25.360  0.00  0.00    +0.010 C 
ATOM     12  C   UNL     1      34.481  -6.515 -27.798  0.00  0.00    +0.090 C 
ATOM     13  C   UNL     1      33.165  -5.264 -25.610  0.00  0.00    +0.130 C 
ATOM     14  C   UNL     1      34.029  -6.892 -24.087  0.00  0.00    +0.000 C 
ATOM     15  C   UNL     1      33.870  -5.139 -27.972  0.00  0.00    +0.227 C 
ATOM     16  C   UNL     1      33.152  -6.414 -23.121  0.00  0.00    +0.019 C 
ATOM     17  C   UNL     1      32.326  -5.358 -23.463  0.00  0.00    +0.100 C 
ATOM     18  H   UNL     1      32.655  -3.829 -26.998  0.00  0.00    +0.156 HD
ENDBRANCH   5  16
ENDBRANCH   3   6
BRANCH   2  19
ATOM     19  C   UNL     1      30.974 -10.430 -20.721  0.00  0.00    +0.158 C 
BRANCH  19  21
ATOM     20  O   UNL     1      32.117 -12.525 -20.473  0.00  0.00    -0.456 OA
ATOM     21  C   UNL     1      31.892 -11.475 -21.284  0.00  0.00    +0.139 A 
ATOM     22  C   UNL     1      32.548 -11.574 -22.465  0.00  0.00    +0.013 A 
ATOM     23  C   UNL     1      33.258 -12.802 -22.403  0.00  0.00    +0.033 A 
ATOM     24  C   UNL     1      32.961 -13.347 -21.158  0.00  0.00    +0.145 A 
ATOM     25  C   UNL     1      32.533 -10.614 -23.587  0.00  0.00    +0.034 C 
ATOM     26  C   UNL     1      34.119 -13.510 -23.259  0.00  0.00    +0.003 C 
ATOM     27  C   UNL     1      33.462 -14.563 -20.697  0.00  0.00    +0.037 C 
ATOM     28  C   UNL     1      34.640 -14.736 -22.823  0.00  0.00    +0.000 C 
ATOM     29  C   UNL     1      34.317 -15.250 -21.565  0.00  0.00    +0.003 C 
ENDBRANCH  19  21
ENDBRANCH   2  19
TORSDOF 4
ENDMDL
