MODEL 1
REMARK VINA RESULT:     -11.5      0.000      0.000
REMARK  Name = 9912771
REMARK  7 active torsions:
REMARK  status: ('A' for Active; 'I' for Inactive)
REMARK    1  A    between atoms: C_1  and  N_8
REMARK    2  A    between atoms: C_2  and  N_27
REMARK    3  A    between atoms: C_3  and  O_38
REMARK    4  A    between atoms: C_9  and  C_16
REMARK    5  A    between atoms: C_11  and  N_17
REMARK    6  A    between atoms: C_28  and  C_30
REMARK    7  A    between atoms: C_35  and  O_36
REMARK                            x       y       z     vdW  Elec       q    Type
REMARK                         _______ _______ _______ _____ _____    ______ ____
ROOT
ATOM      1  C   UNL     1      31.455 -23.274 -15.950  0.00  0.00    +0.098 C 
ATOM      2  C   UNL     1      32.074 -23.981 -14.931  0.00  0.00    +0.067 C 
ATOM      3  C   UNL     1      30.076 -23.131 -15.991  0.00  0.00    +0.148 C 
ATOM      4  C   UNL     1      31.295 -24.560 -13.928  0.00  0.00    +0.016 C 
ATOM      5  C   UNL     1      29.298 -23.709 -14.988  0.00  0.00    +0.038 C 
ATOM      6  C   UNL     1      29.908 -24.424 -13.957  0.00  0.00    +0.004 C 
ENDROOT
BRANCH   1   8
ATOM      7  O   UNL     1      33.443 -24.505 -17.826  0.00  0.00    -0.270 OA
ATOM      8  N   UNL     1      32.237 -22.682 -16.972  0.00  0.00    -0.277 N 
ATOM      9  C   UNL     1      33.159 -23.296 -17.831  0.00  0.00    +0.250 C 
ATOM     10  H   UNL     1      32.118 -21.713 -17.095  0.00  0.00    +0.155 HD
BRANCH   9  16
ATOM     11  C   UNL     1      35.150 -20.707 -20.595  0.00  0.00    +0.048 C 
ATOM     12  C   UNL     1      33.747 -20.666 -20.434  0.00  0.00    +0.015 C 
ATOM     13  C   UNL     1      35.872 -21.633 -19.809  0.00  0.00    +0.015 C 
ATOM     14  C   UNL     1      33.099 -21.510 -19.532  0.00  0.00    +0.006 C 
ATOM     15  C   UNL     1      35.223 -22.477 -18.908  0.00  0.00    +0.006 C 
ATOM     16  C   UNL     1      33.836 -22.415 -18.770  0.00  0.00    +0.054 C 
BRANCH  11  17
ATOM     17  N   UNL     1      35.798 -19.865 -21.497  0.00  0.00    -0.310 N 
ATOM     18  N   UNL     1      34.850 -17.227 -20.922  0.00  0.00    +0.387 N 
ATOM     19  C   UNL     1      35.329 -19.672 -22.872  0.00  0.00    +0.089 C 
ATOM     20  C   UNL     1      34.298 -18.546 -22.956  0.00  0.00    -0.001 C 
ATOM     21  C   UNL     1      36.799 -18.885 -21.061  0.00  0.00    +0.068 C 
ATOM     22  C   UNL     1      34.764 -17.196 -22.388  0.00  0.00    -0.076 C 
ATOM     23  C   UNL     1      36.156 -17.660 -20.397  0.00  0.00    -0.056 C 
ATOM     24  C   UNL     1      34.492 -15.930 -20.345  0.00  0.00    -0.101 C 
ATOM     25  H   UNL     1      34.175 -17.937 -20.637  0.00  0.00    -0.080 HD
ENDBRANCH  11  17
ENDBRANCH   9  16
ENDBRANCH   1   8
BRANCH   2  27
ATOM     26  O   UNL     1      33.915 -24.190 -12.575  0.00  0.00    -0.270 OA
ATOM     27  N   UNL     1      33.463 -24.132 -14.881  0.00  0.00    -0.279 N 
ATOM     28  C   UNL     1      34.277 -24.224 -13.746  0.00  0.00    +0.250 C 
ATOM     29  H   UNL     1      33.924 -24.179 -15.749  0.00  0.00    +0.155 HD
BRANCH  28  30
ATOM     30  C   UNL     1      35.732 -24.352 -14.017  0.00  0.00    +0.054 C 
ATOM     31  C   UNL     1      36.459 -25.294 -13.319  0.00  0.00    +0.008 C 
ATOM     32  C   UNL     1      36.309 -23.525 -14.959  0.00  0.00    +0.008 C 
ATOM     33  C   UNL     1      37.825 -25.415 -13.574  0.00  0.00    +0.037 C 
ATOM     34  C   UNL     1      37.675 -23.647 -15.214  0.00  0.00    +0.037 C 
ATOM     35  C   UNL     1      38.433 -24.590 -14.522  0.00  0.00    +0.139 C 
BRANCH  35  36
ATOM     36  O   UNL     1      39.765 -24.709 -14.771  0.00  0.00    -0.471 OA
ATOM     37  C   UNL     1      40.425 -25.857 -14.238  0.00  0.00    +0.252 C 
ENDBRANCH  35  36
ENDBRANCH  28  30
ENDBRANCH   2  27
BRANCH   3  38
ATOM     38  O   UNL     1      29.458 -22.437 -16.988  0.00  0.00    -0.504 OA
ATOM     39  H   UNL     1      29.148 -21.567 -16.830  0.00  0.00    +0.292 HD
ENDBRANCH   3  38
TORSDOF 7
ENDMDL
MODEL 2
REMARK VINA RESULT:      -9.2      1.479      5.477
REMARK  Name = 9912771
REMARK  7 active torsions:
REMARK  status: ('A' for Active; 'I' for Inactive)
REMARK    1  A    between atoms: C_1  and  N_8
REMARK    2  A    between atoms: C_2  and  N_27
REMARK    3  A    between atoms: C_3  and  O_38
REMARK    4  A    between atoms: C_9  and  C_16
REMARK    5  A    between atoms: C_11  and  N_17
REMARK    6  A    between atoms: C_28  and  C_30
REMARK    7  A    between atoms: C_35  and  O_36
REMARK                            x       y       z     vdW  Elec       q    Type
REMARK                         _______ _______ _______ _____ _____    ______ ____
ROOT
ATOM      1  C   UNL     1      37.079 -24.605 -14.659  0.00  0.00    +0.098 C 
ATOM      2  C   UNL     1      35.964 -25.050 -13.965  0.00  0.00    +0.067 C 
ATOM      3  C   UNL     1      38.362 -24.923 -14.237  0.00  0.00    +0.148 C 
ATOM      4  C   UNL     1      36.135 -25.831 -12.822  0.00  0.00    +0.016 C 
ATOM      5  C   UNL     1      38.532 -25.704 -13.094  0.00  0.00    +0.038 C 
ATOM      6  C   UNL     1      37.419 -26.158 -12.387  0.00  0.00    +0.004 C 
ENDROOT
BRANCH   1   8
ATOM      7  O   UNL     1      35.569 -22.047 -15.062  0.00  0.00    -0.270 OA
ATOM      8  N   UNL     1      36.915 -23.812 -15.822  0.00  0.00    -0.277 N 
ATOM      9  C   UNL     1      36.197 -22.618 -15.968  0.00  0.00    +0.250 C 
ATOM     10  H   UNL     1      37.363 -24.144 -16.632  0.00  0.00    +0.155 HD
BRANCH   9  16
ATOM     11  C   UNL     1      36.171 -20.927 -19.899  0.00  0.00    +0.048 C 
ATOM     12  C   UNL     1      35.202 -21.877 -19.504  0.00  0.00    +0.015 C 
ATOM     13  C   UNL     1      37.148 -20.556 -18.948  0.00  0.00    +0.015 C 
ATOM     14  C   UNL     1      35.211 -22.426 -18.222  0.00  0.00    +0.006 C 
ATOM     15  C   UNL     1      37.157 -21.106 -17.667  0.00  0.00    +0.006 C 
ATOM     16  C   UNL     1      36.188 -22.042 -17.304  0.00  0.00    +0.054 C 
BRANCH  11  17
ATOM     17  N   UNL     1      36.164 -20.378 -21.180  0.00  0.00    -0.310 N 
ATOM     18  N   UNL     1      35.148 -17.720 -20.883  0.00  0.00    +0.387 N 
ATOM     19  C   UNL     1      35.080 -20.623 -22.136  0.00  0.00    +0.089 C 
ATOM     20  C   UNL     1      33.951 -19.607 -21.971  0.00  0.00    -0.001 C 
ATOM     21  C   UNL     1      37.063 -19.283 -21.558  0.00  0.00    +0.068 C 
ATOM     22  C   UNL     1      34.384 -18.135 -22.066  0.00  0.00    -0.076 C 
ATOM     23  C   UNL     1      36.602 -17.935 -20.990  0.00  0.00    -0.056 C 
ATOM     24  C   UNL     1      34.881 -16.320 -20.546  0.00  0.00    -0.101 C 
ATOM     25  H   UNL     1      34.821 -18.330 -20.134  0.00  0.00    -0.080 HD
ENDBRANCH  11  17
ENDBRANCH   9  16
ENDBRANCH   1   8
BRANCH   2  27
ATOM     26  O   UNL     1      33.538 -24.323 -12.361  0.00  0.00    -0.270 OA
ATOM     27  N   UNL     1      34.667 -24.735 -14.381  0.00  0.00    -0.279 N 
ATOM     28  C   UNL     1      33.566 -24.401 -13.584  0.00  0.00    +0.250 C 
ATOM     29  H   UNL     1      34.509 -24.749 -15.353  0.00  0.00    +0.155 HD
BRANCH  28  30
ATOM     30  C   UNL     1      32.302 -24.143 -14.323  0.00  0.00    +0.054 C 
ATOM     31  C   UNL     1      31.113 -24.583 -13.780  0.00  0.00    +0.008 C 
ATOM     32  C   UNL     1      32.360 -23.472 -15.526  0.00  0.00    +0.008 C 
ATOM     33  C   UNL     1      29.927 -24.340 -14.472  0.00  0.00    +0.037 C 
ATOM     34  C   UNL     1      31.173 -23.229 -16.218  0.00  0.00    +0.037 C 
ATOM     35  C   UNL     1      29.957 -23.663 -15.692  0.00  0.00    +0.139 C 
BRANCH  35  36
ATOM     36  O   UNL     1      28.799 -23.426 -16.366  0.00  0.00    -0.471 OA
ATOM     37  C   UNL     1      27.709 -22.894 -15.616  0.00  0.00    +0.252 C 
ENDBRANCH  35  36
ENDBRANCH  28  30
ENDBRANCH   2  27
BRANCH   3  38
ATOM     38  O   UNL     1      39.464 -24.492 -14.912  0.00  0.00    -0.504 OA
ATOM     39  H   UNL     1      39.611 -23.575 -15.033  0.00  0.00    +0.292 HD
ENDBRANCH   3  38
TORSDOF 7
ENDMDL
MODEL 3
REMARK VINA RESULT:      -8.9      1.596      5.717
REMARK  Name = 9912771
REMARK  7 active torsions:
REMARK  status: ('A' for Active; 'I' for Inactive)
REMARK    1  A    between atoms: C_1  and  N_8
REMARK    2  A    between atoms: C_2  and  N_27
REMARK    3  A    between atoms: C_3  and  O_38
REMARK    4  A    between atoms: C_9  and  C_16
REMARK    5  A    between atoms: C_11  and  N_17
REMARK    6  A    between atoms: C_28  and  C_30
REMARK    7  A    between atoms: C_35  and  O_36
REMARK                            x       y       z     vdW  Elec       q    Type
REMARK                         _______ _______ _______ _____ _____    ______ ____
ROOT
ATOM      1  C   UNL     1      35.533 -23.642 -14.650  0.00  0.00    +0.098 C 
ATOM      2  C   UNL     1      34.483 -24.148 -13.899  0.00  0.00    +0.067 C 
ATOM      3  C   UNL     1      36.850 -23.798 -14.241  0.00  0.00    +0.148 C 
ATOM      4  C   UNL     1      34.755 -24.826 -12.710  0.00  0.00    +0.016 C 
ATOM      5  C   UNL     1      37.121 -24.476 -13.052  0.00  0.00    +0.038 C 
ATOM      6  C   UNL     1      36.074 -24.989 -12.287  0.00  0.00    +0.004 C 
ENDROOT
BRANCH   1   8
ATOM      7  O   UNL     1      33.948 -24.486 -17.050  0.00  0.00    -0.270 OA
ATOM      8  N   UNL     1      35.266 -22.954 -15.859  0.00  0.00    -0.277 N 
ATOM      9  C   UNL     1      34.517 -23.386 -16.961  0.00  0.00    +0.250 C 
ATOM     10  H   UNL     1      35.659 -22.054 -15.934  0.00  0.00    +0.155 HD
BRANCH   9  16
ATOM     11  C   UNL     1      34.296 -20.659 -20.252  0.00  0.00    +0.048 C 
ATOM     12  C   UNL     1      35.540 -21.073 -19.726  0.00  0.00    +0.015 C 
ATOM     13  C   UNL     1      33.128 -21.180 -19.652  0.00  0.00    +0.015 C 
ATOM     14  C   UNL     1      35.611 -21.963 -18.654  0.00  0.00    +0.006 C 
ATOM     15  C   UNL     1      33.199 -22.068 -18.580  0.00  0.00    +0.006 C 
ATOM     16  C   UNL     1      34.442 -22.459 -18.081  0.00  0.00    +0.054 C 
BRANCH  11  17
ATOM     17  N   UNL     1      34.224 -19.769 -21.322  0.00  0.00    -0.310 N 
ATOM     18  N   UNL     1      36.877 -18.759 -21.677  0.00  0.00    +0.387 N 
ATOM     19  C   UNL     1      33.779 -18.382 -21.164  0.00  0.00    +0.089 C 
ATOM     20  C   UNL     1      34.944 -17.460 -20.808  0.00  0.00    -0.001 C 
ATOM     21  C   UNL     1      34.870 -20.051 -22.609  0.00  0.00    +0.068 C 
ATOM     22  C   UNL     1      36.127 -17.501 -21.788  0.00  0.00    -0.076 C 
ATOM     23  C   UNL     1      36.388 -19.840 -22.551  0.00  0.00    -0.056 C 
ATOM     24  C   UNL     1      38.306 -18.544 -21.911  0.00  0.00    -0.101 C 
ATOM     25  H   UNL     1      36.722 -19.071 -20.718  0.00  0.00    -0.080 HD
ENDBRANCH  11  17
ENDBRANCH   9  16
ENDBRANCH   1   8
BRANCH   2  27
ATOM     26  O   UNL     1      31.987 -25.451 -12.870  0.00  0.00    -0.270 OA
ATOM     27  N   UNL     1      33.153 -23.996 -14.301  0.00  0.00    -0.279 N 
ATOM     28  C   UNL     1      32.020 -24.633 -13.783  0.00  0.00    +0.250 C 
ATOM     29  H   UNL     1      32.994 -23.363 -15.039  0.00  0.00    +0.155 HD
BRANCH  28  30
ATOM     30  C   UNL     1      30.736 -24.283 -14.445  0.00  0.00    +0.054 C 
ATOM     31  C   UNL     1      30.325 -22.965 -14.444  0.00  0.00    +0.008 C 
ATOM     32  C   UNL     1      29.997 -25.284 -15.038  0.00  0.00    +0.008 C 
ATOM     33  C   UNL     1      29.121 -22.635 -15.065  0.00  0.00    +0.037 C 
ATOM     34  C   UNL     1      28.793 -24.954 -15.660  0.00  0.00    +0.037 C 
ATOM     35  C   UNL     1      28.355 -23.631 -15.673  0.00  0.00    +0.139 C 
BRANCH  35  36
ATOM     36  O   UNL     1      27.180 -23.308 -16.280  0.00  0.00    -0.471 OA
ATOM     37  C   UNL     1      26.382 -22.304 -15.656  0.00  0.00    +0.252 C 
ENDBRANCH  35  36
ENDBRANCH  28  30
ENDBRANCH   2  27
BRANCH   3  38
ATOM     38  O   UNL     1      37.889 -23.306 -14.973  0.00  0.00    -0.504 OA
ATOM     39  H   UNL     1      38.568 -22.818 -14.552  0.00  0.00    +0.292 HD
ENDBRANCH   3  38
TORSDOF 7
ENDMDL
MODEL 4
REMARK VINA RESULT:      -8.8      0.754      1.407
REMARK  Name = 9912771
REMARK  7 active torsions:
REMARK  status: ('A' for Active; 'I' for Inactive)
REMARK    1  A    between atoms: C_1  and  N_8
REMARK    2  A    between atoms: C_2  and  N_27
REMARK    3  A    between atoms: C_3  and  O_38
REMARK    4  A    between atoms: C_9  and  C_16
REMARK    5  A    between atoms: C_11  and  N_17
REMARK    6  A    between atoms: C_28  and  C_30
REMARK    7  A    between atoms: C_35  and  O_36
REMARK                            x       y       z     vdW  Elec       q    Type
REMARK                         _______ _______ _______ _____ _____    ______ ____
ROOT
ATOM      1  C   UNL     1      31.429 -23.491 -15.926  0.00  0.00    +0.098 C 
ATOM      2  C   UNL     1      32.062 -24.290 -14.986  0.00  0.00    +0.067 C 
ATOM      3  C   UNL     1      30.046 -23.404 -15.981  0.00  0.00    +0.148 C 
ATOM      4  C   UNL     1      31.293 -25.019 -14.078  0.00  0.00    +0.016 C 
ATOM      5  C   UNL     1      29.278 -24.133 -15.074  0.00  0.00    +0.038 C 
ATOM      6  C   UNL     1      29.902 -24.940 -14.122  0.00  0.00    +0.004 C 
ENDROOT
BRANCH   1   8
ATOM      7  O   UNL     1      33.361 -24.415 -18.024  0.00  0.00    -0.270 OA
ATOM      8  N   UNL     1      32.202 -22.746 -16.851  0.00  0.00    -0.277 N 
ATOM      9  C   UNL     1      33.097 -23.219 -17.820  0.00  0.00    +0.250 C 
ATOM     10  H   UNL     1      32.097 -21.769 -16.806  0.00  0.00    +0.155 HD
BRANCH   9  16
ATOM     11  C   UNL     1      35.078 -20.228 -20.152  0.00  0.00    +0.048 C 
ATOM     12  C   UNL     1      33.670 -20.334 -20.141  0.00  0.00    +0.015 C 
ATOM     13  C   UNL     1      35.809 -21.146 -19.364  0.00  0.00    +0.015 C 
ATOM     14  C   UNL     1      33.025 -21.309 -19.380  0.00  0.00    +0.006 C 
ATOM     15  C   UNL     1      35.164 -22.121 -18.604  0.00  0.00    +0.006 C 
ATOM     16  C   UNL     1      33.771 -22.202 -18.612  0.00  0.00    +0.054 C 
BRANCH  11  17
ATOM     17  N   UNL     1      35.724 -19.255 -20.914  0.00  0.00    -0.310 N 
ATOM     18  N   UNL     1      34.238 -19.059 -23.351  0.00  0.00    +0.387 N 
ATOM     19  C   UNL     1      36.908 -19.549 -21.726  0.00  0.00    +0.089 C 
ATOM     20  C   UNL     1      36.519 -20.022 -23.127  0.00  0.00    -0.001 C 
ATOM     21  C   UNL     1      35.102 -17.959 -21.203  0.00  0.00    +0.068 C 
ATOM     22  C   UNL     1      35.599 -19.065 -23.902  0.00  0.00    -0.076 C 
ATOM     23  C   UNL     1      34.017 -18.068 -22.283  0.00  0.00    -0.056 C 
ATOM     24  C   UNL     1      33.241 -18.876 -24.407  0.00  0.00    -0.101 C 
ATOM     25  H   UNL     1      34.127 -19.977 -22.920  0.00  0.00    -0.080 HD
ENDBRANCH  11  17
ENDBRANCH   9  16
ENDBRANCH   1   8
BRANCH   2  27
ATOM     26  O   UNL     1      33.897 -24.290 -12.616  0.00  0.00    -0.270 OA
ATOM     27  N   UNL     1      33.455 -24.386 -14.922  0.00  0.00    -0.279 N 
ATOM     28  C   UNL     1      34.266 -24.380 -13.781  0.00  0.00    +0.250 C 
ATOM     29  H   UNL     1      33.923 -24.468 -15.785  0.00  0.00    +0.155 HD
BRANCH  28  30
ATOM     30  C   UNL     1      35.727 -24.470 -14.040  0.00  0.00    +0.054 C 
ATOM     31  C   UNL     1      36.452 -25.467 -13.422  0.00  0.00    +0.008 C 
ATOM     32  C   UNL     1      36.309 -23.554 -14.891  0.00  0.00    +0.008 C 
ATOM     33  C   UNL     1      37.822 -25.552 -13.664  0.00  0.00    +0.037 C 
ATOM     34  C   UNL     1      37.680 -23.640 -15.134  0.00  0.00    +0.037 C 
ATOM     35  C   UNL     1      38.437 -24.638 -14.521  0.00  0.00    +0.139 C 
BRANCH  35  36
ATOM     36  O   UNL     1      39.774 -24.722 -14.759  0.00  0.00    -0.471 OA
ATOM     37  C   UNL     1      40.486 -25.766 -14.096  0.00  0.00    +0.252 C 
ENDBRANCH  35  36
ENDBRANCH  28  30
ENDBRANCH   2  27
BRANCH   3  38
ATOM     38  O   UNL     1      29.415 -22.620 -16.901  0.00  0.00    -0.504 OA
ATOM     39  H   UNL     1      28.513 -22.396 -16.785  0.00  0.00    +0.292 HD
ENDBRANCH   3  38
TORSDOF 7
ENDMDL
