MODEL 1
REMARK VINA RESULT:     -14.4      0.000      0.000
REMARK  Name = 67335295
REMARK  6 active torsions:
REMARK  status: ('A' for Active; 'I' for Inactive)
REMARK    1  A    between atoms: N_2  and  C_14
REMARK    2  A    between atoms: C_7  and  O_20
REMARK    3  A    between atoms: O_20  and  C_21
REMARK    4  A    between atoms: C_21  and  C_23
REMARK    5  A    between atoms: C_22  and  C_28
REMARK    6  A    between atoms: C_28  and  N_30
REMARK                            x       y       z     vdW  Elec       q    Type
REMARK                         _______ _______ _______ _____ _____    ______ ____
ROOT
ATOM      1  O   UNL     1      33.490 -24.810 -12.367  0.00  0.00    -0.270 OA
ATOM      2  N   UNL     1      34.608 -24.510 -14.428  0.00  0.00    -0.265 N 
ATOM      3  C   UNL     1      34.261 -24.020 -15.757  0.00  0.00    +0.124 C 
ATOM      4  C   UNL     1      32.821 -23.672 -15.592  0.00  0.00    +0.036 C 
ATOM      5  C   UNL     1      33.540 -24.479 -13.538  0.00  0.00    +0.249 C 
ATOM      6  C   UNL     1      32.400 -23.942 -14.289  0.00  0.00    +0.054 C 
ATOM      7  C   UNL     1      31.936 -23.154 -16.518  0.00  0.00    +0.137 C 
ATOM      8  C   UNL     1      31.107 -23.712 -13.860  0.00  0.00    +0.004 C 
ATOM      9  C   UNL     1      30.621 -22.912 -16.110  0.00  0.00    +0.037 C 
ATOM     10  C   UNL     1      30.210 -23.189 -14.792  0.00  0.00    +0.003 C 
ENDROOT
BRANCH   2  14
ATOM     11  O   UNL     1      36.689 -22.779 -14.721  0.00  0.00    -0.273 OA
ATOM     12  O   UNL     1      39.771 -26.187 -15.004  0.00  0.00    -0.275 OA
ATOM     13  N   UNL     1      38.192 -24.513 -14.880  0.00  0.00    -0.254 N 
ATOM     14  C   UNL     1      35.922 -24.977 -14.073  0.00  0.00    +0.153 C 
ATOM     15  C   UNL     1      36.177 -26.371 -14.625  0.00  0.00    +0.039 C 
ATOM     16  C   UNL     1      37.583 -26.808 -14.255  0.00  0.00    +0.088 C 
ATOM     17  C   UNL     1      36.933 -23.979 -14.608  0.00  0.00    +0.246 C 
ATOM     18  C   UNL     1      38.617 -25.833 -14.763  0.00  0.00    +0.228 C 
ATOM     19  H   UNL     1      38.869 -23.870 -15.195  0.00  0.00    +0.158 HD
ENDBRANCH   2  14
BRANCH   7  20
ATOM     20  O   UNL     1      32.323 -22.885 -17.792  0.00  0.00    -0.471 OA
BRANCH  20  21
ATOM     21  C   UNL     1      33.659 -23.236 -18.155  0.00  0.00    +0.232 C 
BRANCH  21  23
ATOM     22  C   UNL     1      35.330 -20.096 -20.555  0.00  0.00    -0.043 C 
ATOM     23  C   UNL     1      34.243 -22.136 -18.993  0.00  0.00    +0.021 C 
ATOM     24  C   UNL     1      33.944 -20.245 -20.466  0.00  0.00    -0.007 C 
ATOM     25  C   UNL     1      36.170 -20.967 -19.863  0.00  0.00    -0.007 C 
ATOM     26  C   UNL     1      33.402 -21.265 -19.685  0.00  0.00    -0.001 C 
ATOM     27  C   UNL     1      35.627 -21.987 -19.081  0.00  0.00    -0.001 C 
BRANCH  22  28
ATOM     28  C   UNL     1      35.909 -19.005 -21.391  0.00  0.00    -0.050 C 
BRANCH  28  30
ATOM     29  O   UNL     1      34.236 -17.520 -24.943  0.00  0.00    -0.358 OA
ATOM     30  N   UNL     1      34.949 -18.476 -22.357  0.00  0.00    +0.393 N 
ATOM     31  C   UNL     1      35.361 -17.145 -22.826  0.00  0.00    -0.044 C 
ATOM     32  C   UNL     1      34.802 -19.388 -23.500  0.00  0.00    -0.044 C 
ATOM     33  C   UNL     1      33.806 -18.809 -24.501  0.00  0.00    +0.119 C 
ATOM     34  C   UNL     1      34.351 -16.619 -23.842  0.00  0.00    +0.119 C 
ATOM     35  H   UNL     1      34.047 -18.392 -21.889  0.00  0.00    -0.079 HD
ENDBRANCH  28  30
ENDBRANCH  22  28
ENDBRANCH  21  23
ENDBRANCH  20  21
ENDBRANCH   7  20
TORSDOF 6
ENDMDL
MODEL 2
REMARK VINA RESULT:     -13.1      3.295     11.532
REMARK  Name = 67335295
REMARK  6 active torsions:
REMARK  status: ('A' for Active; 'I' for Inactive)
REMARK    1  A    between atoms: N_2  and  C_14
REMARK    2  A    between atoms: C_7  and  O_20
REMARK    3  A    between atoms: O_20  and  C_21
REMARK    4  A    between atoms: C_21  and  C_23
REMARK    5  A    between atoms: C_22  and  C_28
REMARK    6  A    between atoms: C_28  and  N_30
REMARK                            x       y       z     vdW  Elec       q    Type
REMARK                         _______ _______ _______ _____ _____    ______ ____
ROOT
ATOM      1  O   UNL     1      33.309 -14.670 -24.952  0.00  0.00    -0.270 OA
ATOM      2  N   UNL     1      34.113 -14.568 -22.733  0.00  0.00    -0.265 N 
ATOM      3  C   UNL     1      34.712 -15.496 -21.781  0.00  0.00    +0.124 C 
ATOM      4  C   UNL     1      34.747 -16.762 -22.566  0.00  0.00    +0.036 C 
ATOM      5  C   UNL     1      33.809 -15.156 -23.954  0.00  0.00    +0.249 C 
ATOM      6  C   UNL     1      34.217 -16.562 -23.841  0.00  0.00    +0.054 C 
ATOM      7  C   UNL     1      35.212 -18.009 -22.193  0.00  0.00    +0.137 C 
ATOM      8  C   UNL     1      34.128 -17.570 -24.780  0.00  0.00    +0.004 C 
ATOM      9  C   UNL     1      35.134 -19.049 -23.124  0.00  0.00    +0.037 C 
ATOM     10  C   UNL     1      34.596 -18.831 -24.407  0.00  0.00    +0.003 C 
ENDROOT
BRANCH   2  14
ATOM     11  O   UNL     1      31.962 -13.974 -21.173  0.00  0.00    -0.273 OA
ATOM     12  O   UNL     1      31.687  -9.677 -22.804  0.00  0.00    -0.275 OA
ATOM     13  N   UNL     1      31.847 -11.843 -22.031  0.00  0.00    -0.254 N 
ATOM     14  C   UNL     1      33.863 -13.181 -22.437  0.00  0.00    +0.153 C 
ATOM     15  C   UNL     1      33.995 -12.321 -23.685  0.00  0.00    +0.039 C 
ATOM     16  C   UNL     1      33.691 -10.876 -23.333  0.00  0.00    +0.088 C 
ATOM     17  C   UNL     1      32.471 -13.075 -21.840  0.00  0.00    +0.246 C 
ATOM     18  C   UNL     1      32.316 -10.732 -22.726  0.00  0.00    +0.228 C 
ATOM     19  H   UNL     1      30.957 -11.747 -21.620  0.00  0.00    +0.158 HD
ENDBRANCH   2  14
BRANCH   7  20
ATOM     20  O   UNL     1      35.731 -18.229 -20.957  0.00  0.00    -0.471 OA
BRANCH  20  21
ATOM     21  C   UNL     1      36.521 -19.405 -20.781  0.00  0.00    +0.232 C 
BRANCH  21  23
ATOM     22  C   UNL     1      34.181 -22.370 -18.744  0.00  0.00    -0.043 C 
ATOM     23  C   UNL     1      35.703 -20.443 -20.071  0.00  0.00    +0.021 C 
ATOM     24  C   UNL     1      33.556 -21.428 -19.563  0.00  0.00    -0.007 C 
ATOM     25  C   UNL     1      35.567 -22.348 -18.589  0.00  0.00    -0.007 C 
ATOM     26  C   UNL     1      34.317 -20.465 -20.225  0.00  0.00    -0.001 C 
ATOM     27  C   UNL     1      36.328 -21.385 -19.253  0.00  0.00    -0.001 C 
BRANCH  22  28
ATOM     28  C   UNL     1      33.367 -23.398 -18.035  0.00  0.00    -0.050 C 
BRANCH  28  30
ATOM     29  O   UNL     1      32.642 -23.877 -13.929  0.00  0.00    -0.358 OA
ATOM     30  N   UNL     1      33.237 -23.117 -16.607  0.00  0.00    +0.393 N 
ATOM     31  C   UNL     1      31.854 -23.330 -16.158  0.00  0.00    -0.044 C 
ATOM     32  C   UNL     1      34.156 -23.956 -15.824  0.00  0.00    -0.044 C 
ATOM     33  C   UNL     1      33.993 -23.654 -14.337  0.00  0.00    +0.119 C 
ATOM     34  C   UNL     1      31.746 -23.043 -14.663  0.00  0.00    +0.119 C 
ATOM     35  H   UNL     1      33.481 -22.138 -16.457  0.00  0.00    -0.079 HD
ENDBRANCH  28  30
ENDBRANCH  22  28
ENDBRANCH  21  23
ENDBRANCH  20  21
ENDBRANCH   7  20
TORSDOF 6
ENDMDL
MODEL 3
REMARK VINA RESULT:     -12.8      7.861     14.823
REMARK  Name = 67335295
REMARK  6 active torsions:
REMARK  status: ('A' for Active; 'I' for Inactive)
REMARK    1  A    between atoms: N_2  and  C_14
REMARK    2  A    between atoms: C_7  and  O_20
REMARK    3  A    between atoms: O_20  and  C_21
REMARK    4  A    between atoms: C_21  and  C_23
REMARK    5  A    between atoms: C_22  and  C_28
REMARK    6  A    between atoms: C_28  and  N_30
REMARK                            x       y       z     vdW  Elec       q    Type
REMARK                         _______ _______ _______ _____ _____    ______ ____
ROOT
ATOM      1  O   UNL     1      32.520  -7.141 -19.506  0.00  0.00    -0.270 OA
ATOM      2  N   UNL     1      32.486  -7.760 -21.786  0.00  0.00    -0.265 N 
ATOM      3  C   UNL     1      32.341  -8.998 -22.543  0.00  0.00    +0.124 C 
ATOM      4  C   UNL     1      32.189 -10.008 -21.457  0.00  0.00    +0.036 C 
ATOM      5  C   UNL     1      32.434  -7.951 -20.410  0.00  0.00    +0.249 C 
ATOM      6  C   UNL     1      32.244  -9.392 -20.206  0.00  0.00    +0.054 C 
ATOM      7  C   UNL     1      32.014 -11.375 -21.555  0.00  0.00    +0.137 C 
ATOM      8  C   UNL     1      32.129 -10.095 -19.023  0.00  0.00    +0.004 C 
ATOM      9  C   UNL     1      31.895 -12.111 -20.372  0.00  0.00    +0.037 C 
ATOM     10  C   UNL     1      31.952 -11.476 -19.117  0.00  0.00    +0.003 C 
ENDROOT
BRANCH   2  14
ATOM     11  O   UNL     1      30.365  -6.053 -21.785  0.00  0.00    -0.273 OA
ATOM     12  O   UNL     1      31.978  -3.699 -25.399  0.00  0.00    -0.275 OA
ATOM     13  N   UNL     1      31.196  -4.918 -23.606  0.00  0.00    -0.254 N 
ATOM     14  C   UNL     1      32.665  -6.471 -22.400  0.00  0.00    +0.153 C 
ATOM     15  C   UNL     1      33.377  -6.594 -23.739  0.00  0.00    +0.039 C 
ATOM     16  C   UNL     1      33.513  -5.217 -24.364  0.00  0.00    +0.088 C 
ATOM     17  C   UNL     1      31.296  -5.837 -22.561  0.00  0.00    +0.246 C 
ATOM     18  C   UNL     1      32.169  -4.550 -24.531  0.00  0.00    +0.228 C 
ATOM     19  H   UNL     1      30.323  -4.473 -23.701  0.00  0.00    +0.158 HD
ENDBRANCH   2  14
BRANCH   7  20
ATOM     20  O   UNL     1      31.959 -11.996 -22.761  0.00  0.00    -0.471 OA
BRANCH  20  21
ATOM     21  C   UNL     1      33.175 -12.083 -23.505  0.00  0.00    +0.232 C 
BRANCH  21  23
ATOM     22  C   UNL     1      34.455 -16.177 -23.636  0.00  0.00    -0.043 C 
ATOM     23  C   UNL     1      33.621 -13.515 -23.550  0.00  0.00    +0.021 C 
ATOM     24  C   UNL     1      34.735 -15.393 -22.515  0.00  0.00    -0.007 C 
ATOM     25  C   UNL     1      33.758 -15.630 -24.713  0.00  0.00    -0.007 C 
ATOM     26  C   UNL     1      34.318 -14.062 -22.473  0.00  0.00    -0.001 C 
ATOM     27  C   UNL     1      33.341 -14.299 -24.670  0.00  0.00    -0.001 C 
BRANCH  22  28
ATOM     28  C   UNL     1      34.902 -17.599 -23.680  0.00  0.00    -0.050 C 
BRANCH  28  30
ATOM     29  O   UNL     1      35.851 -20.260 -20.577  0.00  0.00    -0.358 OA
ATOM     30  N   UNL     1      35.079 -18.168 -22.346  0.00  0.00    +0.393 N 
ATOM     31  C   UNL     1      34.261 -19.378 -22.182  0.00  0.00    -0.044 C 
ATOM     32  C   UNL     1      36.493 -18.479 -22.095  0.00  0.00    -0.044 C 
ATOM     33  C   UNL     1      36.652 -19.083 -20.703  0.00  0.00    +0.119 C 
ATOM     34  C   UNL     1      34.472 -19.960 -20.788  0.00  0.00    +0.119 C 
ATOM     35  H   UNL     1      34.772 -17.473 -21.666  0.00  0.00    -0.079 HD
ENDBRANCH  28  30
ENDBRANCH  22  28
ENDBRANCH  21  23
ENDBRANCH  20  21
ENDBRANCH   7  20
TORSDOF 6
ENDMDL
MODEL 4
REMARK VINA RESULT:     -12.7      2.183      5.232
REMARK  Name = 67335295
REMARK  6 active torsions:
REMARK  status: ('A' for Active; 'I' for Inactive)
REMARK    1  A    between atoms: N_2  and  C_14
REMARK    2  A    between atoms: C_7  and  O_20
REMARK    3  A    between atoms: O_20  and  C_21
REMARK    4  A    between atoms: C_21  and  C_23
REMARK    5  A    between atoms: C_22  and  C_28
REMARK    6  A    between atoms: C_28  and  N_30
REMARK                            x       y       z     vdW  Elec       q    Type
REMARK                         _______ _______ _______ _____ _____    ______ ____
ROOT
ATOM      1  O   UNL     1      32.046 -25.380 -12.693  0.00  0.00    -0.270 OA
ATOM      2  N   UNL     1      31.768 -23.972 -14.570  0.00  0.00    -0.265 N 
ATOM      3  C   UNL     1      32.634 -23.358 -15.570  0.00  0.00    +0.124 C 
ATOM      4  C   UNL     1      33.980 -23.843 -15.151  0.00  0.00    +0.036 C 
ATOM      5  C   UNL     1      32.461 -24.741 -13.643  0.00  0.00    +0.249 C 
ATOM      6  C   UNL     1      33.876 -24.654 -14.020  0.00  0.00    +0.054 C 
ATOM      7  C   UNL     1      35.214 -23.593 -15.720  0.00  0.00    +0.137 C 
ATOM      8  C   UNL     1      34.973 -25.240 -13.419  0.00  0.00    +0.004 C 
ATOM      9  C   UNL     1      36.342 -24.173 -15.130  0.00  0.00    +0.037 C 
ATOM     10  C   UNL     1      36.222 -24.990 -13.990  0.00  0.00    +0.003 C 
ENDROOT
BRANCH   2  14
ATOM     11  O   UNL     1      30.239 -25.910 -15.718  0.00  0.00    -0.273 OA
ATOM     12  O   UNL     1      26.694 -23.043 -16.361  0.00  0.00    -0.275 OA
ATOM     13  N   UNL     1      28.500 -24.438 -16.041  0.00  0.00    -0.254 N 
ATOM     14  C   UNL     1      30.339 -23.799 -14.546  0.00  0.00    +0.153 C 
ATOM     15  C   UNL     1      29.950 -22.379 -14.928  0.00  0.00    +0.039 C 
ATOM     16  C   UNL     1      28.437 -22.253 -14.921  0.00  0.00    +0.088 C 
ATOM     17  C   UNL     1      29.730 -24.812 -15.499  0.00  0.00    +0.246 C 
ATOM     18  C   UNL     1      27.795 -23.254 -15.852  0.00  0.00    +0.228 C 
ATOM     19  H   UNL     1      28.076 -25.100 -16.633  0.00  0.00    +0.158 HD
ENDBRANCH   2  14
BRANCH   7  20
ATOM     20  O   UNL     1      35.339 -22.806 -16.818  0.00  0.00    -0.471 OA
BRANCH  20  21
ATOM     21  C   UNL     1      34.241 -22.779 -17.731  0.00  0.00    +0.232 C 
BRANCH  21  23
ATOM     22  C   UNL     1      35.200 -20.170 -21.000  0.00  0.00    -0.043 C 
ATOM     23  C   UNL     1      34.576 -21.869 -18.875  0.00  0.00    +0.021 C 
ATOM     24  C   UNL     1      36.222 -20.793 -20.280  0.00  0.00    -0.007 C 
ATOM     25  C   UNL     1      33.868 -20.397 -20.656  0.00  0.00    -0.007 C 
ATOM     26  C   UNL     1      35.909 -21.642 -19.218  0.00  0.00    -0.001 C 
ATOM     27  C   UNL     1      33.556 -21.247 -19.594  0.00  0.00    -0.001 C 
BRANCH  22  28
ATOM     28  C   UNL     1      35.535 -19.262 -22.134  0.00  0.00    -0.050 C 
BRANCH  28  30
ATOM     29  O   UNL     1      34.787 -15.132 -22.103  0.00  0.00    -0.358 OA
ATOM     30  N   UNL     1      34.844 -17.978 -22.041  0.00  0.00    +0.393 N 
ATOM     31  C   UNL     1      35.386 -17.174 -20.936  0.00  0.00    -0.044 C 
ATOM     32  C   UNL     1      34.952 -17.235 -23.304  0.00  0.00    -0.044 C 
ATOM     33  C   UNL     1      34.235 -15.893 -23.179  0.00  0.00    +0.119 C 
ATOM     34  C   UNL     1      34.658 -15.834 -20.867  0.00  0.00    +0.119 C 
ATOM     35  H   UNL     1      33.859 -18.165 -21.855  0.00  0.00    -0.079 HD
ENDBRANCH  28  30
ENDBRANCH  22  28
ENDBRANCH  21  23
ENDBRANCH  20  21
ENDBRANCH   7  20
TORSDOF 6
ENDMDL
MODEL 5
REMARK VINA RESULT:     -12.7      5.364      9.710
REMARK  Name = 67335295
REMARK  6 active torsions:
REMARK  status: ('A' for Active; 'I' for Inactive)
REMARK    1  A    between atoms: N_2  and  C_14
REMARK    2  A    between atoms: C_7  and  O_20
REMARK    3  A    between atoms: O_20  and  C_21
REMARK    4  A    between atoms: C_21  and  C_23
REMARK    5  A    between atoms: C_22  and  C_28
REMARK    6  A    between atoms: C_28  and  N_30
REMARK                            x       y       z     vdW  Elec       q    Type
REMARK                         _______ _______ _______ _____ _____    ______ ____
ROOT
ATOM      1  O   UNL     1      34.941 -20.170 -23.858  0.00  0.00    -0.270 OA
ATOM      2  N   UNL     1      35.073 -19.303 -21.664  0.00  0.00    -0.265 N 
ATOM      3  C   UNL     1      34.999 -17.987 -21.041  0.00  0.00    +0.124 C 
ATOM      4  C   UNL     1      34.789 -17.099 -22.219  0.00  0.00    +0.036 C 
ATOM      5  C   UNL     1      34.929 -19.263 -23.046  0.00  0.00    +0.249 C 
ATOM      6  C   UNL     1      34.749 -17.849 -23.395  0.00  0.00    +0.054 C 
ATOM      7  C   UNL     1      34.643 -15.725 -22.263  0.00  0.00    +0.137 C 
ATOM      8  C   UNL     1      34.565 -17.278 -24.639  0.00  0.00    +0.004 C 
ATOM      9  C   UNL     1      34.456 -15.121 -23.510  0.00  0.00    +0.037 C 
ATOM     10  C   UNL     1      34.417 -15.891 -24.688  0.00  0.00    +0.003 C 
ENDROOT
BRANCH   2  14
ATOM     11  O   UNL     1      32.873 -20.533 -20.633  0.00  0.00    -0.273 OA
ATOM     12  O   UNL     1      35.334 -22.727 -17.419  0.00  0.00    -0.275 OA
ATOM     13  N   UNL     1      34.138 -21.592 -19.029  0.00  0.00    -0.254 N 
ATOM     14  C   UNL     1      35.273 -20.521 -20.924  0.00  0.00    +0.153 C 
ATOM     15  C   UNL     1      36.436 -20.390 -19.952  0.00  0.00    +0.039 C 
ATOM     16  C   UNL     1      36.588 -21.683 -19.172  0.00  0.00    +0.088 C 
ATOM     17  C   UNL     1      33.980 -20.842 -20.194  0.00  0.00    +0.246 C 
ATOM     18  C   UNL     1      35.316 -22.039 -18.440  0.00  0.00    +0.228 C 
ATOM     19  H   UNL     1      33.305 -21.837 -18.564  0.00  0.00    +0.158 HD
ENDBRANCH   2  14
BRANCH   7  20
ATOM     20  O   UNL     1      34.681 -14.975 -21.132  0.00  0.00    -0.471 OA
BRANCH  20  21
ATOM     21  C   UNL     1      33.455 -14.807 -20.419  0.00  0.00    +0.232 C 
BRANCH  21  23
ATOM     22  C   UNL     1      31.765 -10.989 -21.408  0.00  0.00    -0.043 C 
ATOM     23  C   UNL     1      32.866 -13.471 -20.765  0.00  0.00    +0.021 C 
ATOM     24  C   UNL     1      31.788 -11.420 -20.081  0.00  0.00    -0.007 C 
ATOM     25  C   UNL     1      32.293 -11.799 -22.413  0.00  0.00    -0.007 C 
ATOM     26  C   UNL     1      32.338 -12.661 -19.759  0.00  0.00    -0.001 C 
ATOM     27  C   UNL     1      32.844 -13.040 -22.091  0.00  0.00    -0.001 C 
BRANCH  22  28
ATOM     28  C   UNL     1      31.177  -9.662 -21.751  0.00  0.00    -0.050 C 
BRANCH  28  30
ATOM     29  O   UNL     1      33.264  -6.297 -23.144  0.00  0.00    -0.358 OA
ATOM     30  N   UNL     1      32.107  -8.817 -22.497  0.00  0.00    +0.393 N 
ATOM     31  C   UNL     1      31.380  -7.820 -23.294  0.00  0.00    -0.044 C 
ATOM     32  C   UNL     1      33.046  -8.146 -21.586  0.00  0.00    -0.044 C 
ATOM     33  C   UNL     1      33.998  -7.260 -22.385  0.00  0.00    +0.119 C 
ATOM     34  C   UNL     1      32.372  -6.942 -24.053  0.00  0.00    +0.119 C 
ATOM     35  H   UNL     1      32.637  -9.417 -23.128  0.00  0.00    -0.079 HD
ENDBRANCH  28  30
ENDBRANCH  22  28
ENDBRANCH  21  23
ENDBRANCH  20  21
ENDBRANCH   7  20
TORSDOF 6
ENDMDL
MODEL 6
REMARK VINA RESULT:     -12.2      6.577     14.083
REMARK  Name = 67335295
REMARK  6 active torsions:
REMARK  status: ('A' for Active; 'I' for Inactive)
REMARK    1  A    between atoms: N_2  and  C_14
REMARK    2  A    between atoms: C_7  and  O_20
REMARK    3  A    between atoms: O_20  and  C_21
REMARK    4  A    between atoms: C_21  and  C_23
REMARK    5  A    between atoms: C_22  and  C_28
REMARK    6  A    between atoms: C_28  and  N_30
REMARK                            x       y       z     vdW  Elec       q    Type
REMARK                         _______ _______ _______ _____ _____    ______ ____
ROOT
ATOM      1  O   UNL     1      31.327  -8.289 -21.516  0.00  0.00    -0.270 OA
ATOM      2  N   UNL     1      33.100  -8.986 -22.915  0.00  0.00    -0.265 N 
ATOM      3  C   UNL     1      33.754 -10.246 -23.244  0.00  0.00    +0.124 C 
ATOM      4  C   UNL     1      32.995 -11.216 -22.406  0.00  0.00    +0.036 C 
ATOM      5  C   UNL     1      32.067  -9.129 -21.996  0.00  0.00    +0.249 C 
ATOM      6  C   UNL     1      32.005 -10.559 -21.674  0.00  0.00    +0.054 C 
ATOM      7  C   UNL     1      33.156 -12.584 -22.289  0.00  0.00    +0.137 C 
ATOM      8  C   UNL     1      31.151 -11.220 -20.813  0.00  0.00    +0.004 C 
ATOM      9  C   UNL     1      32.305 -13.277 -21.423  0.00  0.00    +0.037 C 
ATOM     10  C   UNL     1      31.311 -12.600 -20.691  0.00  0.00    +0.003 C 
ENDROOT
BRANCH   2  14
ATOM     11  O   UNL     1      31.601  -8.016 -24.971  0.00  0.00    -0.273 OA
ATOM     12  O   UNL     1      35.038  -5.374 -26.522  0.00  0.00    -0.275 OA
ATOM     13  N   UNL     1      33.352  -6.728 -25.725  0.00  0.00    -0.254 N 
ATOM     14  C   UNL     1      33.484  -7.721 -23.484  0.00  0.00    +0.153 C 
ATOM     15  C   UNL     1      34.986  -7.653 -23.712  0.00  0.00    +0.039 C 
ATOM     16  C   UNL     1      35.339  -6.318 -24.342  0.00  0.00    +0.088 C 
ATOM     17  C   UNL     1      32.722  -7.544 -24.785  0.00  0.00    +0.246 C 
ATOM     18  C   UNL     1      34.592  -6.102 -25.636  0.00  0.00    +0.228 C 
ATOM     19  H   UNL     1      32.854  -6.576 -26.561  0.00  0.00    +0.158 HD
ENDBRANCH   2  14
BRANCH   7  20
ATOM     20  O   UNL     1      34.114 -13.244 -22.989  0.00  0.00    -0.471 OA
BRANCH  20  21
ATOM     21  C   UNL     1      33.690 -14.345 -23.795  0.00  0.00    +0.232 C 
BRANCH  21  23
ATOM     22  C   UNL     1      35.414 -17.957 -22.245  0.00  0.00    -0.043 C 
ATOM     23  C   UNL     1      34.291 -15.609 -23.252  0.00  0.00    +0.021 C 
ATOM     24  C   UNL     1      35.298 -16.831 -21.427  0.00  0.00    -0.007 C 
ATOM     25  C   UNL     1      34.968 -17.907 -23.565  0.00  0.00    -0.007 C 
ATOM     26  C   UNL     1      34.737 -15.657 -21.931  0.00  0.00    -0.001 C 
ATOM     27  C   UNL     1      34.406 -16.734 -24.069  0.00  0.00    -0.001 C 
BRANCH  22  28
ATOM     28  C   UNL     1      36.014 -19.210 -21.705  0.00  0.00    -0.050 C 
BRANCH  28  30
ATOM     29  O   UNL     1      33.732 -21.907 -19.439  0.00  0.00    -0.358 OA
ATOM     30  N   UNL     1      35.217 -19.788 -20.624  0.00  0.00    +0.393 N 
ATOM     31  C   UNL     1      33.874 -20.145 -21.101  0.00  0.00    -0.044 C 
ATOM     32  C   UNL     1      35.883 -20.971 -20.061  0.00  0.00    -0.044 C 
ATOM     33  C   UNL     1      35.027 -21.564 -18.945  0.00  0.00    +0.119 C 
ATOM     34  C   UNL     1      33.066 -20.756 -19.960  0.00  0.00    +0.119 C 
ATOM     35  H   UNL     1      35.127 -19.084 -19.892  0.00  0.00    -0.079 HD
ENDBRANCH  28  30
ENDBRANCH  22  28
ENDBRANCH  21  23
ENDBRANCH  20  21
ENDBRANCH   7  20
TORSDOF 6
ENDMDL
MODEL 7
REMARK VINA RESULT:     -12.2      2.282      5.049
REMARK  Name = 67335295
REMARK  6 active torsions:
REMARK  status: ('A' for Active; 'I' for Inactive)
REMARK    1  A    between atoms: N_2  and  C_14
REMARK    2  A    between atoms: C_7  and  O_20
REMARK    3  A    between atoms: O_20  and  C_21
REMARK    4  A    between atoms: C_21  and  C_23
REMARK    5  A    between atoms: C_22  and  C_28
REMARK    6  A    between atoms: C_28  and  N_30
REMARK                            x       y       z     vdW  Elec       q    Type
REMARK                         _______ _______ _______ _____ _____    ______ ____
ROOT
ATOM      1  O   UNL     1      32.961 -24.418 -13.258  0.00  0.00    -0.270 OA
ATOM      2  N   UNL     1      32.750 -23.877 -15.549  0.00  0.00    -0.265 N 
ATOM      3  C   UNL     1      33.625 -23.379 -16.603  0.00  0.00    +0.124 C 
ATOM      4  C   UNL     1      34.922 -23.231 -15.882  0.00  0.00    +0.036 C 
ATOM      5  C   UNL     1      33.394 -24.028 -14.327  0.00  0.00    +0.249 C 
ATOM      6  C   UNL     1      34.785 -23.613 -14.547  0.00  0.00    +0.054 C 
ATOM      7  C   UNL     1      36.142 -22.793 -16.361  0.00  0.00    +0.137 C 
ATOM      8  C   UNL     1      35.833 -23.576 -13.649  0.00  0.00    +0.004 C 
ATOM      9  C   UNL     1      37.221 -22.746 -15.472  0.00  0.00    +0.037 C 
ATOM     10  C   UNL     1      37.067 -23.134 -14.127  0.00  0.00    +0.003 C 
ENDROOT
BRANCH   2  14
ATOM     11  O   UNL     1      31.368 -22.353 -17.333  0.00  0.00    -0.273 OA
ATOM     12  O   UNL     1      27.318 -23.353 -15.384  0.00  0.00    -0.275 OA
ATOM     13  N   UNL     1      29.368 -22.861 -16.315  0.00  0.00    -0.254 N 
ATOM     14  C   UNL     1      31.358 -24.183 -15.753  0.00  0.00    +0.153 C 
ATOM     15  C   UNL     1      30.644 -24.408 -14.429  0.00  0.00    +0.039 C 
ATOM     16  C   UNL     1      29.177 -24.693 -14.691  0.00  0.00    +0.088 C 
ATOM     17  C   UNL     1      30.736 -23.033 -16.525  0.00  0.00    +0.246 C 
ATOM     18  C   UNL     1      28.526 -23.574 -15.467  0.00  0.00    +0.228 C 
ATOM     19  H   UNL     1      28.943 -22.141 -16.835  0.00  0.00    +0.158 HD
ENDBRANCH   2  14
BRANCH   7  20
ATOM     20  O   UNL     1      36.299 -22.415 -17.655  0.00  0.00    -0.471 OA
BRANCH  20  21
ATOM     21  C   UNL     1      35.122 -22.346 -18.462  0.00  0.00    +0.232 C 
BRANCH  21  23
ATOM     22  C   UNL     1      35.601 -19.228 -21.371  0.00  0.00    -0.043 C 
ATOM     23  C   UNL     1      35.290 -21.257 -19.480  0.00  0.00    +0.021 C 
ATOM     24  C   UNL     1      36.704 -19.682 -20.646  0.00  0.00    -0.007 C 
ATOM     25  C   UNL     1      34.343 -19.788 -21.149  0.00  0.00    -0.007 C 
ATOM     26  C   UNL     1      36.548 -20.697 -19.701  0.00  0.00    -0.001 C 
ATOM     27  C   UNL     1      34.188 -20.804 -20.205  0.00  0.00    -0.001 C 
BRANCH  22  28
ATOM     28  C   UNL     1      35.768 -18.143 -22.380  0.00  0.00    -0.050 C 
BRANCH  28  30
ATOM     29  O   UNL     1      34.351 -14.262 -21.642  0.00  0.00    -0.358 OA
ATOM     30  N   UNL     1      34.868 -17.017 -22.139  0.00  0.00    +0.393 N 
ATOM     31  C   UNL     1      35.134 -16.409 -20.828  0.00  0.00    -0.044 C 
ATOM     32  C   UNL     1      35.003 -16.007 -23.198  0.00  0.00    -0.044 C 
ATOM     33  C   UNL     1      34.065 -14.835 -22.919  0.00  0.00    +0.119 C 
ATOM     34  C   UNL     1      34.192 -15.229 -20.605  0.00  0.00    +0.119 C 
ATOM     35  H   UNL     1      33.913 -17.372 -22.147  0.00  0.00    -0.079 HD
ENDBRANCH  28  30
ENDBRANCH  22  28
ENDBRANCH  21  23
ENDBRANCH  20  21
ENDBRANCH   7  20
TORSDOF 6
ENDMDL
MODEL 8
REMARK VINA RESULT:     -12.1      2.060      3.105
REMARK  Name = 67335295
REMARK  6 active torsions:
REMARK  status: ('A' for Active; 'I' for Inactive)
REMARK    1  A    between atoms: N_2  and  C_14
REMARK    2  A    between atoms: C_7  and  O_20
REMARK    3  A    between atoms: O_20  and  C_21
REMARK    4  A    between atoms: C_21  and  C_23
REMARK    5  A    between atoms: C_22  and  C_28
REMARK    6  A    between atoms: C_28  and  N_30
REMARK                            x       y       z     vdW  Elec       q    Type
REMARK                         _______ _______ _______ _____ _____    ______ ____
ROOT
ATOM      1  O   UNL     1      33.477 -24.108 -14.271  0.00  0.00    -0.270 OA
ATOM      2  N   UNL     1      35.549 -23.879 -15.384  0.00  0.00    -0.265 N 
ATOM      3  C   UNL     1      36.007 -23.371 -16.672  0.00  0.00    +0.124 C 
ATOM      4  C   UNL     1      34.729 -22.937 -17.304  0.00  0.00    +0.036 C 
ATOM      5  C   UNL     1      34.173 -23.782 -15.215  0.00  0.00    +0.249 C 
ATOM      6  C   UNL     1      33.653 -23.179 -16.448  0.00  0.00    +0.054 C 
ATOM      7  C   UNL     1      34.518 -22.367 -18.545  0.00  0.00    +0.137 C 
ATOM      8  C   UNL     1      32.349 -22.871 -16.783  0.00  0.00    +0.004 C 
ATOM      9  C   UNL     1      33.206 -22.047 -18.909  0.00  0.00    +0.037 C 
ATOM     10  C   UNL     1      32.131 -22.296 -18.035  0.00  0.00    +0.003 C 
ENDROOT
BRANCH   2  14
ATOM     11  O   UNL     1      36.119 -26.538 -15.516  0.00  0.00    -0.273 OA
ATOM     12  O   UNL     1      37.229 -26.746 -11.052  0.00  0.00    -0.275 OA
ATOM     13  N   UNL     1      36.643 -26.602 -13.276  0.00  0.00    -0.254 N 
ATOM     14  C   UNL     1      36.433 -24.424 -14.387  0.00  0.00    +0.153 C 
ATOM     15  C   UNL     1      36.069 -23.924 -12.997  0.00  0.00    +0.039 C 
ATOM     16  C   UNL     1      37.004 -24.549 -11.978  0.00  0.00    +0.088 C 
ATOM     17  C   UNL     1      36.350 -25.937 -14.467  0.00  0.00    +0.246 C 
ATOM     18  C   UNL     1      36.955 -26.057 -12.034  0.00  0.00    +0.228 C 
ATOM     19  H   UNL     1      36.627 -27.585 -13.321  0.00  0.00    +0.158 HD
ENDBRANCH   2  14
BRANCH   7  20
ATOM     20  O   UNL     1      35.548 -22.125 -19.396  0.00  0.00    -0.471 OA
BRANCH  20  21
ATOM     21  C   UNL     1      36.194 -20.855 -19.293  0.00  0.00    +0.232 C 
BRANCH  21  23
ATOM     22  C   UNL     1      35.238 -18.515 -22.761  0.00  0.00    -0.043 C 
ATOM     23  C   UNL     1      35.858 -20.035 -20.504  0.00  0.00    +0.021 C 
ATOM     24  C   UNL     1      34.329 -19.463 -22.285  0.00  0.00    -0.007 C 
ATOM     25  C   UNL     1      36.456 -18.329 -22.108  0.00  0.00    -0.007 C 
ATOM     26  C   UNL     1      34.640 -20.222 -21.157  0.00  0.00    -0.001 C 
ATOM     27  C   UNL     1      36.766 -19.089 -20.979  0.00  0.00    -0.001 C 
BRANCH  22  28
ATOM     28  C   UNL     1      34.905 -17.704 -23.967  0.00  0.00    -0.050 C 
BRANCH  28  30
ATOM     29  O   UNL     1      34.036 -13.612 -23.620  0.00  0.00    -0.358 OA
ATOM     30  N   UNL     1      34.231 -16.452 -23.626  0.00  0.00    +0.393 N 
ATOM     31  C   UNL     1      35.078 -15.626 -22.755  0.00  0.00    -0.044 C 
ATOM     32  C   UNL     1      33.877 -15.704 -24.840  0.00  0.00    -0.044 C 
ATOM     33  C   UNL     1      33.187 -14.397 -24.460  0.00  0.00    +0.119 C 
ATOM     34  C   UNL     1      34.360 -14.321 -22.423  0.00  0.00    +0.119 C 
ATOM     35  H   UNL     1      33.375 -16.684 -23.124  0.00  0.00    -0.079 HD
ENDBRANCH  28  30
ENDBRANCH  22  28
ENDBRANCH  21  23
ENDBRANCH  20  21
ENDBRANCH   7  20
TORSDOF 6
ENDMDL
MODEL 9
REMARK VINA RESULT:     -12.0      8.547     15.676
REMARK  Name = 67335295
REMARK  6 active torsions:
REMARK  status: ('A' for Active; 'I' for Inactive)
REMARK    1  A    between atoms: N_2  and  C_14
REMARK    2  A    between atoms: C_7  and  O_20
REMARK    3  A    between atoms: O_20  and  C_21
REMARK    4  A    between atoms: C_21  and  C_23
REMARK    5  A    between atoms: C_22  and  C_28
REMARK    6  A    between atoms: C_28  and  N_30
REMARK                            x       y       z     vdW  Elec       q    Type
REMARK                         _______ _______ _______ _____ _____    ______ ____
ROOT
ATOM      1  O   UNL     1      32.837  -5.191 -20.776  0.00  0.00    -0.270 OA
ATOM      2  N   UNL     1      32.841  -6.545 -22.712  0.00  0.00    -0.265 N 
ATOM      3  C   UNL     1      32.551  -7.939 -23.028  0.00  0.00    +0.124 C 
ATOM      4  C   UNL     1      32.183  -8.488 -21.692  0.00  0.00    +0.036 C 
ATOM      5  C   UNL     1      32.680  -6.245 -21.364  0.00  0.00    +0.249 C 
ATOM      6  C   UNL     1      32.260  -7.493 -20.717  0.00  0.00    +0.054 C 
ATOM      7  C   UNL     1      31.806  -9.773 -21.349  0.00  0.00    +0.137 C 
ATOM      8  C   UNL     1      31.970  -7.727 -19.387  0.00  0.00    +0.004 C 
ATOM      9  C   UNL     1      31.508 -10.037 -20.009  0.00  0.00    +0.037 C 
ATOM     10  C   UNL     1      31.589  -9.023 -19.037  0.00  0.00    +0.003 C 
ENDROOT
BRANCH   2  14
ATOM     11  O   UNL     1      30.897  -5.087 -23.940  0.00  0.00    -0.273 OA
ATOM     12  O   UNL     1      33.562  -4.194 -27.586  0.00  0.00    -0.275 OA
ATOM     13  N   UNL     1      32.254  -4.683 -25.753  0.00  0.00    -0.254 N 
ATOM     14  C   UNL     1      33.251  -5.578 -23.696  0.00  0.00    +0.153 C 
ATOM     15  C   UNL     1      34.293  -6.160 -24.638  0.00  0.00    +0.039 C 
ATOM     16  C   UNL     1      34.670  -5.118 -25.676  0.00  0.00    +0.088 C 
ATOM     17  C   UNL     1      32.014  -5.129 -24.453  0.00  0.00    +0.246 C 
ATOM     18  C   UNL     1      33.462  -4.640 -26.444  0.00  0.00    +0.228 C 
ATOM     19  H   UNL     1      31.467  -4.357 -26.244  0.00  0.00    +0.158 HD
ENDBRANCH   2  14
BRANCH   7  20
ATOM     20  O   UNL     1      31.727 -10.758 -22.280  0.00  0.00    -0.471 OA
BRANCH  20  21
ATOM     21  C   UNL     1      31.202 -12.016 -21.856  0.00  0.00    +0.232 C 
BRANCH  21  23
ATOM     22  C   UNL     1      34.241 -15.015 -22.293  0.00  0.00    -0.043 C 
ATOM     23  C   UNL     1      32.263 -13.067 -22.009  0.00  0.00    +0.021 C 
ATOM     24  C   UNL     1      33.772 -14.675 -21.022  0.00  0.00    -0.007 C 
ATOM     25  C   UNL     1      33.720 -14.380 -23.420  0.00  0.00    -0.007 C 
ATOM     26  C   UNL     1      32.784 -13.701 -20.881  0.00  0.00    -0.001 C 
ATOM     27  C   UNL     1      32.731 -13.406 -23.278  0.00  0.00    -0.001 C 
BRANCH  22  28
ATOM     28  C   UNL     1      35.297 -16.056 -22.443  0.00  0.00    -0.050 C 
BRANCH  28  30
ATOM     29  O   UNL     1      34.888 -20.110 -23.452  0.00  0.00    -0.358 OA
ATOM     30  N   UNL     1      34.738 -17.397 -22.601  0.00  0.00    +0.393 N 
ATOM     31  C   UNL     1      34.655 -17.763 -24.022  0.00  0.00    -0.044 C 
ATOM     32  C   UNL     1      35.544 -18.387 -21.873  0.00  0.00    -0.044 C 
ATOM     33  C   UNL     1      34.949 -19.780 -22.063  0.00  0.00    +0.119 C 
ATOM     34  C   UNL     1      34.080 -19.170 -24.161  0.00  0.00    +0.119 C 
ATOM     35  H   UNL     1      33.796 -17.391 -22.210  0.00  0.00    -0.079 HD
ENDBRANCH  28  30
ENDBRANCH  22  28
ENDBRANCH  21  23
ENDBRANCH  20  21
ENDBRANCH   7  20
TORSDOF 6
ENDMDL
