MODEL 1
REMARK VINA RESULT:     -12.4      0.000      0.000
REMARK  Name = 10156987
REMARK  5 active torsions:
REMARK  status: ('A' for Active; 'I' for Inactive)
REMARK    1  A    between atoms: C_2  and  C_23
REMARK    2  A    between atoms: C_9  and  C_13
REMARK    3  A    between atoms: C_23  and  N_24
REMARK    4  A    between atoms: C_25  and  C_31
REMARK    5  A    between atoms: C_31  and  N_32
REMARK                            x       y       z     vdW  Elec       q    Type
REMARK                         _______ _______ _______ _____ _____    ______ ____
ROOT
ATOM      1  N   UNL     1      35.073 -22.030 -18.201  0.00  0.00    -0.312 N 
ATOM      2  C   UNL     1      35.328 -19.824 -21.663  0.00  0.00    -0.043 C 
ATOM      3  C   UNL     1      34.115 -20.278 -21.145  0.00  0.00    -0.005 C 
ATOM      4  C   UNL     1      36.533 -20.095 -21.027  0.00  0.00    -0.005 C 
ATOM      5  C   UNL     1      34.121 -21.028 -19.952  0.00  0.00    +0.014 C 
ATOM      6  C   UNL     1      35.344 -21.290 -19.331  0.00  0.00    +0.048 C 
ATOM      7  C   UNL     1      36.564 -20.837 -19.844  0.00  0.00    +0.014 C 
ATOM      8  C   UNL     1      33.110 -21.636 -19.157  0.00  0.00    +0.016 C 
ATOM      9  C   UNL     1      33.726 -22.244 -18.088  0.00  0.00    +0.053 C 
ATOM     10  H   UNL     1      35.751 -22.358 -17.567  0.00  0.00    +0.152 HD
ENDROOT
BRANCH   9  13
ATOM     11  O   UNL     1      35.446 -23.455 -16.154  0.00  0.00    -0.270 OA
ATOM     12  N   UNL     1      33.696 -24.295 -14.935  0.00  0.00    -0.280 N 
ATOM     13  C   UNL     1      33.254 -23.000 -16.970  0.00  0.00    +0.067 C 
ATOM     14  C   UNL     1      31.932 -23.171 -16.793  0.00  0.00    +0.007 C 
ATOM     15  C   UNL     1      34.233 -23.592 -15.997  0.00  0.00    +0.251 C 
ATOM     16  C   UNL     1      31.415 -23.930 -15.657  0.00  0.00    +0.014 C 
ATOM     17  C   UNL     1      32.318 -24.479 -14.741  0.00  0.00    +0.051 C 
ATOM     18  C   UNL     1      30.043 -24.115 -15.463  0.00  0.00    +0.001 C 
ATOM     19  C   UNL     1      31.861 -25.209 -13.641  0.00  0.00    +0.015 C 
ATOM     20  C   UNL     1      29.584 -24.844 -14.363  0.00  0.00    +0.000 C 
ATOM     21  C   UNL     1      30.491 -25.390 -13.455  0.00  0.00    +0.001 C 
ATOM     22  H   UNL     1      34.315 -24.689 -14.279  0.00  0.00    +0.155 HD
ENDBRANCH   9  13
BRANCH   2  23
ATOM     23  C   UNL     1      35.328 -19.025 -22.934  0.00  0.00    -0.050 C 
BRANCH  23  24
ATOM     24  N   UNL     1      34.692 -17.720 -22.760  0.00  0.00    +0.390 N 
ATOM     25  C   UNL     1      34.615 -14.788 -22.751  0.00  0.00    -0.026 C 
ATOM     26  C   UNL     1      34.669 -15.614 -21.461  0.00  0.00    -0.025 C 
ATOM     27  C   UNL     1      33.992 -15.624 -23.874  0.00  0.00    -0.025 C 
ATOM     28  C   UNL     1      35.356 -16.961 -21.691  0.00  0.00    -0.077 C 
ATOM     29  C   UNL     1      34.701 -16.971 -24.025  0.00  0.00    -0.077 C 
ATOM     30  H   UNL     1      33.720 -17.863 -22.487  0.00  0.00    -0.079 HD
BRANCH  25  31
ATOM     31  C   UNL     1      33.841 -13.490 -22.540  0.00  0.00    -0.086 C 
BRANCH  31  32
ATOM     32  N   UNL     1      34.259 -12.475 -23.494  0.00  0.00    +0.380 N 
ATOM     33  H   UNL     1      34.705 -11.704 -22.998  0.00  0.00    -0.089 HD
ATOM     34  H   UNL     1      33.443 -12.127 -23.999  0.00  0.00    -0.089 HD
ATOM     35  H   UNL     1      34.920 -12.882 -24.156  0.00  0.00    -0.089 HD
ENDBRANCH  31  32
ENDBRANCH  25  31
ENDBRANCH  23  24
ENDBRANCH   2  23
TORSDOF 5
ENDMDL
MODEL 2
REMARK VINA RESULT:     -12.2      2.150      2.970
REMARK  Name = 10156987
REMARK  5 active torsions:
REMARK  status: ('A' for Active; 'I' for Inactive)
REMARK    1  A    between atoms: C_2  and  C_23
REMARK    2  A    between atoms: C_9  and  C_13
REMARK    3  A    between atoms: C_23  and  N_24
REMARK    4  A    between atoms: C_25  and  C_31
REMARK    5  A    between atoms: C_31  and  N_32
REMARK                            x       y       z     vdW  Elec       q    Type
REMARK                         _______ _______ _______ _____ _____    ______ ____
ROOT
ATOM      1  N   UNL     1      36.283 -20.876 -19.095  0.00  0.00    -0.312 N 
ATOM      2  C   UNL     1      35.425 -18.782 -22.530  0.00  0.00    -0.043 C 
ATOM      3  C   UNL     1      34.493 -19.602 -21.893  0.00  0.00    -0.005 C 
ATOM      4  C   UNL     1      36.712 -18.626 -22.031  0.00  0.00    -0.005 C 
ATOM      5  C   UNL     1      34.873 -20.283 -20.719  0.00  0.00    +0.014 C 
ATOM      6  C   UNL     1      36.172 -20.112 -20.236  0.00  0.00    +0.048 C 
ATOM      7  C   UNL     1      37.112 -19.292 -20.869  0.00  0.00    +0.014 C 
ATOM      8  C   UNL     1      34.211 -21.174 -19.831  0.00  0.00    +0.016 C 
ATOM      9  C   UNL     1      35.102 -21.522 -18.843  0.00  0.00    +0.053 C 
ATOM     10  H   UNL     1      37.094 -20.948 -18.542  0.00  0.00    +0.152 HD
ENDROOT
BRANCH   9  13
ATOM     11  O   UNL     1      32.769 -23.002 -18.115  0.00  0.00    -0.270 OA
ATOM     12  N   UNL     1      33.773 -23.926 -16.273  0.00  0.00    -0.280 N 
ATOM     13  C   UNL     1      35.028 -22.368 -17.693  0.00  0.00    +0.067 C 
ATOM     14  C   UNL     1      36.097 -22.493 -16.888  0.00  0.00    +0.007 C 
ATOM     15  C   UNL     1      33.760 -23.117 -17.394  0.00  0.00    +0.251 C 
ATOM     16  C   UNL     1      36.057 -23.356 -15.710  0.00  0.00    +0.014 C 
ATOM     17  C   UNL     1      34.885 -24.063 -15.426  0.00  0.00    +0.051 C 
ATOM     18  C   UNL     1      37.162 -23.493 -14.865  0.00  0.00    +0.001 C 
ATOM     19  C   UNL     1      34.810 -24.900 -14.310  0.00  0.00    +0.015 C 
ATOM     20  C   UNL     1      37.089 -24.330 -13.748  0.00  0.00    +0.000 C 
ATOM     21  C   UNL     1      35.916 -25.031 -13.472  0.00  0.00    +0.001 C 
ATOM     22  H   UNL     1      32.957 -24.433 -16.057  0.00  0.00    +0.155 HD
ENDBRANCH   9  13
BRANCH   2  23
ATOM     23  C   UNL     1      35.026 -18.055 -23.781  0.00  0.00    -0.050 C 
BRANCH  23  24
ATOM     24  N   UNL     1      34.321 -16.808 -23.488  0.00  0.00    +0.390 N 
ATOM     25  C   UNL     1      34.032 -13.892 -23.361  0.00  0.00    -0.026 C 
ATOM     26  C   UNL     1      34.294 -14.748 -22.117  0.00  0.00    -0.025 C 
ATOM     27  C   UNL     1      33.346 -14.741 -24.437  0.00  0.00    -0.025 C 
ATOM     28  C   UNL     1      35.047 -16.031 -22.474  0.00  0.00    -0.077 C 
ATOM     29  C   UNL     1      34.130 -16.025 -24.717  0.00  0.00    -0.077 C 
ATOM     30  H   UNL     1      33.400 -17.033 -23.113  0.00  0.00    -0.079 HD
BRANCH  25  31
ATOM     31  C   UNL     1      33.194 -12.664 -23.016  0.00  0.00    -0.086 C 
BRANCH  31  32
ATOM     32  N   UNL     1      32.119 -13.010 -22.099  0.00  0.00    +0.380 N 
ATOM     33  H   UNL     1      32.344 -13.885 -21.627  0.00  0.00    -0.089 HD
ATOM     34  H   UNL     1      31.249 -13.118 -22.620  0.00  0.00    -0.089 HD
ATOM     35  H   UNL     1      32.010 -12.268 -21.406  0.00  0.00    -0.089 HD
ENDBRANCH  31  32
ENDBRANCH  25  31
ENDBRANCH  23  24
ENDBRANCH   2  23
TORSDOF 5
ENDMDL
MODEL 3
REMARK VINA RESULT:     -11.9      2.372      3.573
REMARK  Name = 10156987
REMARK  5 active torsions:
REMARK  status: ('A' for Active; 'I' for Inactive)
REMARK    1  A    between atoms: C_2  and  C_23
REMARK    2  A    between atoms: C_9  and  C_13
REMARK    3  A    between atoms: C_23  and  N_24
REMARK    4  A    between atoms: C_25  and  C_31
REMARK    5  A    between atoms: C_31  and  N_32
REMARK                            x       y       z     vdW  Elec       q    Type
REMARK                         _______ _______ _______ _____ _____    ______ ____
ROOT
ATOM      1  N   UNL     1      34.408 -22.383 -17.753  0.00  0.00    -0.312 N 
ATOM      2  C   UNL     1      35.129 -20.078 -21.082  0.00  0.00    -0.043 C 
ATOM      3  C   UNL     1      36.137 -20.460 -20.196  0.00  0.00    -0.005 C 
ATOM      4  C   UNL     1      33.809 -20.463 -20.886  0.00  0.00    -0.005 C 
ATOM      5  C   UNL     1      35.799 -21.251 -19.080  0.00  0.00    +0.014 C 
ATOM      6  C   UNL     1      34.465 -21.625 -18.901  0.00  0.00    +0.048 C 
ATOM      7  C   UNL     1      33.450 -21.247 -19.786  0.00  0.00    +0.014 C 
ATOM      8  C   UNL     1      36.537 -21.810 -18.000  0.00  0.00    +0.016 C 
ATOM      9  C   UNL     1      35.655 -22.500 -17.201  0.00  0.00    +0.053 C 
ATOM     10  H   UNL     1      33.588 -22.783 -17.382  0.00  0.00    +0.152 HD
ENDROOT
BRANCH   9  13
ATOM     11  O   UNL     1      33.447 -23.299 -15.573  0.00  0.00    -0.270 OA
ATOM     12  N   UNL     1      34.788 -24.383 -14.062  0.00  0.00    -0.280 N 
ATOM     13  C   UNL     1      35.793 -23.256 -15.995  0.00  0.00    +0.067 C 
ATOM     14  C   UNL     1      37.016 -23.623 -15.576  0.00  0.00    +0.007 C 
ATOM     15  C   UNL     1      34.572 -23.640 -15.208  0.00  0.00    +0.251 C 
ATOM     16  C   UNL     1      37.191 -24.404 -14.353  0.00  0.00    +0.014 C 
ATOM     17  C   UNL     1      36.061 -24.773 -13.616  0.00  0.00    +0.051 C 
ATOM     18  C   UNL     1      38.458 -24.790 -13.906  0.00  0.00    +0.001 C 
ATOM     19  C   UNL     1      36.189 -25.521 -12.443  0.00  0.00    +0.015 C 
ATOM     20  C   UNL     1      38.587 -25.539 -12.733  0.00  0.00    +0.000 C 
ATOM     21  C   UNL     1      37.456 -25.902 -12.004  0.00  0.00    +0.001 C 
ATOM     22  H   UNL     1      34.005 -24.655 -13.530  0.00  0.00    +0.155 HD
ENDBRANCH   9  13
BRANCH   2  23
ATOM     23  C   UNL     1      35.482 -19.235 -22.272  0.00  0.00    -0.050 C 
BRANCH  23  24
ATOM     24  N   UNL     1      34.818 -17.932 -22.236  0.00  0.00    +0.390 N 
ATOM     25  C   UNL     1      34.715 -15.004 -22.368  0.00  0.00    -0.026 C 
ATOM     26  C   UNL     1      34.618 -15.772 -21.045  0.00  0.00    -0.025 C 
ATOM     27  C   UNL     1      34.242 -15.897 -23.520  0.00  0.00    -0.025 C 
ATOM     28  C   UNL     1      35.340 -17.118 -21.129  0.00  0.00    -0.077 C 
ATOM     29  C   UNL     1      34.976 -17.239 -23.522  0.00  0.00    -0.077 C 
ATOM     30  H   UNL     1      33.822 -18.077 -22.078  0.00  0.00    -0.079 HD
BRANCH  25  31
ATOM     31  C   UNL     1      33.909 -13.709 -22.311  0.00  0.00    -0.086 C 
BRANCH  31  32
ATOM     32  N   UNL     1      34.296 -12.810 -23.387  0.00  0.00    +0.380 N 
ATOM     33  H   UNL     1      34.934 -13.291 -24.019  0.00  0.00    -0.089 HD
ATOM     34  H   UNL     1      34.760 -11.990 -22.994  0.00  0.00    -0.089 HD
ATOM     35  H   UNL     1      33.465 -12.516 -23.900  0.00  0.00    -0.089 HD
ENDBRANCH  31  32
ENDBRANCH  25  31
ENDBRANCH  23  24
ENDBRANCH   2  23
TORSDOF 5
ENDMDL
MODEL 4
REMARK VINA RESULT:     -11.8      4.628     12.435
REMARK  Name = 10156987
REMARK  5 active torsions:
REMARK  status: ('A' for Active; 'I' for Inactive)
REMARK    1  A    between atoms: C_2  and  C_23
REMARK    2  A    between atoms: C_9  and  C_13
REMARK    3  A    between atoms: C_23  and  N_24
REMARK    4  A    between atoms: C_25  and  C_31
REMARK    5  A    between atoms: C_31  and  N_32
REMARK                            x       y       z     vdW  Elec       q    Type
REMARK                         _______ _______ _______ _____ _____    ______ ____
ROOT
ATOM      1  N   UNL     1      33.401 -12.556 -21.516  0.00  0.00    -0.312 N 
ATOM      2  C   UNL     1      34.903 -16.323 -22.204  0.00  0.00    -0.043 C 
ATOM      3  C   UNL     1      34.684 -15.399 -23.227  0.00  0.00    -0.005 C 
ATOM      4  C   UNL     1      34.623 -16.015 -20.879  0.00  0.00    -0.005 C 
ATOM      5  C   UNL     1      34.166 -14.130 -22.899  0.00  0.00    +0.014 C 
ATOM      6  C   UNL     1      33.891 -13.843 -21.561  0.00  0.00    +0.048 C 
ATOM      7  C   UNL     1      34.108 -14.763 -20.530  0.00  0.00    +0.014 C 
ATOM      8  C   UNL     1      33.825 -12.973 -23.653  0.00  0.00    +0.016 C 
ATOM      9  C   UNL     1      33.358 -12.023 -22.775  0.00  0.00    +0.053 C 
ATOM     10  H   UNL     1      33.122 -12.088 -20.695  0.00  0.00    +0.152 HD
ENDROOT
BRANCH   9  13
ATOM     11  O   UNL     1      30.698 -11.219 -22.111  0.00  0.00    -0.270 OA
ATOM     12  N   UNL     1      31.072  -9.036 -22.704  0.00  0.00    -0.280 N 
ATOM     13  C   UNL     1      32.873 -10.687 -22.927  0.00  0.00    +0.067 C 
ATOM     14  C   UNL     1      33.689  -9.733 -23.409  0.00  0.00    +0.007 C 
ATOM     15  C   UNL     1      31.460 -10.353 -22.542  0.00  0.00    +0.251 C 
ATOM     16  C   UNL     1      33.228  -8.356 -23.568  0.00  0.00    +0.014 C 
ATOM     17  C   UNL     1      31.916  -8.033 -23.206  0.00  0.00    +0.051 C 
ATOM     18  C   UNL     1      34.066  -7.356 -24.070  0.00  0.00    +0.001 C 
ATOM     19  C   UNL     1      31.440  -6.726 -23.342  0.00  0.00    +0.015 C 
ATOM     20  C   UNL     1      33.593  -6.049 -24.205  0.00  0.00    +0.000 C 
ATOM     21  C   UNL     1      32.283  -5.735 -23.843  0.00  0.00    +0.001 C 
ATOM     22  H   UNL     1      30.152  -8.788 -22.454  0.00  0.00    +0.155 HD
ENDBRANCH   9  13
BRANCH   2  23
ATOM     23  C   UNL     1      35.453 -17.676 -22.547  0.00  0.00    -0.050 C 
BRANCH  23  24
ATOM     24  N   UNL     1      35.508 -18.556 -21.380  0.00  0.00    +0.390 N 
ATOM     25  C   UNL     1      36.046 -21.079 -19.984  0.00  0.00    -0.026 C 
ATOM     26  C   UNL     1      34.626 -20.617 -20.329  0.00  0.00    -0.025 C 
ATOM     27  C   UNL     1      36.973 -19.864 -19.874  0.00  0.00    -0.025 C 
ATOM     28  C   UNL     1      34.621 -19.713 -21.564  0.00  0.00    -0.077 C 
ATOM     29  C   UNL     1      36.890 -18.985 -21.124  0.00  0.00    -0.077 C 
ATOM     30  H   UNL     1      35.184 -18.038 -20.563  0.00  0.00    -0.079 HD
BRANCH  25  31
ATOM     31  C   UNL     1      36.058 -21.897 -18.695  0.00  0.00    -0.086 C 
BRANCH  31  32
ATOM     32  N   UNL     1      34.736 -22.429 -18.405  0.00  0.00    +0.380 N 
ATOM     33  H   UNL     1      34.811 -23.420 -18.179  0.00  0.00    -0.089 HD
ATOM     34  H   UNL     1      34.136 -22.311 -19.222  0.00  0.00    -0.089 HD
ATOM     35  H   UNL     1      34.333 -21.928 -17.612  0.00  0.00    -0.089 HD
ENDBRANCH  31  32
ENDBRANCH  25  31
ENDBRANCH  23  24
ENDBRANCH   2  23
TORSDOF 5
ENDMDL
MODEL 5
REMARK VINA RESULT:     -11.8      3.796     11.574
REMARK  Name = 10156987
REMARK  5 active torsions:
REMARK  status: ('A' for Active; 'I' for Inactive)
REMARK    1  A    between atoms: C_2  and  C_23
REMARK    2  A    between atoms: C_9  and  C_13
REMARK    3  A    between atoms: C_23  and  N_24
REMARK    4  A    between atoms: C_25  and  C_31
REMARK    5  A    between atoms: C_31  and  N_32
REMARK                            x       y       z     vdW  Elec       q    Type
REMARK                         _______ _______ _______ _____ _____    ______ ____
ROOT
ATOM      1  N   UNL     1      33.196 -13.991 -23.760  0.00  0.00    -0.312 N 
ATOM      2  C   UNL     1      35.301 -17.414 -22.881  0.00  0.00    -0.043 C 
ATOM      3  C   UNL     1      35.230 -16.327 -22.009  0.00  0.00    -0.005 C 
ATOM      4  C   UNL     1      34.654 -17.399 -24.111  0.00  0.00    -0.005 C 
ATOM      5  C   UNL     1      34.485 -15.193 -22.393  0.00  0.00    +0.014 C 
ATOM      6  C   UNL     1      33.844 -15.200 -23.633  0.00  0.00    +0.048 C 
ATOM      7  C   UNL     1      33.911 -16.286 -24.513  0.00  0.00    +0.014 C 
ATOM      8  C   UNL     1      34.199 -13.941 -21.782  0.00  0.00    +0.016 C 
ATOM      9  C   UNL     1      33.406 -13.224 -22.646  0.00  0.00    +0.053 C 
ATOM     10  H   UNL     1      32.661 -13.718 -24.540  0.00  0.00    +0.152 HD
ENDROOT
BRANCH   9  13
ATOM     11  O   UNL     1      31.193 -12.562 -20.964  0.00  0.00    -0.270 OA
ATOM     12  N   UNL     1      31.140 -10.383 -21.673  0.00  0.00    -0.280 N 
ATOM     13  C   UNL     1      32.808 -11.926 -22.597  0.00  0.00    +0.067 C 
ATOM     14  C   UNL     1      33.289 -10.942 -23.376  0.00  0.00    +0.007 C 
ATOM     15  C   UNL     1      31.652 -11.667 -21.673  0.00  0.00    +0.251 C 
ATOM     16  C   UNL     1      32.707  -9.602 -23.345  0.00  0.00    +0.014 C 
ATOM     17  C   UNL     1      31.636  -9.348 -22.483  0.00  0.00    +0.051 C 
ATOM     18  C   UNL     1      33.198  -8.571 -24.151  0.00  0.00    +0.001 C 
ATOM     19  C   UNL     1      31.055  -8.079 -22.423  0.00  0.00    +0.015 C 
ATOM     20  C   UNL     1      32.619  -7.301 -24.092  0.00  0.00    +0.000 C 
ATOM     21  C   UNL     1      31.550  -7.056 -23.231  0.00  0.00    +0.001 C 
ATOM     22  H   UNL     1      30.386 -10.183 -21.073  0.00  0.00    +0.155 HD
ENDBRANCH   9  13
BRANCH   2  23
ATOM     23  C   UNL     1      36.093 -18.623 -22.480  0.00  0.00    -0.050 C 
BRANCH  23  24
ATOM     24  N   UNL     1      35.538 -19.273 -21.293  0.00  0.00    +0.390 N 
ATOM     25  C   UNL     1      34.571 -21.557 -19.727  0.00  0.00    -0.026 C 
ATOM     26  C   UNL     1      33.623 -20.532 -20.360  0.00  0.00    -0.025 C 
ATOM     27  C   UNL     1      35.940 -20.913 -19.484  0.00  0.00    -0.025 C 
ATOM     28  C   UNL     1      34.243 -19.894 -21.604  0.00  0.00    -0.077 C 
ATOM     29  C   UNL     1      36.484 -20.262 -20.758  0.00  0.00    -0.077 C 
ATOM     30  H   UNL     1      35.383 -18.565 -20.575  0.00  0.00    -0.079 HD
BRANCH  25  31
ATOM     31  C   UNL     1      33.990 -22.116 -18.432  0.00  0.00    -0.086 C 
BRANCH  31  32
ATOM     32  N   UNL     1      32.564 -22.370 -18.569  0.00  0.00    +0.380 N 
ATOM     33  H   UNL     1      32.070 -21.485 -18.672  0.00  0.00    -0.089 HD
ATOM     34  H   UNL     1      32.224 -22.856 -17.739  0.00  0.00    -0.089 HD
ATOM     35  H   UNL     1      32.400 -22.950 -19.393  0.00  0.00    -0.089 HD
ENDBRANCH  31  32
ENDBRANCH  25  31
ENDBRANCH  23  24
ENDBRANCH   2  23
TORSDOF 5
ENDMDL
MODEL 6
REMARK VINA RESULT:     -11.5      6.531     10.720
REMARK  Name = 10156987
REMARK  5 active torsions:
REMARK  status: ('A' for Active; 'I' for Inactive)
REMARK    1  A    between atoms: C_2  and  C_23
REMARK    2  A    between atoms: C_9  and  C_13
REMARK    3  A    between atoms: C_23  and  N_24
REMARK    4  A    between atoms: C_25  and  C_31
REMARK    5  A    between atoms: C_31  and  N_32
REMARK                            x       y       z     vdW  Elec       q    Type
REMARK                         _______ _______ _______ _____ _____    ______ ____
ROOT
ATOM      1  N   UNL     1      32.491 -13.319 -22.322  0.00  0.00    -0.312 N 
ATOM      2  C   UNL     1      32.214  -9.232 -22.695  0.00  0.00    -0.043 C 
ATOM      3  C   UNL     1      33.191  -9.985 -23.347  0.00  0.00    -0.005 C 
ATOM      4  C   UNL     1      31.267  -9.831 -21.874  0.00  0.00    -0.005 C 
ATOM      5  C   UNL     1      33.212 -11.382 -23.162  0.00  0.00    +0.014 C 
ATOM      6  C   UNL     1      32.251 -11.963 -22.331  0.00  0.00    +0.048 C 
ATOM      7  C   UNL     1      31.268 -11.215 -21.675  0.00  0.00    +0.014 C 
ATOM      8  C   UNL     1      34.034 -12.435 -23.649  0.00  0.00    +0.016 C 
ATOM      9  C   UNL     1      33.567 -13.613 -23.116  0.00  0.00    +0.053 C 
ATOM     10  H   UNL     1      31.965 -13.981 -21.818  0.00  0.00    +0.152 HD
ENDROOT
BRANCH   9  13
ATOM     11  O   UNL     1      33.252 -15.164 -25.495  0.00  0.00    -0.270 OA
ATOM     12  N   UNL     1      34.201 -17.029 -24.559  0.00  0.00    -0.280 N 
ATOM     13  C   UNL     1      33.968 -14.981 -23.229  0.00  0.00    +0.067 C 
ATOM     14  C   UNL     1      34.525 -15.601 -22.174  0.00  0.00    +0.007 C 
ATOM     15  C   UNL     1      33.773 -15.715 -24.525  0.00  0.00    +0.251 C 
ATOM     16  C   UNL     1      34.955 -16.995 -22.259  0.00  0.00    +0.014 C 
ATOM     17  C   UNL     1      34.784 -17.685 -23.463  0.00  0.00    +0.051 C 
ATOM     18  C   UNL     1      35.534 -17.650 -21.169  0.00  0.00    +0.001 C 
ATOM     19  C   UNL     1      35.185 -19.018 -23.583  0.00  0.00    +0.015 C 
ATOM     20  C   UNL     1      35.936 -18.983 -21.287  0.00  0.00    +0.000 C 
ATOM     21  C   UNL     1      35.761 -19.665 -22.490  0.00  0.00    +0.001 C 
ATOM     22  H   UNL     1      34.090 -17.532 -25.398  0.00  0.00    +0.155 HD
ENDBRANCH   9  13
BRANCH   2  23
ATOM     23  C   UNL     1      32.188  -7.744 -22.887  0.00  0.00    -0.050 C 
BRANCH  23  24
ATOM     24  N   UNL     1      33.134  -7.307 -23.913  0.00  0.00    +0.390 N 
ATOM     25  C   UNL     1      34.708  -5.329 -25.399  0.00  0.00    -0.026 C 
ATOM     26  C   UNL     1      33.443  -5.975 -25.975  0.00  0.00    -0.025 C 
ATOM     27  C   UNL     1      35.331  -6.256 -24.351  0.00  0.00    -0.025 C 
ATOM     28  C   UNL     1      32.480  -6.399 -24.865  0.00  0.00    -0.077 C 
ATOM     29  C   UNL     1      34.306  -6.671 -23.294  0.00  0.00    -0.077 C 
ATOM     30  H   UNL     1      33.458  -8.125 -24.429  0.00  0.00    -0.079 HD
BRANCH  25  31
ATOM     31  C   UNL     1      35.708  -4.999 -26.504  0.00  0.00    -0.086 C 
BRANCH  31  32
ATOM     32  N   UNL     1      35.799  -6.089 -27.463  0.00  0.00    +0.380 N 
ATOM     33  H   UNL     1      34.942  -6.640 -27.433  0.00  0.00    -0.089 HD
ATOM     34  H   UNL     1      36.594  -6.683 -27.228  0.00  0.00    -0.089 HD
ATOM     35  H   UNL     1      35.925  -5.707 -28.401  0.00  0.00    -0.089 HD
ENDBRANCH  31  32
ENDBRANCH  25  31
ENDBRANCH  23  24
ENDBRANCH   2  23
TORSDOF 5
ENDMDL
MODEL 7
REMARK VINA RESULT:     -11.2      3.423     10.793
REMARK  Name = 10156987
REMARK  5 active torsions:
REMARK  status: ('A' for Active; 'I' for Inactive)
REMARK    1  A    between atoms: C_2  and  C_23
REMARK    2  A    between atoms: C_9  and  C_13
REMARK    3  A    between atoms: C_23  and  N_24
REMARK    4  A    between atoms: C_25  and  C_31
REMARK    5  A    between atoms: C_31  and  N_32
REMARK                            x       y       z     vdW  Elec       q    Type
REMARK                         _______ _______ _______ _____ _____    ______ ____
ROOT
ATOM      1  N   UNL     1      34.027 -15.261 -23.223  0.00  0.00    -0.312 N 
ATOM      2  C   UNL     1      35.673 -18.706 -21.692  0.00  0.00    -0.043 C 
ATOM      3  C   UNL     1      35.431 -17.574 -20.912  0.00  0.00    -0.005 C 
ATOM      4  C   UNL     1      35.365 -18.731 -23.046  0.00  0.00    -0.005 C 
ATOM      5  C   UNL     1      34.863 -16.436 -21.521  0.00  0.00    +0.014 C 
ATOM      6  C   UNL     1      34.563 -16.484 -22.884  0.00  0.00    +0.048 C 
ATOM      7  C   UNL     1      34.803 -17.615 -23.671  0.00  0.00    +0.014 C 
ATOM      8  C   UNL     1      34.489 -15.145 -21.056  0.00  0.00    +0.016 C 
ATOM      9  C   UNL     1      33.979 -14.446 -22.125  0.00  0.00    +0.053 C 
ATOM     10  H   UNL     1      33.724 -15.010 -24.125  0.00  0.00    +0.152 HD
ENDROOT
BRANCH   9  13
ATOM     11  O   UNL     1      33.984 -13.028 -24.605  0.00  0.00    -0.270 OA
ATOM     12  N   UNL     1      32.942 -11.195 -23.707  0.00  0.00    -0.280 N 
ATOM     13  C   UNL     1      33.450 -13.127 -22.285  0.00  0.00    +0.067 C 
ATOM     14  C   UNL     1      32.916 -12.491 -21.228  0.00  0.00    +0.007 C 
ATOM     15  C   UNL     1      33.486 -12.463 -23.632  0.00  0.00    +0.251 C 
ATOM     16  C   UNL     1      32.359 -11.147 -21.359  0.00  0.00    +0.014 C 
ATOM     17  C   UNL     1      32.381 -10.522 -22.609  0.00  0.00    +0.051 C 
ATOM     18  C   UNL     1      31.802 -10.475 -20.266  0.00  0.00    +0.001 C 
ATOM     19  C   UNL     1      31.856  -9.238 -22.774  0.00  0.00    +0.015 C 
ATOM     20  C   UNL     1      31.276  -9.191 -20.429  0.00  0.00    +0.000 C 
ATOM     21  C   UNL     1      31.303  -8.575 -21.680  0.00  0.00    +0.001 C 
ATOM     22  H   UNL     1      32.947 -10.738 -24.580  0.00  0.00    +0.155 HD
ENDBRANCH   9  13
BRANCH   2  23
ATOM     23  C   UNL     1      36.278 -19.920 -21.050  0.00  0.00    -0.050 C 
BRANCH  23  24
ATOM     24  N   UNL     1      35.426 -20.462 -19.991  0.00  0.00    +0.390 N 
ATOM     25  C   UNL     1      33.722 -22.493 -18.738  0.00  0.00    -0.026 C 
ATOM     26  C   UNL     1      33.152 -21.229 -19.390  0.00  0.00    -0.025 C 
ATOM     27  C   UNL     1      35.164 -22.238 -18.288  0.00  0.00    -0.025 C 
ATOM     28  C   UNL     1      34.070 -20.711 -20.499  0.00  0.00    -0.077 C 
ATOM     29  C   UNL     1      36.016 -21.687 -19.434  0.00  0.00    -0.077 C 
ATOM     30  H   UNL     1      35.360 -19.775 -19.241  0.00  0.00    -0.079 HD
BRANCH  25  31
ATOM     31  C   UNL     1      32.854 -22.947 -17.568  0.00  0.00    -0.086 C 
BRANCH  31  32
ATOM     32  N   UNL     1      33.669 -23.531 -16.514  0.00  0.00    +0.380 N 
ATOM     33  H   UNL     1      33.656 -22.920 -15.697  0.00  0.00    -0.089 HD
ATOM     34  H   UNL     1      34.628 -23.637 -16.844  0.00  0.00    -0.089 HD
ATOM     35  H   UNL     1      33.294 -24.445 -16.260  0.00  0.00    -0.089 HD
ENDBRANCH  31  32
ENDBRANCH  25  31
ENDBRANCH  23  24
ENDBRANCH   2  23
TORSDOF 5
ENDMDL
MODEL 8
REMARK VINA RESULT:     -11.0      5.973     13.659
REMARK  Name = 10156987
REMARK  5 active torsions:
REMARK  status: ('A' for Active; 'I' for Inactive)
REMARK    1  A    between atoms: C_2  and  C_23
REMARK    2  A    between atoms: C_9  and  C_13
REMARK    3  A    between atoms: C_23  and  N_24
REMARK    4  A    between atoms: C_25  and  C_31
REMARK    5  A    between atoms: C_31  and  N_32
REMARK                            x       y       z     vdW  Elec       q    Type
REMARK                         _______ _______ _______ _____ _____    ______ ____
ROOT
ATOM      1  N   UNL     1      32.168 -10.490 -21.934  0.00  0.00    -0.312 N 
ATOM      2  C   UNL     1      33.619 -13.938 -23.642  0.00  0.00    -0.043 C 
ATOM      3  C   UNL     1      34.006 -12.666 -24.065  0.00  0.00    -0.005 C 
ATOM      4  C   UNL     1      32.711 -14.111 -22.605  0.00  0.00    -0.005 C 
ATOM      5  C   UNL     1      33.457 -11.538 -23.422  0.00  0.00    +0.014 C 
ATOM      6  C   UNL     1      32.545 -11.736 -22.383  0.00  0.00    +0.048 C 
ATOM      7  C   UNL     1      32.154 -13.008 -21.953  0.00  0.00    +0.014 C 
ATOM      8  C   UNL     1      33.612 -10.133 -23.580  0.00  0.00    +0.016 C 
ATOM      9  C   UNL     1      32.807  -9.515 -22.651  0.00  0.00    +0.053 C 
ATOM     10  H   UNL     1      31.529 -10.324 -21.202  0.00  0.00    +0.152 HD
ENDROOT
BRANCH   9  13
ATOM     11  O   UNL     1      32.907  -8.471 -19.994  0.00  0.00    -0.270 OA
ATOM     12  N   UNL     1      32.364  -6.349 -20.669  0.00  0.00    -0.280 N 
ATOM     13  C   UNL     1      32.537  -8.149 -22.326  0.00  0.00    +0.067 C 
ATOM     14  C   UNL     1      32.212  -7.284 -23.302  0.00  0.00    +0.007 C 
ATOM     15  C   UNL     1      32.624  -7.687 -20.899  0.00  0.00    +0.251 C 
ATOM     16  C   UNL     1      31.939  -5.880 -23.005  0.00  0.00    +0.014 C 
ATOM     17  C   UNL     1      32.024  -5.437 -21.681  0.00  0.00    +0.051 C 
ATOM     18  C   UNL     1      31.599  -4.971 -24.012  0.00  0.00    +0.001 C 
ATOM     19  C   UNL     1      31.773  -4.101 -21.359  0.00  0.00    +0.015 C 
ATOM     20  C   UNL     1      31.348  -3.635 -23.691  0.00  0.00    +0.000 C 
ATOM     21  C   UNL     1      31.434  -3.202 -22.369  0.00  0.00    +0.001 C 
ATOM     22  H   UNL     1      32.419  -6.017 -19.743  0.00  0.00    +0.155 HD
ENDBRANCH   9  13
BRANCH   2  23
ATOM     23  C   UNL     1      34.199 -15.143 -24.323  0.00  0.00    -0.050 C 
BRANCH  23  24
ATOM     24  N   UNL     1      34.225 -16.311 -23.443  0.00  0.00    +0.390 N 
ATOM     25  C   UNL     1      35.446 -18.674 -22.209  0.00  0.00    -0.026 C 
ATOM     26  C   UNL     1      34.398 -18.776 -23.322  0.00  0.00    -0.025 C 
ATOM     27  C   UNL     1      35.276 -17.350 -21.458  0.00  0.00    -0.025 C 
ATOM     28  C   UNL     1      34.422 -17.540 -24.223  0.00  0.00    -0.077 C 
ATOM     29  C   UNL     1      35.270 -16.160 -22.421  0.00  0.00    -0.077 C 
ATOM     30  H   UNL     1      33.327 -16.381 -22.966  0.00  0.00    -0.079 HD
BRANCH  25  31
ATOM     31  C   UNL     1      35.351 -19.862 -21.255  0.00  0.00    -0.086 C 
BRANCH  31  32
ATOM     32  N   UNL     1      36.309 -19.733 -20.168  0.00  0.00    +0.380 N 
ATOM     33  H   UNL     1      36.795 -20.619 -20.036  0.00  0.00    -0.089 HD
ATOM     34  H   UNL     1      35.818 -19.483 -19.309  0.00  0.00    -0.089 HD
ATOM     35  H   UNL     1      36.986 -19.004 -20.396  0.00  0.00    -0.089 HD
ENDBRANCH  31  32
ENDBRANCH  25  31
ENDBRANCH  23  24
ENDBRANCH   2  23
TORSDOF 5
ENDMDL
MODEL 9
REMARK VINA RESULT:     -10.9      6.811     11.576
REMARK  Name = 10156987
REMARK  5 active torsions:
REMARK  status: ('A' for Active; 'I' for Inactive)
REMARK    1  A    between atoms: C_2  and  C_23
REMARK    2  A    between atoms: C_9  and  C_13
REMARK    3  A    between atoms: C_23  and  N_24
REMARK    4  A    between atoms: C_25  and  C_31
REMARK    5  A    between atoms: C_31  and  N_32
REMARK                            x       y       z     vdW  Elec       q    Type
REMARK                         _______ _______ _______ _____ _____    ______ ____
ROOT
ATOM      1  N   UNL     1      34.159 -11.995 -23.488  0.00  0.00    -0.312 N 
ATOM      2  C   UNL     1      32.016  -8.608 -22.564  0.00  0.00    -0.043 C 
ATOM      3  C   UNL     1      31.548  -9.894 -22.294  0.00  0.00    -0.005 C 
ATOM      4  C   UNL     1      33.250  -8.399 -23.168  0.00  0.00    -0.005 C 
ATOM      5  C   UNL     1      32.349 -10.999 -22.645  0.00  0.00    +0.014 C 
ATOM      6  C   UNL     1      33.585 -10.765 -23.252  0.00  0.00    +0.048 C 
ATOM      7  C   UNL     1      34.061  -9.479 -23.525  0.00  0.00    +0.014 C 
ATOM      8  C   UNL     1      32.202 -12.409 -22.527  0.00  0.00    +0.016 C 
ATOM      9  C   UNL     1      33.330 -12.994 -23.054  0.00  0.00    +0.053 C 
ATOM     10  H   UNL     1      35.038 -12.135 -23.910  0.00  0.00    +0.152 HD
ENDROOT
BRANCH   9  13
ATOM     11  O   UNL     1      33.106 -14.440 -25.509  0.00  0.00    -0.270 OA
ATOM     12  N   UNL     1      34.065 -16.328 -24.632  0.00  0.00    -0.280 N 
ATOM     13  C   UNL     1      33.760 -14.348 -23.219  0.00  0.00    +0.067 C 
ATOM     14  C   UNL     1      34.301 -15.005 -22.178  0.00  0.00    +0.007 C 
ATOM     15  C   UNL     1      33.612 -15.025 -24.551  0.00  0.00    +0.251 C 
ATOM     16  C   UNL     1      34.759 -16.386 -22.314  0.00  0.00    +0.014 C 
ATOM     17  C   UNL     1      34.632 -17.024 -23.552  0.00  0.00    +0.051 C 
ATOM     18  C   UNL     1      35.322 -17.080 -21.240  0.00  0.00    +0.001 C 
ATOM     19  C   UNL     1      35.061 -18.343 -23.722  0.00  0.00    +0.015 C 
ATOM     20  C   UNL     1      35.751 -18.399 -21.407  0.00  0.00    +0.000 C 
ATOM     21  C   UNL     1      35.621 -19.028 -22.645  0.00  0.00    +0.001 C 
ATOM     22  H   UNL     1      33.985 -16.795 -25.496  0.00  0.00    +0.155 HD
ENDBRANCH   9  13
BRANCH   2  23
ATOM     23  C   UNL     1      31.166  -7.428 -22.194  0.00  0.00    -0.050 C 
BRANCH  23  24
ATOM     24  N   UNL     1      31.727  -6.172 -22.690  0.00  0.00    +0.390 N 
ATOM     25  C   UNL     1      31.589  -3.455 -23.786  0.00  0.00    -0.026 C 
ATOM     26  C   UNL     1      31.965  -4.669 -24.642  0.00  0.00    -0.025 C 
ATOM     27  C   UNL     1      31.925  -3.733 -22.317  0.00  0.00    -0.025 C 
ATOM     28  C   UNL     1      31.341  -5.953 -24.091  0.00  0.00    -0.077 C 
ATOM     29  C   UNL     1      31.303  -5.049 -21.843  0.00  0.00    -0.077 C 
ATOM     30  H   UNL     1      32.745  -6.229 -22.650  0.00  0.00    -0.079 HD
BRANCH  25  31
ATOM     31  C   UNL     1      32.293  -2.194 -24.280  0.00  0.00    -0.086 C 
BRANCH  31  32
ATOM     32  N   UNL     1      33.018  -2.455 -25.515  0.00  0.00    +0.380 N 
ATOM     33  H   UNL     1      33.725  -1.734 -25.652  0.00  0.00    -0.089 HD
ATOM     34  H   UNL     1      32.366  -2.446 -26.300  0.00  0.00    -0.089 HD
ATOM     35  H   UNL     1      33.469  -3.368 -25.458  0.00  0.00    -0.089 HD
ENDBRANCH  31  32
ENDBRANCH  25  31
ENDBRANCH  23  24
ENDBRANCH   2  23
TORSDOF 5
ENDMDL
