MODEL 1
REMARK VINA RESULT:     -11.7      0.000      0.000
REMARK  Name = 24963036
REMARK  7 active torsions:
REMARK  status: ('A' for Active; 'I' for Inactive)
REMARK    1  A    between atoms: N_2  and  C_20
REMARK    2  A    between atoms: C_3  and  C_7
REMARK    3  A    between atoms: C_11  and  C_12
REMARK    4  A    between atoms: C_12  and  O_13
REMARK    5  A    between atoms: O_13  and  C_14
REMARK    6  A    between atoms: C_20  and  C_21
REMARK    7  A    between atoms: C_26  and  C_29
REMARK                            x       y       z     vdW  Elec       q    Type
REMARK                         _______ _______ _______ _____ _____    ______ ____
ROOT
ATOM      1  O   UNL     1      34.734 -24.290 -12.079  0.00  0.00    -0.273 OA
ATOM      2  N   UNL     1      33.284 -25.390 -13.530  0.00  0.00    -0.299 N 
ATOM      3  C   UNL     1      34.517 -24.927 -13.107  0.00  0.00    +0.241 C 
ATOM      4  H   UNL     1      33.236 -25.892 -14.375  0.00  0.00    +0.150 HD
ENDROOT
BRANCH   3   7
ATOM      5  O   UNL     1      34.112 -24.203 -16.224  0.00  0.00    -0.272 OA
ATOM      6  N   UNL     1      35.954 -24.127 -14.826  0.00  0.00    -0.271 N 
ATOM      7  C   UNL     1      35.621 -25.311 -14.046  0.00  0.00    +0.152 C 
ATOM      8  C   UNL     1      36.904 -25.657 -13.300  0.00  0.00    +0.031 C 
ATOM      9  C   UNL     1      37.592 -24.305 -13.131  0.00  0.00    +0.024 C 
ATOM     10  C   UNL     1      37.242 -23.572 -14.417  0.00  0.00    +0.094 C 
ATOM     11  C   UNL     1      35.196 -23.710 -15.909  0.00  0.00    +0.256 C 
BRANCH  11  12
ATOM     12  C   UNL     1      35.777 -22.573 -16.710  0.00  0.00    +0.227 C 
BRANCH  12  13
ATOM     13  O   UNL     1      35.419 -22.800 -18.051  0.00  0.00    -0.347 OA
BRANCH  13  14
ATOM     14  C   UNL     1      34.994 -21.608 -18.701  0.00  0.00    +0.116 C 
ATOM     15  C   UNL     1      36.021 -21.207 -19.759  0.00  0.00    +0.030 C 
ATOM     16  C   UNL     1      33.611 -21.822 -19.314  0.00  0.00    +0.030 C 
ATOM     17  C   UNL     1      35.565 -19.987 -20.553  0.00  0.00    +0.002 C 
ATOM     18  C   UNL     1      33.153 -20.602 -20.107  0.00  0.00    +0.002 C 
ATOM     19  C   UNL     1      34.181 -20.200 -21.162  0.00  0.00    +0.000 C 
ENDBRANCH  13  14
ENDBRANCH  12  13
ENDBRANCH  11  12
ENDBRANCH   3   7
BRANCH   2  20
ATOM     20  C   UNL     1      32.061 -25.173 -12.789  0.00  0.00    +0.116 C 
BRANCH  20  21
ATOM     21  C   UNL     1      30.947 -24.694 -13.673  0.00  0.00    -0.003 C 
ATOM     22  C   UNL     1      29.968 -25.589 -14.108  0.00  0.00    -0.003 C 
ATOM     23  C   UNL     1      30.890 -23.356 -14.063  0.00  0.00    -0.003 C 
ATOM     24  C   UNL     1      28.933 -25.145 -14.931  0.00  0.00    +0.002 C 
ATOM     25  C   UNL     1      29.855 -22.912 -14.885  0.00  0.00    +0.002 C 
ATOM     26  C   UNL     1      28.877 -23.806 -15.319  0.00  0.00    +0.031 C 
BRANCH  26  29
ATOM     27  N   UNL     1      26.812 -22.480 -15.701  0.00  0.00    -0.343 N 
ATOM     28  N   UNL     1      27.738 -23.744 -17.434  0.00  0.00    -0.285 NA
ATOM     29  C   UNL     1      27.798 -23.343 -16.177  0.00  0.00    +0.117 C 
ATOM     30  H   UNL     1      26.090 -22.179 -16.300  0.00  0.00    +0.144 HD
ATOM     31  H   UNL     1      26.837 -22.173 -14.766  0.00  0.00    +0.144 HD
ATOM     32  H   UNL     1      27.009 -23.432 -18.017  0.00  0.00    +0.188 HD
ENDBRANCH  26  29
ENDBRANCH  20  21
ENDBRANCH   2  20
TORSDOF 7
ENDMDL
MODEL 2
REMARK VINA RESULT:     -11.6      2.108      6.441
REMARK  Name = 24963036
REMARK  7 active torsions:
REMARK  status: ('A' for Active; 'I' for Inactive)
REMARK    1  A    between atoms: N_2  and  C_20
REMARK    2  A    between atoms: C_3  and  C_7
REMARK    3  A    between atoms: C_11  and  C_12
REMARK    4  A    between atoms: C_12  and  O_13
REMARK    5  A    between atoms: O_13  and  C_14
REMARK    6  A    between atoms: C_20  and  C_21
REMARK    7  A    between atoms: C_26  and  C_29
REMARK                            x       y       z     vdW  Elec       q    Type
REMARK                         _______ _______ _______ _____ _____    ______ ____
ROOT
ATOM      1  O   UNL     1      32.283 -25.308 -12.868  0.00  0.00    -0.273 OA
ATOM      2  N   UNL     1      34.173 -23.957 -12.724  0.00  0.00    -0.299 N 
ATOM      3  C   UNL     1      32.892 -24.276 -13.140  0.00  0.00    +0.241 C 
ATOM      4  H   UNL     1      34.557 -23.096 -13.008  0.00  0.00    +0.150 HD
ENDROOT
BRANCH   3   7
ATOM      5  O   UNL     1      34.719 -22.990 -15.467  0.00  0.00    -0.272 OA
ATOM      6  N   UNL     1      32.476 -23.550 -15.366  0.00  0.00    -0.271 N 
ATOM      7  C   UNL     1      32.277 -23.190 -13.969  0.00  0.00    +0.152 C 
ATOM      8  C   UNL     1      30.763 -23.134 -13.795  0.00  0.00    +0.031 C 
ATOM      9  C   UNL     1      30.250 -24.137 -14.826  0.00  0.00    +0.024 C 
ATOM     10  C   UNL     1      31.222 -23.974 -15.985  0.00  0.00    +0.094 C 
ATOM     11  C   UNL     1      33.680 -23.349 -16.023  0.00  0.00    +0.256 C 
BRANCH  11  12
ATOM     12  C   UNL     1      33.662 -23.612 -17.508  0.00  0.00    +0.227 C 
BRANCH  12  13
ATOM     13  O   UNL     1      34.848 -23.063 -18.028  0.00  0.00    -0.347 OA
BRANCH  13  14
ATOM     14  C   UNL     1      34.620 -22.340 -19.232  0.00  0.00    +0.116 C 
ATOM     15  C   UNL     1      33.300 -21.577 -19.130  0.00  0.00    +0.030 C 
ATOM     16  C   UNL     1      35.795 -21.399 -19.495  0.00  0.00    +0.030 C 
ATOM     17  C   UNL     1      33.057 -20.707 -20.359  0.00  0.00    +0.002 C 
ATOM     18  C   UNL     1      35.553 -20.530 -20.726  0.00  0.00    +0.002 C 
ATOM     19  C   UNL     1      34.233 -19.769 -20.624  0.00  0.00    +0.000 C 
ENDBRANCH  13  14
ENDBRANCH  12  13
ENDBRANCH  11  12
ENDBRANCH   3   7
BRANCH   2  20
ATOM     20  C   UNL     1      34.975 -24.827 -11.894  0.00  0.00    +0.116 C 
BRANCH  20  21
ATOM     21  C   UNL     1      36.271 -25.196 -12.555  0.00  0.00    -0.003 C 
ATOM     22  C   UNL     1      36.272 -25.685 -13.862  0.00  0.00    -0.003 C 
ATOM     23  C   UNL     1      37.474 -25.053 -11.863  0.00  0.00    -0.003 C 
ATOM     24  C   UNL     1      37.477 -26.030 -14.477  0.00  0.00    +0.002 C 
ATOM     25  C   UNL     1      38.678 -25.397 -12.478  0.00  0.00    +0.002 C 
ATOM     26  C   UNL     1      38.679 -25.886 -13.784  0.00  0.00    +0.031 C 
BRANCH  26  29
ATOM     27  N   UNL     1      40.917 -26.962 -13.743  0.00  0.00    -0.343 N 
ATOM     28  N   UNL     1      40.161 -25.889 -15.676  0.00  0.00    -0.285 NA
ATOM     29  C   UNL     1      39.934 -26.245 -14.424  0.00  0.00    +0.117 C 
ATOM     30  H   UNL     1      41.759 -27.196 -14.196  0.00  0.00    +0.144 HD
ATOM     31  H   UNL     1      40.768 -27.234 -12.809  0.00  0.00    +0.144 HD
ATOM     32  H   UNL     1      41.009 -26.132 -16.112  0.00  0.00    +0.188 HD
ENDBRANCH  26  29
ENDBRANCH  20  21
ENDBRANCH   2  20
TORSDOF 7
ENDMDL
MODEL 3
REMARK VINA RESULT:     -10.6      8.428     12.254
REMARK  Name = 24963036
REMARK  7 active torsions:
REMARK  status: ('A' for Active; 'I' for Inactive)
REMARK    1  A    between atoms: N_2  and  C_20
REMARK    2  A    between atoms: C_3  and  C_7
REMARK    3  A    between atoms: C_11  and  C_12
REMARK    4  A    between atoms: C_12  and  O_13
REMARK    5  A    between atoms: O_13  and  C_14
REMARK    6  A    between atoms: C_20  and  C_21
REMARK    7  A    between atoms: C_26  and  C_29
REMARK                            x       y       z     vdW  Elec       q    Type
REMARK                         _______ _______ _______ _____ _____    ______ ____
ROOT
ATOM      1  O   UNL     1      33.733 -15.245 -23.618  0.00  0.00    -0.273 OA
ATOM      2  N   UNL     1      35.093 -16.313 -22.059  0.00  0.00    -0.299 N 
ATOM      3  C   UNL     1      34.368 -15.248 -22.566  0.00  0.00    +0.241 C 
ATOM      4  H   UNL     1      35.562 -16.194 -21.202  0.00  0.00    +0.150 HD
ENDROOT
BRANCH   3   7
ATOM      5  O   UNL     1      34.272 -12.345 -23.970  0.00  0.00    -0.272 OA
ATOM      6  N   UNL     1      33.299 -13.187 -22.046  0.00  0.00    -0.271 N 
ATOM      7  C   UNL     1      34.407 -14.052 -21.664  0.00  0.00    +0.152 C 
ATOM      8  C   UNL     1      34.124 -14.428 -20.214  0.00  0.00    +0.031 C 
ATOM      9  C   UNL     1      32.600 -14.376 -20.126  0.00  0.00    +0.024 C 
ATOM     10  C   UNL     1      32.236 -13.219 -21.045  0.00  0.00    +0.094 C 
ATOM     11  C   UNL     1      33.357 -12.343 -23.144  0.00  0.00    +0.256 C 
BRANCH  11  12
ATOM     12  C   UNL     1      32.197 -11.391 -23.294  0.00  0.00    +0.227 C 
BRANCH  12  13
ATOM     13  O   UNL     1      32.747 -10.125 -23.563  0.00  0.00    -0.347 OA
BRANCH  13  14
ATOM     14  C   UNL     1      32.971  -9.376 -22.375  0.00  0.00    +0.116 C 
ATOM     15  C   UNL     1      33.260  -7.919 -22.734  0.00  0.00    +0.030 C 
ATOM     16  C   UNL     1      31.757  -9.497 -21.455  0.00  0.00    +0.030 C 
ATOM     17  C   UNL     1      33.411  -7.051 -21.488  0.00  0.00    +0.002 C 
ATOM     18  C   UNL     1      31.908  -8.631 -20.208  0.00  0.00    +0.002 C 
ATOM     19  C   UNL     1      32.199  -7.176 -20.568  0.00  0.00    +0.000 C 
ENDBRANCH  13  14
ENDBRANCH  12  13
ENDBRANCH  11  12
ENDBRANCH   3   7
BRANCH   2  20
ATOM     20  C   UNL     1      35.195 -17.590 -22.728  0.00  0.00    +0.116 C 
BRANCH  20  21
ATOM     21  C   UNL     1      35.311 -18.726 -21.754  0.00  0.00    -0.003 C 
ATOM     22  C   UNL     1      36.537 -19.001 -21.148  0.00  0.00    -0.003 C 
ATOM     23  C   UNL     1      34.195 -19.507 -21.456  0.00  0.00    -0.003 C 
ATOM     24  C   UNL     1      36.647 -20.058 -20.243  0.00  0.00    +0.002 C 
ATOM     25  C   UNL     1      34.304 -20.563 -20.551  0.00  0.00    +0.002 C 
ATOM     26  C   UNL     1      35.529 -20.839 -19.945  0.00  0.00    +0.031 C 
BRANCH  26  29
ATOM     27  N   UNL     1      36.633 -21.955 -18.021  0.00  0.00    -0.343 N 
ATOM     28  N   UNL     1      34.800 -22.955 -19.070  0.00  0.00    -0.285 NA
ATOM     29  C   UNL     1      35.643 -21.940 -19.003  0.00  0.00    +0.117 C 
ATOM     30  H   UNL     1      36.692 -22.711 -17.392  0.00  0.00    +0.144 HD
ATOM     31  H   UNL     1      37.273 -21.210 -17.957  0.00  0.00    +0.144 HD
ATOM     32  H   UNL     1      34.875 -23.701 -18.432  0.00  0.00    +0.188 HD
ENDBRANCH  26  29
ENDBRANCH  20  21
ENDBRANCH   2  20
TORSDOF 7
ENDMDL
MODEL 4
REMARK VINA RESULT:     -10.3      2.479      6.474
REMARK  Name = 24963036
REMARK  7 active torsions:
REMARK  status: ('A' for Active; 'I' for Inactive)
REMARK    1  A    between atoms: N_2  and  C_20
REMARK    2  A    between atoms: C_3  and  C_7
REMARK    3  A    between atoms: C_11  and  C_12
REMARK    4  A    between atoms: C_12  and  O_13
REMARK    5  A    between atoms: O_13  and  C_14
REMARK    6  A    between atoms: C_20  and  C_21
REMARK    7  A    between atoms: C_26  and  C_29
REMARK                            x       y       z     vdW  Elec       q    Type
REMARK                         _______ _______ _______ _____ _____    ______ ____
ROOT
ATOM      1  O   UNL     1      38.011 -24.426 -14.637  0.00  0.00    -0.273 OA
ATOM      2  N   UNL     1      36.887 -22.566 -15.473  0.00  0.00    -0.299 N 
ATOM      3  C   UNL     1      37.226 -23.491 -14.500  0.00  0.00    +0.241 C 
ATOM      4  H   UNL     1      36.244 -21.858 -15.243  0.00  0.00    +0.150 HD
ENDROOT
BRANCH   3   7
ATOM      5  O   UNL     1      34.047 -22.954 -14.603  0.00  0.00    -0.272 OA
ATOM      6  N   UNL     1      35.391 -24.119 -13.123  0.00  0.00    -0.271 N 
ATOM      7  C   UNL     1      36.537 -23.222 -13.197  0.00  0.00    +0.152 C 
ATOM      8  C   UNL     1      37.408 -23.606 -12.006  0.00  0.00    +0.031 C 
ATOM      9  C   UNL     1      37.097 -25.087 -11.803  0.00  0.00    +0.024 C 
ATOM     10  C   UNL     1      35.619 -25.185 -12.150  0.00  0.00    +0.094 C 
ATOM     11  C   UNL     1      34.202 -23.865 -13.788  0.00  0.00    +0.256 C 
BRANCH  11  12
ATOM     12  C   UNL     1      33.063 -24.799 -13.463  0.00  0.00    +0.227 C 
BRANCH  12  13
ATOM     13  O   UNL     1      32.147 -24.064 -12.690  0.00  0.00    -0.347 OA
BRANCH  13  14
ATOM     14  C   UNL     1      30.830 -24.119 -13.225  0.00  0.00    +0.116 C 
ATOM     15  C   UNL     1      30.682 -23.074 -14.331  0.00  0.00    +0.030 C 
ATOM     16  C   UNL     1      30.544 -25.528 -13.741  0.00  0.00    +0.030 C 
ATOM     17  C   UNL     1      29.316 -23.158 -15.004  0.00  0.00    +0.002 C 
ATOM     18  C   UNL     1      29.177 -25.613 -14.414  0.00  0.00    +0.002 C 
ATOM     19  C   UNL     1      29.029 -24.568 -15.517  0.00  0.00    +0.000 C 
ENDBRANCH  13  14
ENDBRANCH  12  13
ENDBRANCH  11  12
ENDBRANCH   3   7
BRANCH   2  20
ATOM     20  C   UNL     1      37.434 -22.591 -16.811  0.00  0.00    +0.116 C 
BRANCH  20  21
ATOM     21  C   UNL     1      36.462 -22.059 -17.824  0.00  0.00    -0.003 C 
ATOM     22  C   UNL     1      36.898 -21.173 -18.810  0.00  0.00    -0.003 C 
ATOM     23  C   UNL     1      35.123 -22.447 -17.779  0.00  0.00    -0.003 C 
ATOM     24  C   UNL     1      35.995 -20.677 -19.752  0.00  0.00    +0.002 C 
ATOM     25  C   UNL     1      34.221 -21.952 -18.720  0.00  0.00    +0.002 C 
ATOM     26  C   UNL     1      34.656 -21.067 -19.706  0.00  0.00    +0.031 C 
BRANCH  26  29
ATOM     27  N   UNL     1      34.153 -19.896 -21.836  0.00  0.00    -0.343 N 
ATOM     28  N   UNL     1      32.416 -20.693 -20.492  0.00  0.00    -0.285 NA
ATOM     29  C   UNL     1      33.715 -20.550 -20.686  0.00  0.00    +0.117 C 
ATOM     30  H   UNL     1      33.498 -19.554 -22.488  0.00  0.00    +0.144 HD
ATOM     31  H   UNL     1      35.117 -19.776 -21.997  0.00  0.00    +0.144 HD
ATOM     32  H   UNL     1      31.778 -20.345 -21.154  0.00  0.00    +0.188 HD
ENDBRANCH  26  29
ENDBRANCH  20  21
ENDBRANCH   2  20
TORSDOF 7
ENDMDL
MODEL 5
REMARK VINA RESULT:     -10.2      5.199      8.834
REMARK  Name = 24963036
REMARK  7 active torsions:
REMARK  status: ('A' for Active; 'I' for Inactive)
REMARK    1  A    between atoms: N_2  and  C_20
REMARK    2  A    between atoms: C_3  and  C_7
REMARK    3  A    between atoms: C_11  and  C_12
REMARK    4  A    between atoms: C_12  and  O_13
REMARK    5  A    between atoms: O_13  and  C_14
REMARK    6  A    between atoms: C_20  and  C_21
REMARK    7  A    between atoms: C_26  and  C_29
REMARK                            x       y       z     vdW  Elec       q    Type
REMARK                         _______ _______ _______ _____ _____    ______ ____
ROOT
ATOM      1  O   UNL     1      36.835 -18.775 -20.719  0.00  0.00    -0.273 OA
ATOM      2  N   UNL     1      35.597 -20.592 -19.954  0.00  0.00    -0.299 N 
ATOM      3  C   UNL     1      35.786 -19.411 -20.649  0.00  0.00    +0.241 C 
ATOM      4  H   UNL     1      34.706 -21.010 -19.973  0.00  0.00    +0.150 HD
ENDROOT
BRANCH   3   7
ATOM      5  O   UNL     1      34.776 -16.395 -20.108  0.00  0.00    -0.272 OA
ATOM      6  N   UNL     1      34.853 -17.702 -22.017  0.00  0.00    -0.271 N 
ATOM      7  C   UNL     1      34.545 -18.968 -21.364  0.00  0.00    +0.152 C 
ATOM      8  C   UNL     1      34.180 -19.913 -22.503  0.00  0.00    +0.031 C 
ATOM      9  C   UNL     1      34.987 -19.374 -23.683  0.00  0.00    +0.024 C 
ATOM     10  C   UNL     1      34.963 -17.868 -23.464  0.00  0.00    +0.094 C 
ATOM     11  C   UNL     1      34.872 -16.496 -21.333  0.00  0.00    +0.256 C 
BRANCH  11  12
ATOM     12  C   UNL     1      35.033 -15.266 -22.189  0.00  0.00    +0.227 C 
BRANCH  12  13
ATOM     13  O   UNL     1      33.738 -14.848 -22.542  0.00  0.00    -0.347 OA
BRANCH  13  14
ATOM     14  C   UNL     1      33.420 -13.572 -22.000  0.00  0.00    +0.116 C 
ATOM     15  C   UNL     1      32.896 -12.660 -23.108  0.00  0.00    +0.030 C 
ATOM     16  C   UNL     1      32.399 -13.733 -20.874  0.00  0.00    +0.030 C 
ATOM     17  C   UNL     1      32.449 -11.308 -22.560  0.00  0.00    +0.002 C 
ATOM     18  C   UNL     1      31.953 -12.381 -20.324  0.00  0.00    +0.002 C 
ATOM     19  C   UNL     1      31.431 -11.469 -21.432  0.00  0.00    +0.000 C 
ENDBRANCH  13  14
ENDBRANCH  12  13
ENDBRANCH  11  12
ENDBRANCH   3   7
BRANCH   2  20
ATOM     20  C   UNL     1      36.646 -21.242 -19.200  0.00  0.00    +0.116 C 
BRANCH  20  21
ATOM     21  C   UNL     1      36.107 -21.978 -18.008  0.00  0.00    -0.003 C 
ATOM     22  C   UNL     1      36.916 -22.180 -16.889  0.00  0.00    -0.003 C 
ATOM     23  C   UNL     1      34.798 -22.461 -18.018  0.00  0.00    -0.003 C 
ATOM     24  C   UNL     1      36.416 -22.865 -15.781  0.00  0.00    +0.002 C 
ATOM     25  C   UNL     1      34.298 -23.145 -16.911  0.00  0.00    +0.002 C 
ATOM     26  C   UNL     1      35.107 -23.347 -15.792  0.00  0.00    +0.031 C 
BRANCH  26  29
ATOM     27  N   UNL     1      34.991 -25.363 -14.347  0.00  0.00    -0.343 N 
ATOM     28  N   UNL     1      33.707 -23.477 -13.843  0.00  0.00    -0.285 NA
ATOM     29  C   UNL     1      34.586 -24.062 -14.638  0.00  0.00    +0.117 C 
ATOM     30  H   UNL     1      34.626 -25.828 -13.559  0.00  0.00    +0.144 HD
ATOM     31  H   UNL     1      35.643 -25.817 -14.929  0.00  0.00    +0.144 HD
ATOM     32  H   UNL     1      33.354 -23.958 -13.061  0.00  0.00    +0.188 HD
ENDBRANCH  26  29
ENDBRANCH  20  21
ENDBRANCH   2  20
TORSDOF 7
ENDMDL
MODEL 6
REMARK VINA RESULT:     -10.1      7.910     11.939
REMARK  Name = 24963036
REMARK  7 active torsions:
REMARK  status: ('A' for Active; 'I' for Inactive)
REMARK    1  A    between atoms: N_2  and  C_20
REMARK    2  A    between atoms: C_3  and  C_7
REMARK    3  A    between atoms: C_11  and  C_12
REMARK    4  A    between atoms: C_12  and  O_13
REMARK    5  A    between atoms: O_13  and  C_14
REMARK    6  A    between atoms: C_20  and  C_21
REMARK    7  A    between atoms: C_26  and  C_29
REMARK                            x       y       z     vdW  Elec       q    Type
REMARK                         _______ _______ _______ _____ _____    ______ ____
ROOT
ATOM      1  O   UNL     1      35.336 -14.993 -22.392  0.00  0.00    -0.273 OA
ATOM      2  N   UNL     1      34.794 -17.168 -23.019  0.00  0.00    -0.299 N 
ATOM      3  C   UNL     1      34.593 -15.801 -22.943  0.00  0.00    +0.241 C 
ATOM      4  H   UNL     1      34.125 -17.715 -23.489  0.00  0.00    +0.150 HD
ENDROOT
BRANCH   3   7
ATOM      5  O   UNL     1      32.407 -14.191 -21.200  0.00  0.00    -0.272 OA
ATOM      6  N   UNL     1      33.160 -13.952 -23.375  0.00  0.00    -0.271 N 
ATOM      7  C   UNL     1      33.340 -15.372 -23.646  0.00  0.00    +0.152 C 
ATOM      8  C   UNL     1      33.483 -15.462 -25.161  0.00  0.00    +0.031 C 
ATOM      9  C   UNL     1      34.094 -14.114 -25.540  0.00  0.00    +0.024 C 
ATOM     10  C   UNL     1      33.444 -13.148 -24.561  0.00  0.00    +0.094 C 
ATOM     11  C   UNL     1      32.634 -13.482 -22.181  0.00  0.00    +0.256 C 
BRANCH  11  12
ATOM     12  C   UNL     1      32.350 -12.002 -22.134  0.00  0.00    +0.227 C 
BRANCH  12  13
ATOM     13  O   UNL     1      31.223 -11.834 -21.310  0.00  0.00    -0.347 OA
BRANCH  13  14
ATOM     14  C   UNL     1      31.115 -10.504 -20.816  0.00  0.00    +0.116 C 
ATOM     15  C   UNL     1      31.607 -10.453 -19.370  0.00  0.00    +0.030 C 
ATOM     16  C   UNL     1      31.909  -9.557 -21.714  0.00  0.00    +0.030 C 
ATOM     17  C   UNL     1      31.603  -9.028 -18.824  0.00  0.00    +0.002 C 
ATOM     18  C   UNL     1      31.904  -8.131 -21.169  0.00  0.00    +0.002 C 
ATOM     19  C   UNL     1      32.393  -8.081 -19.724  0.00  0.00    +0.000 C 
ENDBRANCH  13  14
ENDBRANCH  12  13
ENDBRANCH  11  12
ENDBRANCH   3   7
BRANCH   2  20
ATOM     20  C   UNL     1      35.941 -17.832 -22.440  0.00  0.00    +0.116 C 
BRANCH  20  21
ATOM     21  C   UNL     1      35.539 -18.954 -21.528  0.00  0.00    -0.003 C 
ATOM     22  C   UNL     1      36.501 -19.596 -20.748  0.00  0.00    -0.003 C 
ATOM     23  C   UNL     1      34.206 -19.357 -21.463  0.00  0.00    -0.003 C 
ATOM     24  C   UNL     1      36.128 -20.641 -19.901  0.00  0.00    +0.002 C 
ATOM     25  C   UNL     1      33.833 -20.401 -20.616  0.00  0.00    +0.002 C 
ATOM     26  C   UNL     1      34.794 -21.043 -19.836  0.00  0.00    +0.031 C 
BRANCH  26  29
ATOM     27  N   UNL     1      33.122 -22.673 -18.992  0.00  0.00    -0.343 N 
ATOM     28  N   UNL     1      35.278 -22.624 -18.091  0.00  0.00    -0.285 NA
ATOM     29  C   UNL     1      34.406 -22.132 -18.954  0.00  0.00    +0.117 C 
ATOM     30  H   UNL     1      32.881 -23.411 -18.386  0.00  0.00    +0.144 HD
ATOM     31  H   UNL     1      32.457 -22.318 -19.625  0.00  0.00    +0.144 HD
ATOM     32  H   UNL     1      35.017 -23.361 -17.494  0.00  0.00    +0.188 HD
ENDBRANCH  26  29
ENDBRANCH  20  21
ENDBRANCH   2  20
TORSDOF 7
ENDMDL
MODEL 7
REMARK VINA RESULT:     -10.1      8.329     12.184
REMARK  Name = 24963036
REMARK  7 active torsions:
REMARK  status: ('A' for Active; 'I' for Inactive)
REMARK    1  A    between atoms: N_2  and  C_20
REMARK    2  A    between atoms: C_3  and  C_7
REMARK    3  A    between atoms: C_11  and  C_12
REMARK    4  A    between atoms: C_12  and  O_13
REMARK    5  A    between atoms: O_13  and  C_14
REMARK    6  A    between atoms: C_20  and  C_21
REMARK    7  A    between atoms: C_26  and  C_29
REMARK                            x       y       z     vdW  Elec       q    Type
REMARK                         _______ _______ _______ _____ _____    ______ ____
ROOT
ATOM      1  O   UNL     1      33.841 -15.361 -20.202  0.00  0.00    -0.273 OA
ATOM      2  N   UNL     1      32.972 -13.876 -21.770  0.00  0.00    -0.299 N 
ATOM      3  C   UNL     1      33.866 -14.825 -21.307  0.00  0.00    +0.241 C 
ATOM      4  H   UNL     1      33.096 -13.519 -22.679  0.00  0.00    +0.150 HD
ENDROOT
BRANCH   3   7
ATOM      5  O   UNL     1      35.769 -17.351 -20.667  0.00  0.00    -0.272 OA
ATOM      6  N   UNL     1      34.765 -16.600 -22.612  0.00  0.00    -0.271 N 
ATOM      7  C   UNL     1      34.902 -15.177 -22.332  0.00  0.00    +0.152 C 
ATOM      8  C   UNL     1      34.633 -14.492 -23.667  0.00  0.00    +0.031 C 
ATOM      9  C   UNL     1      33.684 -15.455 -24.375  0.00  0.00    +0.024 C 
ATOM     10  C   UNL     1      34.179 -16.823 -23.932  0.00  0.00    +0.094 C 
ATOM     11  C   UNL     1      35.282 -17.577 -21.776  0.00  0.00    +0.256 C 
BRANCH  11  12
ATOM     12  C   UNL     1      35.207 -18.989 -22.301  0.00  0.00    +0.227 C 
BRANCH  12  13
ATOM     13  O   UNL     1      34.011 -19.540 -21.806  0.00  0.00    -0.347 OA
BRANCH  13  14
ATOM     14  C   UNL     1      34.184 -20.129 -20.523  0.00  0.00    +0.116 C 
ATOM     15  C   UNL     1      32.959 -20.975 -20.178  0.00  0.00    +0.030 C 
ATOM     16  C   UNL     1      35.464 -20.962 -20.509  0.00  0.00    +0.030 C 
ATOM     17  C   UNL     1      33.136 -21.707 -18.852  0.00  0.00    +0.002 C 
ATOM     18  C   UNL     1      35.643 -21.695 -19.183  0.00  0.00    +0.002 C 
ATOM     19  C   UNL     1      34.418 -22.538 -18.837  0.00  0.00    +0.000 C 
ENDBRANCH  13  14
ENDBRANCH  12  13
ENDBRANCH  11  12
ENDBRANCH   3   7
BRANCH   2  20
ATOM     20  C   UNL     1      31.865 -13.383 -20.982  0.00  0.00    +0.116 C 
BRANCH  20  21
ATOM     21  C   UNL     1      31.952 -11.902 -20.756  0.00  0.00    -0.003 C 
ATOM     22  C   UNL     1      32.011 -11.032 -21.846  0.00  0.00    -0.003 C 
ATOM     23  C   UNL     1      31.976 -11.394 -19.457  0.00  0.00    -0.003 C 
ATOM     24  C   UNL     1      32.093  -9.655 -21.636  0.00  0.00    +0.002 C 
ATOM     25  C   UNL     1      32.058 -10.018 -19.247  0.00  0.00    +0.002 C 
ATOM     26  C   UNL     1      32.117  -9.148 -20.336  0.00  0.00    +0.031 C 
BRANCH  26  29
ATOM     27  N   UNL     1      31.374  -6.825 -20.799  0.00  0.00    -0.343 N 
ATOM     28  N   UNL     1      33.085  -7.230 -19.261  0.00  0.00    -0.285 NA
ATOM     29  C   UNL     1      32.204  -7.714 -20.117  0.00  0.00    +0.117 C 
ATOM     30  H   UNL     1      31.449  -5.857 -20.635  0.00  0.00    +0.144 HD
ATOM     31  H   UNL     1      30.712  -7.166 -21.444  0.00  0.00    +0.144 HD
ATOM     32  H   UNL     1      33.144  -6.259 -19.111  0.00  0.00    +0.188 HD
ENDBRANCH  26  29
ENDBRANCH  20  21
ENDBRANCH   2  20
TORSDOF 7
ENDMDL
MODEL 8
REMARK VINA RESULT:      -9.8      8.102     12.149
REMARK  Name = 24963036
REMARK  7 active torsions:
REMARK  status: ('A' for Active; 'I' for Inactive)
REMARK    1  A    between atoms: N_2  and  C_20
REMARK    2  A    between atoms: C_3  and  C_7
REMARK    3  A    between atoms: C_11  and  C_12
REMARK    4  A    between atoms: C_12  and  O_13
REMARK    5  A    between atoms: O_13  and  C_14
REMARK    6  A    between atoms: C_20  and  C_21
REMARK    7  A    between atoms: C_26  and  C_29
REMARK                            x       y       z     vdW  Elec       q    Type
REMARK                         _______ _______ _______ _____ _____    ______ ____
ROOT
ATOM      1  O   UNL     1      34.508 -15.575 -20.424  0.00  0.00    -0.273 OA
ATOM      2  N   UNL     1      33.428 -14.436 -22.144  0.00  0.00    -0.299 N 
ATOM      3  C   UNL     1      34.380 -15.288 -21.612  0.00  0.00    +0.241 C 
ATOM      4  H   UNL     1      33.426 -14.285 -23.116  0.00  0.00    +0.150 HD
ENDROOT
BRANCH   3   7
ATOM      5  O   UNL     1      36.083 -17.907 -20.805  0.00  0.00    -0.272 OA
ATOM      6  N   UNL     1      34.966 -17.300 -22.739  0.00  0.00    -0.271 N 
ATOM      7  C   UNL     1      35.268 -15.876 -22.667  0.00  0.00    +0.152 C 
ATOM      8  C   UNL     1      34.934 -15.338 -24.053  0.00  0.00    +0.031 C 
ATOM      9  C   UNL     1      33.829 -16.273 -24.539  0.00  0.00    +0.024 C 
ATOM     10  C   UNL     1      34.231 -17.621 -23.960  0.00  0.00    +0.094 C 
ATOM     11  C   UNL     1      35.467 -18.216 -21.827  0.00  0.00    +0.256 C 
BRANCH  11  12
ATOM     12  C   UNL     1      35.202 -19.665 -22.148  0.00  0.00    +0.227 C 
BRANCH  12  13
ATOM     13  O   UNL     1      33.963 -19.987 -21.565  0.00  0.00    -0.347 OA
BRANCH  13  14
ATOM     14  C   UNL     1      34.111 -20.497 -20.245  0.00  0.00    +0.116 C 
ATOM     15  C   UNL     1      32.884 -21.332 -19.878  0.00  0.00    +0.030 C 
ATOM     16  C   UNL     1      35.396 -21.317 -20.152  0.00  0.00    +0.030 C 
ATOM     17  C   UNL     1      33.036 -21.983 -18.507  0.00  0.00    +0.002 C 
ATOM     18  C   UNL     1      35.550 -21.968 -18.780  0.00  0.00    +0.002 C 
ATOM     19  C   UNL     1      34.323 -22.800 -18.414  0.00  0.00    +0.000 C 
ENDBRANCH  13  14
ENDBRANCH  12  13
ENDBRANCH  11  12
ENDBRANCH   3   7
BRANCH   2  20
ATOM     20  C   UNL     1      32.436 -13.759 -21.339  0.00  0.00    +0.116 C 
BRANCH  20  21
ATOM     21  C   UNL     1      32.183 -12.360 -21.821  0.00  0.00    -0.003 C 
ATOM     22  C   UNL     1      32.890 -11.861 -22.915  0.00  0.00    -0.003 C 
ATOM     23  C   UNL     1      31.244 -11.558 -21.173  0.00  0.00    -0.003 C 
ATOM     24  C   UNL     1      32.657 -10.560 -23.363  0.00  0.00    +0.002 C 
ATOM     25  C   UNL     1      31.010 -10.258 -21.621  0.00  0.00    +0.002 C 
ATOM     26  C   UNL     1      31.716  -9.758 -22.715  0.00  0.00    +0.031 C 
BRANCH  26  29
ATOM     27  N   UNL     1      31.046  -7.402 -22.309  0.00  0.00    -0.343 N 
ATOM     28  N   UNL     1      31.653  -8.102 -24.454  0.00  0.00    -0.285 NA
ATOM     29  C   UNL     1      31.473  -8.403 -23.180  0.00  0.00    +0.117 C 
ATOM     30  H   UNL     1      30.888  -6.490 -22.645  0.00  0.00    +0.144 HD
ATOM     31  H   UNL     1      30.903  -7.607 -21.356  0.00  0.00    +0.144 HD
ATOM     32  H   UNL     1      31.489  -7.185 -24.771  0.00  0.00    +0.188 HD
ENDBRANCH  26  29
ENDBRANCH  20  21
ENDBRANCH   2  20
TORSDOF 7
ENDMDL
MODEL 9
REMARK VINA RESULT:      -9.8      3.967      7.043
REMARK  Name = 24963036
REMARK  7 active torsions:
REMARK  status: ('A' for Active; 'I' for Inactive)
REMARK    1  A    between atoms: N_2  and  C_20
REMARK    2  A    between atoms: C_3  and  C_7
REMARK    3  A    between atoms: C_11  and  C_12
REMARK    4  A    between atoms: C_12  and  O_13
REMARK    5  A    between atoms: O_13  and  C_14
REMARK    6  A    between atoms: C_20  and  C_21
REMARK    7  A    between atoms: C_26  and  C_29
REMARK                            x       y       z     vdW  Elec       q    Type
REMARK                         _______ _______ _______ _____ _____    ______ ____
ROOT
ATOM      1  O   UNL     1      33.118 -20.501 -19.849  0.00  0.00    -0.273 OA
ATOM      2  N   UNL     1      33.959 -22.425 -18.843  0.00  0.00    -0.299 N 
ATOM      3  C   UNL     1      33.983 -21.366 -19.734  0.00  0.00    +0.241 C 
ATOM      4  H   UNL     1      34.714 -23.056 -18.844  0.00  0.00    +0.150 HD
ENDROOT
BRANCH   3   7
ATOM      5  O   UNL     1      33.875 -19.729 -22.512  0.00  0.00    -0.272 OA
ATOM      6  N   UNL     1      35.514 -19.963 -20.895  0.00  0.00    -0.271 N 
ATOM      7  C   UNL     1      35.228 -21.354 -20.568  0.00  0.00    +0.152 C 
ATOM      8  C   UNL     1      36.444 -21.823 -19.777  0.00  0.00    +0.031 C 
ATOM      9  C   UNL     1      36.946 -20.547 -19.107  0.00  0.00    +0.024 C 
ATOM     10  C   UNL     1      36.670 -19.473 -20.149  0.00  0.00    +0.094 C 
ATOM     11  C   UNL     1      34.849 -19.283 -21.903  0.00  0.00    +0.256 C 
BRANCH  11  12
ATOM     12  C   UNL     1      35.387 -17.912 -22.227  0.00  0.00    +0.227 C 
BRANCH  12  13
ATOM     13  O   UNL     1      35.051 -17.654 -23.568  0.00  0.00    -0.347 OA
BRANCH  13  14
ATOM     14  C   UNL     1      34.876 -16.264 -23.818  0.00  0.00    +0.116 C 
ATOM     15  C   UNL     1      33.715 -16.061 -24.791  0.00  0.00    +0.030 C 
ATOM     16  C   UNL     1      34.638 -15.532 -22.499  0.00  0.00    +0.030 C 
ATOM     17  C   UNL     1      33.423 -14.580 -25.017  0.00  0.00    +0.002 C 
ATOM     18  C   UNL     1      34.347 -14.051 -22.724  0.00  0.00    +0.002 C 
ATOM     19  C   UNL     1      33.189 -13.848 -23.697  0.00  0.00    +0.000 C 
ENDBRANCH  13  14
ENDBRANCH  12  13
ENDBRANCH  11  12
ENDBRANCH   3   7
BRANCH   2  20
ATOM     20  C   UNL     1      32.878 -22.648 -17.910  0.00  0.00    +0.116 C 
BRANCH  20  21
ATOM     21  C   UNL     1      33.376 -23.125 -16.577  0.00  0.00    -0.003 C 
ATOM     22  C   UNL     1      34.747 -23.195 -16.329  0.00  0.00    -0.003 C 
ATOM     23  C   UNL     1      32.469 -23.501 -15.586  0.00  0.00    -0.003 C 
ATOM     24  C   UNL     1      35.211 -23.639 -15.091  0.00  0.00    +0.002 C 
ATOM     25  C   UNL     1      32.932 -23.945 -14.348  0.00  0.00    +0.002 C 
ATOM     26  C   UNL     1      34.303 -24.014 -14.100  0.00  0.00    +0.031 C 
BRANCH  26  29
ATOM     27  N   UNL     1      35.670 -25.550 -12.709  0.00  0.00    -0.343 N 
ATOM     28  N   UNL     1      34.384 -23.880 -11.702  0.00  0.00    -0.285 NA
ATOM     29  C   UNL     1      34.786 -24.478 -12.809  0.00  0.00    +0.117 C 
ATOM     30  H   UNL     1      35.986 -25.848 -11.825  0.00  0.00    +0.144 HD
ATOM     31  H   UNL     1      35.979 -26.011 -13.523  0.00  0.00    +0.144 HD
ATOM     32  H   UNL     1      34.710 -24.192 -10.828  0.00  0.00    +0.188 HD
ENDBRANCH  26  29
ENDBRANCH  20  21
ENDBRANCH   2  20
TORSDOF 7
ENDMDL
