MODEL 1
REMARK VINA RESULT:     -12.3      0.000      0.000
REMARK  Name = 24883488
REMARK  8 active torsions:
REMARK  status: ('A' for Active; 'I' for Inactive)
REMARK    1  A    between atoms: N_2  and  C_11
REMARK    2  A    between atoms: C_3  and  C_19
REMARK    3  A    between atoms: C_19  and  C_20
REMARK    4  A    between atoms: C_20  and  C_23
REMARK    5  A    between atoms: N_22  and  C_25
REMARK    6  A    between atoms: C_27  and  O_31
REMARK    7  A    between atoms: O_31  and  C_32
REMARK    8  A    between atoms: C_32  and  C_34
REMARK                            x       y       z     vdW  Elec       q    Type
REMARK                         _______ _______ _______ _____ _____    ______ ____
ROOT
ATOM      1  O   UNL     1      34.015 -18.546 -24.224  0.00  0.00    -0.275 OA
ATOM      2  N   UNL     1      35.530 -17.677 -22.646  0.00  0.00    -0.284 N 
ATOM      3  C   UNL     1      34.750 -17.656 -23.809  0.00  0.00    +0.227 C 
ATOM      4  H   UNL     1      36.081 -16.877 -22.484  0.00  0.00    +0.155 HD
ENDROOT
BRANCH   2  11
ATOM      5  O   UNL     1      32.261 -20.833 -20.310  0.00  0.00    -0.282 OA
ATOM      6  O   UNL     1      37.039 -22.074 -18.283  0.00  0.00    -0.270 OA
ATOM      7  O   UNL     1      32.471 -22.749 -18.488  0.00  0.00    -0.266 OA
ATOM      8  N   UNL     1      34.767 -22.414 -18.379  0.00  0.00    -0.246 N 
ATOM      9  C   UNL     1      34.581 -20.375 -20.309  0.00  0.00    +0.049 C 
ATOM     10  C   UNL     1      35.822 -20.712 -19.770  0.00  0.00    +0.057 C 
ATOM     11  C   UNL     1      35.626 -18.686 -21.687  0.00  0.00    +0.050 C 
ATOM     12  C   UNL     1      34.479 -19.361 -21.269  0.00  0.00    +0.018 C 
ATOM     13  C   UNL     1      36.969 -20.031 -20.193  0.00  0.00    +0.006 C 
ATOM     14  C   UNL     1      36.869 -19.020 -21.151  0.00  0.00    +0.015 C 
ATOM     15  C   UNL     1      33.372 -21.084 -19.871  0.00  0.00    +0.249 C 
ATOM     16  C   UNL     1      35.945 -21.780 -18.755  0.00  0.00    +0.252 C 
ATOM     17  C   UNL     1      33.487 -22.168 -18.842  0.00  0.00    +0.291 C 
ATOM     18  H   UNL     1      34.854 -23.125 -17.703  0.00  0.00    +0.158 HD
ENDBRANCH   2  11
BRANCH   3  19
ATOM     19  C   UNL     1      34.923 -16.368 -24.597  0.00  0.00    +0.095 C 
BRANCH  19  20
ATOM     20  C   UNL     1      33.683 -15.484 -24.492  0.00  0.00    +0.095 C 
BRANCH  20  23
ATOM     21  O   UNL     1      34.799 -14.484 -22.630  0.00  0.00    -0.275 OA
ATOM     22  N   UNL     1      32.619 -13.783 -23.158  0.00  0.00    -0.284 N 
ATOM     23  C   UNL     1      33.777 -14.537 -23.307  0.00  0.00    +0.227 C 
ATOM     24  H   UNL     1      31.905 -13.950 -23.816  0.00  0.00    +0.155 HD
BRANCH  22  25
ATOM     25  C   UNL     1      32.344 -12.807 -22.174  0.00  0.00    +0.053 C 
ATOM     26  C   UNL     1      32.164 -11.474 -22.545  0.00  0.00    +0.052 C 
ATOM     27  C   UNL     1      31.893 -10.509 -21.574  0.00  0.00    +0.140 C 
ATOM     28  C   UNL     1      32.252 -13.175 -20.832  0.00  0.00    +0.015 C 
ATOM     29  C   UNL     1      31.801 -10.879 -20.232  0.00  0.00    +0.037 C 
ATOM     30  C   UNL     1      31.980 -12.212 -19.861  0.00  0.00    +0.004 C 
BRANCH  27  31
ATOM     31  O   UNL     1      31.718  -9.209 -21.935  0.00  0.00    -0.472 OA
BRANCH  31  32
ATOM     32  C   UNL     1      32.827  -8.331 -21.757  0.00  0.00    +0.243 C 
BRANCH  32  34
ATOM     33  F   UNL     1      32.842  -7.507 -19.571  0.00  0.00    -0.230 F 
ATOM     34  C   UNL     1      32.417  -7.209 -20.830  0.00  0.00    +0.240 C 
ENDBRANCH  32  34
ENDBRANCH  31  32
ENDBRANCH  27  31
ENDBRANCH  22  25
ENDBRANCH  20  23
ENDBRANCH  19  20
ENDBRANCH   3  19
TORSDOF 8
ENDMDL
MODEL 2
REMARK VINA RESULT:     -12.0      4.446      7.507
REMARK  Name = 24883488
REMARK  8 active torsions:
REMARK  status: ('A' for Active; 'I' for Inactive)
REMARK    1  A    between atoms: N_2  and  C_11
REMARK    2  A    between atoms: C_3  and  C_19
REMARK    3  A    between atoms: C_19  and  C_20
REMARK    4  A    between atoms: C_20  and  C_23
REMARK    5  A    between atoms: N_22  and  C_25
REMARK    6  A    between atoms: C_27  and  O_31
REMARK    7  A    between atoms: O_31  and  C_32
REMARK    8  A    between atoms: C_32  and  C_34
REMARK                            x       y       z     vdW  Elec       q    Type
REMARK                         _______ _______ _______ _____ _____    ______ ____
ROOT
ATOM      1  O   UNL     1      33.780 -24.300 -17.684  0.00  0.00    -0.275 OA
ATOM      2  N   UNL     1      34.977 -22.461 -16.831  0.00  0.00    -0.284 N 
ATOM      3  C   UNL     1      34.079 -23.111 -17.688  0.00  0.00    +0.227 C 
ATOM      4  H   UNL     1      35.112 -21.501 -17.000  0.00  0.00    +0.155 HD
ENDROOT
BRANCH   2  11
ATOM      5  O   UNL     1      33.855 -24.443 -12.258  0.00  0.00    -0.282 OA
ATOM      6  O   UNL     1      39.173 -24.731 -12.602  0.00  0.00    -0.270 OA
ATOM      7  O   UNL     1      35.260 -25.468 -10.255  0.00  0.00    -0.266 OA
ATOM      8  N   UNL     1      37.230 -25.099 -11.427  0.00  0.00    -0.246 N 
ATOM      9  C   UNL     1      35.772 -24.005 -13.572  0.00  0.00    +0.049 C 
ATOM     10  C   UNL     1      37.162 -24.088 -13.645  0.00  0.00    +0.057 C 
ATOM     11  C   UNL     1      35.703 -23.001 -15.770  0.00  0.00    +0.050 C 
ATOM     12  C   UNL     1      35.039 -23.461 -14.633  0.00  0.00    +0.018 C 
ATOM     13  C   UNL     1      37.824 -23.624 -14.789  0.00  0.00    +0.006 C 
ATOM     14  C   UNL     1      37.093 -23.083 -15.848  0.00  0.00    +0.015 C 
ATOM     15  C   UNL     1      35.069 -24.489 -12.376  0.00  0.00    +0.249 C 
ATOM     16  C   UNL     1      37.949 -24.659 -12.532  0.00  0.00    +0.252 C 
ATOM     17  C   UNL     1      35.860 -25.069 -11.242  0.00  0.00    +0.291 C 
ATOM     18  H   UNL     1      37.759 -25.478 -10.689  0.00  0.00    +0.158 HD
ENDBRANCH   2  11
BRANCH   3  19
ATOM     19  C   UNL     1      33.488 -22.170 -18.725  0.00  0.00    +0.095 C 
BRANCH  19  20
ATOM     20  C   UNL     1      34.582 -21.458 -19.516  0.00  0.00    +0.095 C 
BRANCH  20  23
ATOM     21  O   UNL     1      32.783 -20.276 -20.555  0.00  0.00    -0.275 OA
ATOM     22  N   UNL     1      34.980 -19.869 -21.282  0.00  0.00    -0.284 N 
ATOM     23  C   UNL     1      33.993 -20.476 -20.514  0.00  0.00    +0.227 C 
ATOM     24  H   UNL     1      35.907 -20.141 -21.091  0.00  0.00    +0.155 HD
BRANCH  22  25
ATOM     25  C   UNL     1      34.811 -18.908 -22.305  0.00  0.00    +0.053 C 
ATOM     26  C   UNL     1      35.134 -17.572 -22.067  0.00  0.00    +0.052 C 
ATOM     27  C   UNL     1      34.968 -16.623 -23.076  0.00  0.00    +0.140 C 
ATOM     28  C   UNL     1      34.322 -19.295 -23.552  0.00  0.00    +0.015 C 
ATOM     29  C   UNL     1      34.478 -17.012 -24.324  0.00  0.00    +0.037 C 
ATOM     30  C   UNL     1      34.155 -18.348 -24.562  0.00  0.00    +0.004 C 
BRANCH  27  31
ATOM     31  O   UNL     1      35.282 -15.320 -22.845  0.00  0.00    -0.472 OA
BRANCH  31  32
ATOM     32  C   UNL     1      34.208 -14.382 -22.851  0.00  0.00    +0.243 C 
BRANCH  32  34
ATOM     33  F   UNL     1      34.762 -14.497 -20.585  0.00  0.00    -0.230 F 
ATOM     34  C   UNL     1      33.748 -14.158 -21.428  0.00  0.00    +0.240 C 
ENDBRANCH  32  34
ENDBRANCH  31  32
ENDBRANCH  27  31
ENDBRANCH  22  25
ENDBRANCH  20  23
ENDBRANCH  19  20
ENDBRANCH   3  19
TORSDOF 8
ENDMDL
MODEL 3
REMARK VINA RESULT:     -12.0      6.156      9.803
REMARK  Name = 24883488
REMARK  8 active torsions:
REMARK  status: ('A' for Active; 'I' for Inactive)
REMARK    1  A    between atoms: N_2  and  C_11
REMARK    2  A    between atoms: C_3  and  C_19
REMARK    3  A    between atoms: C_19  and  C_20
REMARK    4  A    between atoms: C_20  and  C_23
REMARK    5  A    between atoms: N_22  and  C_25
REMARK    6  A    between atoms: C_27  and  O_31
REMARK    7  A    between atoms: O_31  and  C_32
REMARK    8  A    between atoms: C_32  and  C_34
REMARK                            x       y       z     vdW  Elec       q    Type
REMARK                         _______ _______ _______ _____ _____    ______ ____
ROOT
ATOM      1  O   UNL     1      35.692 -25.117 -15.409  0.00  0.00    -0.275 OA
ATOM      2  N   UNL     1      34.506 -23.524 -14.146  0.00  0.00    -0.284 N 
ATOM      3  C   UNL     1      35.645 -24.106 -14.715  0.00  0.00    +0.227 C 
ATOM      4  H   UNL     1      34.663 -22.724 -13.593  0.00  0.00    +0.155 HD
ENDROOT
BRANCH   2  11
ATOM      5  O   UNL     1      30.500 -22.188 -17.021  0.00  0.00    -0.282 OA
ATOM      6  O   UNL     1      28.682 -26.104 -13.884  0.00  0.00    -0.270 OA
ATOM      7  O   UNL     1      27.977 -22.984 -17.221  0.00  0.00    -0.266 OA
ATOM      8  N   UNL     1      28.324 -24.553 -15.544  0.00  0.00    -0.246 N 
ATOM      9  C   UNL     1      31.005 -23.733 -15.304  0.00  0.00    +0.049 C 
ATOM     10  C   UNL     1      30.514 -24.756 -14.492  0.00  0.00    +0.057 C 
ATOM     11  C   UNL     1      33.177 -23.932 -14.260  0.00  0.00    +0.050 C 
ATOM     12  C   UNL     1      32.337 -23.318 -15.190  0.00  0.00    +0.018 C 
ATOM     13  C   UNL     1      31.361 -25.367 -13.561  0.00  0.00    +0.006 C 
ATOM     14  C   UNL     1      32.691 -24.955 -13.448  0.00  0.00    +0.015 C 
ATOM     15  C   UNL     1      30.124 -23.086 -16.283  0.00  0.00    +0.249 C 
ATOM     16  C   UNL     1      29.110 -25.203 -14.600  0.00  0.00    +0.252 C 
ATOM     17  C   UNL     1      28.698 -23.533 -16.400  0.00  0.00    +0.291 C 
ATOM     18  H   UNL     1      27.389 -24.855 -15.612  0.00  0.00    +0.158 HD
ENDBRANCH   2  11
BRANCH   3  19
ATOM     19  C   UNL     1      36.918 -23.361 -14.351  0.00  0.00    +0.095 C 
BRANCH  19  20
ATOM     20  C   UNL     1      37.786 -23.113 -15.582  0.00  0.00    +0.095 C 
BRANCH  20  23
ATOM     21  O   UNL     1      37.498 -20.913 -16.471  0.00  0.00    -0.275 OA
ATOM     22  N   UNL     1      36.219 -22.674 -17.358  0.00  0.00    -0.284 N 
ATOM     23  C   UNL     1      37.152 -22.090 -16.509  0.00  0.00    +0.227 C 
ATOM     24  H   UNL     1      36.089 -23.645 -17.257  0.00  0.00    +0.155 HD
BRANCH  22  25
ATOM     25  C   UNL     1      35.435 -22.040 -18.349  0.00  0.00    +0.053 C 
ATOM     26  C   UNL     1      36.042 -21.219 -19.300  0.00  0.00    +0.052 C 
ATOM     27  C   UNL     1      35.268 -20.593 -20.277  0.00  0.00    +0.140 C 
ATOM     28  C   UNL     1      34.055 -22.235 -18.375  0.00  0.00    +0.015 C 
ATOM     29  C   UNL     1      33.887 -20.789 -20.303  0.00  0.00    +0.037 C 
ATOM     30  C   UNL     1      33.280 -21.610 -19.352  0.00  0.00    +0.004 C 
BRANCH  27  31
ATOM     31  O   UNL     1      35.859 -19.792 -21.205  0.00  0.00    -0.472 OA
BRANCH  31  32
ATOM     32  C   UNL     1      35.220 -18.550 -21.492  0.00  0.00    +0.243 C 
BRANCH  32  34
ATOM     33  F   UNL     1      34.393 -19.584 -23.417  0.00  0.00    -0.230 F 
ATOM     34  C   UNL     1      35.004 -18.446 -22.985  0.00  0.00    +0.240 C 
ENDBRANCH  32  34
ENDBRANCH  31  32
ENDBRANCH  27  31
ENDBRANCH  22  25
ENDBRANCH  20  23
ENDBRANCH  19  20
ENDBRANCH   3  19
TORSDOF 8
ENDMDL
MODEL 4
REMARK VINA RESULT:     -11.9      4.041     10.146
REMARK  Name = 24883488
REMARK  8 active torsions:
REMARK  status: ('A' for Active; 'I' for Inactive)
REMARK    1  A    between atoms: N_2  and  C_11
REMARK    2  A    between atoms: C_3  and  C_19
REMARK    3  A    between atoms: C_19  and  C_20
REMARK    4  A    between atoms: C_20  and  C_23
REMARK    5  A    between atoms: N_22  and  C_25
REMARK    6  A    between atoms: C_27  and  O_31
REMARK    7  A    between atoms: O_31  and  C_32
REMARK    8  A    between atoms: C_32  and  C_34
REMARK                            x       y       z     vdW  Elec       q    Type
REMARK                         _______ _______ _______ _____ _____    ______ ____
ROOT
ATOM      1  O   UNL     1      37.914 -19.031 -20.981  0.00  0.00    -0.275 OA
ATOM      2  N   UNL     1      35.564 -19.166 -20.928  0.00  0.00    -0.284 N 
ATOM      3  C   UNL     1      36.868 -19.499 -20.543  0.00  0.00    +0.227 C 
ATOM      4  H   UNL     1      34.843 -19.666 -20.483  0.00  0.00    +0.155 HD
ENDROOT
BRANCH   2  11
ATOM      5  O   UNL     1      34.563 -14.156 -20.860  0.00  0.00    -0.282 OA
ATOM      6  O   UNL     1      33.715 -15.647 -25.913  0.00  0.00    -0.270 OA
ATOM      7  O   UNL     1      33.788 -12.367 -22.658  0.00  0.00    -0.266 OA
ATOM      8  N   UNL     1      33.748 -14.010 -24.298  0.00  0.00    -0.246 N 
ATOM      9  C   UNL     1      34.568 -15.936 -22.417  0.00  0.00    +0.049 C 
ATOM     10  C   UNL     1      34.342 -16.308 -23.742  0.00  0.00    +0.057 C 
ATOM     11  C   UNL     1      35.156 -18.214 -21.864  0.00  0.00    +0.050 C 
ATOM     12  C   UNL     1      34.975 -16.887 -21.475  0.00  0.00    +0.018 C 
ATOM     13  C   UNL     1      34.525 -17.642 -24.127  0.00  0.00    +0.006 C 
ATOM     14  C   UNL     1      34.932 -18.591 -23.187  0.00  0.00    +0.015 C 
ATOM     15  C   UNL     1      34.378 -14.539 -22.004  0.00  0.00    +0.249 C 
ATOM     16  C   UNL     1      33.911 -15.315 -24.748  0.00  0.00    +0.252 C 
ATOM     17  C   UNL     1      33.941 -13.525 -23.018  0.00  0.00    +0.291 C 
ATOM     18  H   UNL     1      33.461 -13.352 -24.972  0.00  0.00    +0.158 HD
ENDBRANCH   2  11
BRANCH   3  19
ATOM     19  C   UNL     1      36.896 -20.594 -19.488  0.00  0.00    +0.095 C 
BRANCH  19  20
ATOM     20  C   UNL     1      36.030 -21.782 -19.899  0.00  0.00    +0.095 C 
BRANCH  20  23
ATOM     21  O   UNL     1      33.758 -21.242 -19.387  0.00  0.00    -0.275 OA
ATOM     22  N   UNL     1      34.925 -22.711 -17.971  0.00  0.00    -0.284 N 
ATOM     23  C   UNL     1      34.766 -21.861 -19.059  0.00  0.00    +0.227 C 
ATOM     24  H   UNL     1      35.806 -23.142 -17.882  0.00  0.00    +0.155 HD
BRANCH  22  25
ATOM     25  C   UNL     1      33.972 -23.031 -16.978  0.00  0.00    +0.053 C 
ATOM     26  C   UNL     1      32.610 -22.893 -17.246  0.00  0.00    +0.052 C 
ATOM     27  C   UNL     1      31.670 -23.208 -16.265  0.00  0.00    +0.140 C 
ATOM     28  C   UNL     1      34.393 -23.484 -15.728  0.00  0.00    +0.015 C 
ATOM     29  C   UNL     1      32.092 -23.662 -15.015  0.00  0.00    +0.037 C 
ATOM     30  C   UNL     1      33.454 -23.800 -14.746  0.00  0.00    +0.004 C 
BRANCH  27  31
ATOM     31  O   UNL     1      30.341 -23.074 -16.527  0.00  0.00    -0.472 OA
BRANCH  31  32
ATOM     32  C   UNL     1      29.440 -23.307 -15.445  0.00  0.00    +0.243 C 
BRANCH  32  34
ATOM     33  F   UNL     1      28.132 -23.553 -17.365  0.00  0.00    -0.230 F 
ATOM     34  C   UNL     1      28.053 -23.528 -16.005  0.00  0.00    +0.240 C 
ENDBRANCH  32  34
ENDBRANCH  31  32
ENDBRANCH  27  31
ENDBRANCH  22  25
ENDBRANCH  20  23
ENDBRANCH  19  20
ENDBRANCH   3  19
TORSDOF 8
ENDMDL
MODEL 5
REMARK VINA RESULT:     -11.8      4.978     11.317
REMARK  Name = 24883488
REMARK  8 active torsions:
REMARK  status: ('A' for Active; 'I' for Inactive)
REMARK    1  A    between atoms: N_2  and  C_11
REMARK    2  A    between atoms: C_3  and  C_19
REMARK    3  A    between atoms: C_19  and  C_20
REMARK    4  A    between atoms: C_20  and  C_23
REMARK    5  A    between atoms: N_22  and  C_25
REMARK    6  A    between atoms: C_27  and  O_31
REMARK    7  A    between atoms: O_31  and  C_32
REMARK    8  A    between atoms: C_32  and  C_34
REMARK                            x       y       z     vdW  Elec       q    Type
REMARK                         _______ _______ _______ _____ _____    ______ ____
ROOT
ATOM      1  O   UNL     1      37.875 -18.952 -21.012  0.00  0.00    -0.275 OA
ATOM      2  N   UNL     1      35.525 -19.019 -20.891  0.00  0.00    -0.284 N 
ATOM      3  C   UNL     1      36.829 -19.376 -20.529  0.00  0.00    +0.227 C 
ATOM      4  H   UNL     1      34.803 -19.484 -20.409  0.00  0.00    +0.155 HD
ENDROOT
BRANCH   2  11
ATOM      5  O   UNL     1      34.522 -14.010 -20.942  0.00  0.00    -0.282 OA
ATOM      6  O   UNL     1      33.677 -15.621 -25.960  0.00  0.00    -0.270 OA
ATOM      7  O   UNL     1      33.747 -12.264 -22.783  0.00  0.00    -0.266 OA
ATOM      8  N   UNL     1      33.708 -13.946 -24.384  0.00  0.00    -0.246 N 
ATOM      9  C   UNL     1      34.528 -15.826 -22.457  0.00  0.00    +0.049 C 
ATOM     10  C   UNL     1      34.303 -16.230 -23.773  0.00  0.00    +0.057 C 
ATOM     11  C   UNL     1      35.117 -18.091 -21.849  0.00  0.00    +0.050 C 
ATOM     12  C   UNL     1      34.935 -16.755 -21.492  0.00  0.00    +0.018 C 
ATOM     13  C   UNL     1      34.487 -17.572 -24.125  0.00  0.00    +0.006 C 
ATOM     14  C   UNL     1      34.894 -18.499 -23.163  0.00  0.00    +0.015 C 
ATOM     15  C   UNL     1      34.338 -14.420 -22.078  0.00  0.00    +0.249 C 
ATOM     16  C   UNL     1      33.873 -15.261 -24.802  0.00  0.00    +0.252 C 
ATOM     17  C   UNL     1      33.901 -13.430 -23.115  0.00  0.00    +0.291 C 
ATOM     18  H   UNL     1      33.421 -13.305 -25.073  0.00  0.00    +0.158 HD
ENDBRANCH   2  11
BRANCH   3  19
ATOM     19  C   UNL     1      36.857 -20.433 -19.437  0.00  0.00    +0.095 C 
BRANCH  19  20
ATOM     20  C   UNL     1      35.962 -21.618 -19.790  0.00  0.00    +0.095 C 
BRANCH  20  23
ATOM     21  O   UNL     1      34.404 -22.933 -18.543  0.00  0.00    -0.275 OA
ATOM     22  N   UNL     1      36.393 -22.237 -17.502  0.00  0.00    -0.284 N 
ATOM     23  C   UNL     1      35.476 -22.335 -18.542  0.00  0.00    +0.227 C 
ATOM     24  H   UNL     1      37.216 -21.732 -17.696  0.00  0.00    +0.155 HD
BRANCH  22  25
ATOM     25  C   UNL     1      36.285 -22.775 -16.200  0.00  0.00    +0.053 C 
ATOM     26  C   UNL     1      37.432 -23.160 -15.506  0.00  0.00    +0.052 C 
ATOM     27  C   UNL     1      37.325 -23.692 -14.220  0.00  0.00    +0.140 C 
ATOM     28  C   UNL     1      35.030 -22.923 -15.608  0.00  0.00    +0.015 C 
ATOM     29  C   UNL     1      36.070 -23.839 -13.629  0.00  0.00    +0.037 C 
ATOM     30  C   UNL     1      34.922 -23.454 -14.323  0.00  0.00    +0.004 C 
BRANCH  27  31
ATOM     31  O   UNL     1      38.444 -24.067 -13.543  0.00  0.00    -0.472 OA
BRANCH  31  32
ATOM     32  C   UNL     1      38.703 -25.466 -13.441  0.00  0.00    +0.243 C 
BRANCH  32  34
ATOM     33  F   UNL     1      40.745 -26.525 -13.848  0.00  0.00    -0.230 F 
ATOM     34  C   UNL     1      39.742 -25.847 -14.472  0.00  0.00    +0.240 C 
ENDBRANCH  32  34
ENDBRANCH  31  32
ENDBRANCH  27  31
ENDBRANCH  22  25
ENDBRANCH  20  23
ENDBRANCH  19  20
ENDBRANCH   3  19
TORSDOF 8
ENDMDL
MODEL 6
REMARK VINA RESULT:     -11.7      3.470      6.476
REMARK  Name = 24883488
REMARK  8 active torsions:
REMARK  status: ('A' for Active; 'I' for Inactive)
REMARK    1  A    between atoms: N_2  and  C_11
REMARK    2  A    between atoms: C_3  and  C_19
REMARK    3  A    between atoms: C_19  and  C_20
REMARK    4  A    between atoms: C_20  and  C_23
REMARK    5  A    between atoms: N_22  and  C_25
REMARK    6  A    between atoms: C_27  and  O_31
REMARK    7  A    between atoms: O_31  and  C_32
REMARK    8  A    between atoms: C_32  and  C_34
REMARK                            x       y       z     vdW  Elec       q    Type
REMARK                         _______ _______ _______ _____ _____    ______ ____
ROOT
ATOM      1  O   UNL     1      33.557 -21.428 -19.249  0.00  0.00    -0.275 OA
ATOM      2  N   UNL     1      35.004 -22.726 -17.921  0.00  0.00    -0.284 N 
ATOM      3  C   UNL     1      34.660 -21.904 -19.002  0.00  0.00    +0.227 C 
ATOM      4  H   UNL     1      35.938 -23.037 -17.898  0.00  0.00    +0.155 HD
ENDROOT
BRANCH   2  11
ATOM      5  O   UNL     1      29.988 -22.770 -16.950  0.00  0.00    -0.282 OA
ATOM      6  O   UNL     1      32.227 -25.031 -12.665  0.00  0.00    -0.270 OA
ATOM      7  O   UNL     1      28.466 -23.608 -14.946  0.00  0.00    -0.266 OA
ATOM      8  N   UNL     1      30.351 -24.324 -13.794  0.00  0.00    -0.246 N 
ATOM      9  C   UNL     1      31.997 -23.446 -15.901  0.00  0.00    +0.049 C 
ATOM     10  C   UNL     1      32.565 -24.040 -14.774  0.00  0.00    +0.057 C 
ATOM     11  C   UNL     1      34.192 -23.162 -16.874  0.00  0.00    +0.050 C 
ATOM     12  C   UNL     1      32.808 -23.005 -16.953  0.00  0.00    +0.018 C 
ATOM     13  C   UNL     1      33.955 -24.193 -14.700  0.00  0.00    +0.006 C 
ATOM     14  C   UNL     1      34.764 -23.755 -15.750  0.00  0.00    +0.015 C 
ATOM     15  C   UNL     1      30.540 -23.281 -15.988  0.00  0.00    +0.249 C 
ATOM     16  C   UNL     1      31.722 -24.509 -13.655  0.00  0.00    +0.252 C 
ATOM     17  C   UNL     1      29.677 -23.753 -14.857  0.00  0.00    +0.291 C 
ATOM     18  H   UNL     1      29.794 -24.638 -13.046  0.00  0.00    +0.158 HD
ENDBRANCH   2  11
BRANCH   3  19
ATOM     19  C   UNL     1      35.833 -21.658 -19.936  0.00  0.00    +0.095 C 
BRANCH  19  20
ATOM     20  C   UNL     1      36.679 -20.478 -19.464  0.00  0.00    +0.095 C 
BRANCH  20  23
ATOM     21  O   UNL     1      37.854 -18.978 -20.908  0.00  0.00    -0.275 OA
ATOM     22  N   UNL     1      35.506 -19.025 -20.986  0.00  0.00    -0.284 N 
ATOM     23  C   UNL     1      36.764 -19.398 -20.529  0.00  0.00    +0.227 C 
ATOM     24  H   UNL     1      34.740 -19.491 -20.577  0.00  0.00    +0.155 HD
BRANCH  22  25
ATOM     25  C   UNL     1      35.193 -18.057 -21.967  0.00  0.00    +0.053 C 
ATOM     26  C   UNL     1      35.146 -16.705 -21.624  0.00  0.00    +0.052 C 
ATOM     27  C   UNL     1      34.837 -15.750 -22.593  0.00  0.00    +0.140 C 
ATOM     28  C   UNL     1      34.932 -18.453 -23.279  0.00  0.00    +0.015 C 
ATOM     29  C   UNL     1      34.576 -16.147 -23.905  0.00  0.00    +0.037 C 
ATOM     30  C   UNL     1      34.623 -17.498 -24.248  0.00  0.00    +0.004 C 
BRANCH  27  31
ATOM     31  O   UNL     1      34.791 -14.432 -22.259  0.00  0.00    -0.472 OA
BRANCH  31  32
ATOM     32  C   UNL     1      33.500 -13.834 -22.152  0.00  0.00    +0.243 C 
BRANCH  32  34
ATOM     33  F   UNL     1      31.780 -14.052 -20.587  0.00  0.00    -0.230 F 
ATOM     34  C   UNL     1      33.109 -13.774 -20.693  0.00  0.00    +0.240 C 
ENDBRANCH  32  34
ENDBRANCH  31  32
ENDBRANCH  27  31
ENDBRANCH  22  25
ENDBRANCH  20  23
ENDBRANCH  19  20
ENDBRANCH   3  19
TORSDOF 8
ENDMDL
MODEL 7
REMARK VINA RESULT:     -11.6      4.265     10.474
REMARK  Name = 24883488
REMARK  8 active torsions:
REMARK  status: ('A' for Active; 'I' for Inactive)
REMARK    1  A    between atoms: N_2  and  C_11
REMARK    2  A    between atoms: C_3  and  C_19
REMARK    3  A    between atoms: C_19  and  C_20
REMARK    4  A    between atoms: C_20  and  C_23
REMARK    5  A    between atoms: N_22  and  C_25
REMARK    6  A    between atoms: C_27  and  O_31
REMARK    7  A    between atoms: O_31  and  C_32
REMARK    8  A    between atoms: C_32  and  C_34
REMARK                            x       y       z     vdW  Elec       q    Type
REMARK                         _______ _______ _______ _____ _____    ______ ____
ROOT
ATOM      1  O   UNL     1      34.302 -19.960 -21.200  0.00  0.00    -0.275 OA
ATOM      2  N   UNL     1      35.828 -18.237 -20.705  0.00  0.00    -0.284 N 
ATOM      3  C   UNL     1      35.357 -19.556 -20.722  0.00  0.00    +0.227 C 
ATOM      4  H   UNL     1      36.691 -18.096 -20.252  0.00  0.00    +0.155 HD
ENDROOT
BRANCH   2  11
ATOM      5  O   UNL     1      34.565 -16.639 -25.390  0.00  0.00    -0.282 OA
ATOM      6  O   UNL     1      33.036 -12.689 -22.143  0.00  0.00    -0.270 OA
ATOM      7  O   UNL     1      33.424 -14.464 -26.393  0.00  0.00    -0.266 OA
ATOM      8  N   UNL     1      33.228 -13.566 -24.261  0.00  0.00    -0.246 N 
ATOM      9  C   UNL     1      34.435 -15.858 -23.161  0.00  0.00    +0.049 C 
ATOM     10  C   UNL     1      34.029 -14.817 -22.327  0.00  0.00    +0.057 C 
ATOM     11  C   UNL     1      35.231 -17.099 -21.246  0.00  0.00    +0.050 C 
ATOM     12  C   UNL     1      35.037 -17.001 -22.624  0.00  0.00    +0.018 C 
ATOM     13  C   UNL     1      34.226 -14.920 -20.945  0.00  0.00    +0.006 C 
ATOM     14  C   UNL     1      34.826 -16.061 -20.408  0.00  0.00    +0.015 C 
ATOM     15  C   UNL     1      34.231 -15.759 -24.612  0.00  0.00    +0.249 C 
ATOM     16  C   UNL     1      33.392 -13.603 -22.881  0.00  0.00    +0.252 C 
ATOM     17  C   UNL     1      33.587 -14.531 -25.183  0.00  0.00    +0.291 C 
ATOM     18  H   UNL     1      32.803 -12.756 -24.625  0.00  0.00    +0.158 HD
ENDBRANCH   2  11
BRANCH   3  19
ATOM     19  C   UNL     1      36.303 -20.517 -20.021  0.00  0.00    +0.095 C 
BRANCH  19  20
ATOM     20  C   UNL     1      35.664 -21.891 -19.841  0.00  0.00    +0.095 C 
BRANCH  20  23
ATOM     21  O   UNL     1      36.387 -22.020 -17.566  0.00  0.00    -0.275 OA
ATOM     22  N   UNL     1      34.217 -22.739 -18.111  0.00  0.00    -0.284 N 
ATOM     23  C   UNL     1      35.483 -22.229 -18.370  0.00  0.00    +0.227 C 
ATOM     24  H   UNL     1      33.613 -22.815 -18.886  0.00  0.00    +0.155 HD
BRANCH  22  25
ATOM     25  C   UNL     1      33.691 -23.160 -16.869  0.00  0.00    +0.053 C 
ATOM     26  C   UNL     1      32.317 -23.348 -16.720  0.00  0.00    +0.052 C 
ATOM     27  C   UNL     1      31.798 -23.764 -15.493  0.00  0.00    +0.140 C 
ATOM     28  C   UNL     1      34.547 -23.387 -15.791  0.00  0.00    +0.015 C 
ATOM     29  C   UNL     1      32.655 -23.991 -14.415  0.00  0.00    +0.037 C 
ATOM     30  C   UNL     1      34.029 -23.803 -14.564  0.00  0.00    +0.004 C 
BRANCH  27  31
ATOM     31  O   UNL     1      30.458 -23.948 -15.347  0.00  0.00    -0.472 OA
BRANCH  31  32
ATOM     32  C   UNL     1      29.601 -23.134 -16.146  0.00  0.00    +0.243 C 
BRANCH  32  34
ATOM     33  F   UNL     1      28.117 -24.848 -16.710  0.00  0.00    -0.230 F 
ATOM     34  C   UNL     1      28.189 -23.664 -16.041  0.00  0.00    +0.240 C 
ENDBRANCH  32  34
ENDBRANCH  31  32
ENDBRANCH  27  31
ENDBRANCH  22  25
ENDBRANCH  20  23
ENDBRANCH  19  20
ENDBRANCH   3  19
TORSDOF 8
ENDMDL
MODEL 8
REMARK VINA RESULT:     -11.5      4.071      7.005
REMARK  Name = 24883488
REMARK  8 active torsions:
REMARK  status: ('A' for Active; 'I' for Inactive)
REMARK    1  A    between atoms: N_2  and  C_11
REMARK    2  A    between atoms: C_3  and  C_19
REMARK    3  A    between atoms: C_19  and  C_20
REMARK    4  A    between atoms: C_20  and  C_23
REMARK    5  A    between atoms: N_22  and  C_25
REMARK    6  A    between atoms: C_27  and  O_31
REMARK    7  A    between atoms: O_31  and  C_32
REMARK    8  A    between atoms: C_32  and  C_34
REMARK                            x       y       z     vdW  Elec       q    Type
REMARK                         _______ _______ _______ _____ _____    ______ ____
ROOT
ATOM      1  O   UNL     1      34.191 -23.511 -19.100  0.00  0.00    -0.275 OA
ATOM      2  N   UNL     1      35.410 -22.172 -17.595  0.00  0.00    -0.284 N 
ATOM      3  C   UNL     1      34.864 -22.520 -18.837  0.00  0.00    +0.227 C 
ATOM      4  H   UNL     1      35.947 -21.347 -17.578  0.00  0.00    +0.155 HD
ENDROOT
BRANCH   2  11
ATOM      5  O   UNL     1      38.633 -24.363 -14.291  0.00  0.00    -0.282 OA
ATOM      6  O   UNL     1      33.796 -25.071 -12.151  0.00  0.00    -0.270 OA
ATOM      7  O   UNL     1      38.380 -25.640 -11.980  0.00  0.00    -0.266 OA
ATOM      8  N   UNL     1      36.076 -25.359 -12.060  0.00  0.00    -0.246 N 
ATOM      9  C   UNL     1      36.307 -24.000 -14.514  0.00  0.00    +0.049 C 
ATOM     10  C   UNL     1      35.050 -24.194 -13.940  0.00  0.00    +0.057 C 
ATOM     11  C   UNL     1      35.291 -22.846 -16.379  0.00  0.00    +0.050 C 
ATOM     12  C   UNL     1      36.431 -23.327 -15.735  0.00  0.00    +0.018 C 
ATOM     13  C   UNL     1      33.910 -23.709 -14.592  0.00  0.00    +0.006 C 
ATOM     14  C   UNL     1      34.033 -23.036 -15.810  0.00  0.00    +0.015 C 
ATOM     15  C   UNL     1      37.508 -24.505 -13.837  0.00  0.00    +0.249 C 
ATOM     16  C   UNL     1      34.904 -24.903 -12.653  0.00  0.00    +0.252 C 
ATOM     17  C   UNL     1      37.370 -25.227 -12.531  0.00  0.00    +0.291 C 
ATOM     18  H   UNL     1      35.973 -25.831 -11.202  0.00  0.00    +0.158 HD
ENDBRANCH   2  11
BRANCH   3  19
ATOM     19  C   UNL     1      35.225 -21.522 -19.926  0.00  0.00    +0.095 C 
BRANCH  19  20
ATOM     20  C   UNL     1      36.539 -20.811 -19.613  0.00  0.00    +0.095 C 
BRANCH  20  23
ATOM     21  O   UNL     1      37.785 -19.025 -20.598  0.00  0.00    -0.275 OA
ATOM     22  N   UNL     1      35.455 -19.090 -20.903  0.00  0.00    -0.284 N 
ATOM     23  C   UNL     1      36.681 -19.531 -20.418  0.00  0.00    +0.227 C 
ATOM     24  H   UNL     1      34.673 -19.642 -20.673  0.00  0.00    +0.155 HD
BRANCH  22  25
ATOM     25  C   UNL     1      35.198 -17.942 -21.688  0.00  0.00    +0.053 C 
ATOM     26  C   UNL     1      34.942 -16.718 -21.070  0.00  0.00    +0.052 C 
ATOM     27  C   UNL     1      34.687 -15.586 -21.845  0.00  0.00    +0.140 C 
ATOM     28  C   UNL     1      35.199 -18.035 -23.079  0.00  0.00    +0.015 C 
ATOM     29  C   UNL     1      34.689 -15.679 -23.237  0.00  0.00    +0.037 C 
ATOM     30  C   UNL     1      34.945 -16.903 -23.854  0.00  0.00    +0.004 C 
BRANCH  27  31
ATOM     31  O   UNL     1      34.437 -14.391 -21.243  0.00  0.00    -0.472 OA
BRANCH  31  32
ATOM     32  C   UNL     1      33.158 -13.803 -21.474  0.00  0.00    +0.243 C 
BRANCH  32  34
ATOM     33  F   UNL     1      32.395 -14.877 -19.546  0.00  0.00    -0.230 F 
ATOM     34  C   UNL     1      32.442 -13.658 -20.151  0.00  0.00    +0.240 C 
ENDBRANCH  32  34
ENDBRANCH  31  32
ENDBRANCH  27  31
ENDBRANCH  22  25
ENDBRANCH  20  23
ENDBRANCH  19  20
ENDBRANCH   3  19
TORSDOF 8
ENDMDL
MODEL 9
REMARK VINA RESULT:     -11.5      4.639     10.881
REMARK  Name = 24883488
REMARK  8 active torsions:
REMARK  status: ('A' for Active; 'I' for Inactive)
REMARK    1  A    between atoms: N_2  and  C_11
REMARK    2  A    between atoms: C_3  and  C_19
REMARK    3  A    between atoms: C_19  and  C_20
REMARK    4  A    between atoms: C_20  and  C_23
REMARK    5  A    between atoms: N_22  and  C_25
REMARK    6  A    between atoms: C_27  and  O_31
REMARK    7  A    between atoms: O_31  and  C_32
REMARK    8  A    between atoms: C_32  and  C_34
REMARK                            x       y       z     vdW  Elec       q    Type
REMARK                         _______ _______ _______ _____ _____    ______ ____
ROOT
ATOM      1  O   UNL     1      33.437 -20.565 -20.322  0.00  0.00    -0.275 OA
ATOM      2  N   UNL     1      35.486 -19.671 -21.061  0.00  0.00    -0.284 N 
ATOM      3  C   UNL     1      34.664 -20.544 -20.338  0.00  0.00    +0.227 C 
ATOM      4  H   UNL     1      36.455 -19.785 -20.930  0.00  0.00    +0.155 HD
ENDROOT
BRANCH   2  11
ATOM      5  O   UNL     1      34.803 -14.617 -20.754  0.00  0.00    -0.282 OA
ATOM      6  O   UNL     1      33.693 -15.837 -25.830  0.00  0.00    -0.270 OA
ATOM      7  O   UNL     1      34.082 -12.708 -22.450  0.00  0.00    -0.266 OA
ATOM      8  N   UNL     1      33.883 -14.275 -24.152  0.00  0.00    -0.246 N 
ATOM      9  C   UNL     1      34.644 -16.326 -22.381  0.00  0.00    +0.049 C 
ATOM     10  C   UNL     1      34.351 -16.627 -23.711  0.00  0.00    +0.057 C 
ATOM     11  C   UNL     1      35.107 -18.657 -21.942  0.00  0.00    +0.050 C 
ATOM     12  C   UNL     1      35.022 -17.339 -21.493  0.00  0.00    +0.018 C 
ATOM     13  C   UNL     1      34.437 -17.952 -24.155  0.00  0.00    +0.006 C 
ATOM     14  C   UNL     1      34.815 -18.963 -23.270  0.00  0.00    +0.015 C 
ATOM     15  C   UNL     1      34.556 -14.939 -21.906  0.00  0.00    +0.249 C 
ATOM     16  C   UNL     1      33.950 -15.568 -24.660  0.00  0.00    +0.252 C 
ATOM     17  C   UNL     1      34.149 -13.858 -22.861  0.00  0.00    +0.291 C 
ATOM     18  H   UNL     1      33.615 -13.573 -24.788  0.00  0.00    +0.158 HD
ENDBRANCH   2  11
BRANCH   3  19
ATOM     19  C   UNL     1      35.463 -21.513 -19.481  0.00  0.00    +0.095 C 
BRANCH  19  20
ATOM     20  C   UNL     1      34.648 -22.760 -19.150  0.00  0.00    +0.095 C 
BRANCH  20  23
ATOM     21  O   UNL     1      35.381 -22.715 -16.875  0.00  0.00    -0.275 OA
ATOM     22  N   UNL     1      33.136 -23.237 -17.336  0.00  0.00    -0.284 N 
ATOM     23  C   UNL     1      34.449 -22.909 -17.650  0.00  0.00    +0.227 C 
ATOM     24  H   UNL     1      32.518 -23.330 -18.097  0.00  0.00    +0.155 HD
BRANCH  22  25
ATOM     25  C   UNL     1      32.582 -23.454 -16.054  0.00  0.00    +0.053 C 
ATOM     26  C   UNL     1      33.392 -23.901 -15.010  0.00  0.00    +0.052 C 
ATOM     27  C   UNL     1      32.845 -24.115 -13.744  0.00  0.00    +0.140 C 
ATOM     28  C   UNL     1      31.225 -23.222 -15.833  0.00  0.00    +0.015 C 
ATOM     29  C   UNL     1      31.487 -23.882 -13.524  0.00  0.00    +0.037 C 
ATOM     30  C   UNL     1      30.677 -23.435 -14.568  0.00  0.00    +0.004 C 
BRANCH  27  31
ATOM     31  O   UNL     1      33.634 -24.551 -12.725  0.00  0.00    -0.472 OA
BRANCH  31  32
ATOM     32  C   UNL     1      35.014 -24.191 -12.774  0.00  0.00    +0.243 C 
BRANCH  32  34
ATOM     33  F   UNL     1      36.681 -23.365 -11.361  0.00  0.00    -0.230 F 
ATOM     34  C   UNL     1      35.551 -24.125 -11.362  0.00  0.00    +0.240 C 
ENDBRANCH  32  34
ENDBRANCH  31  32
ENDBRANCH  27  31
ENDBRANCH  22  25
ENDBRANCH  20  23
ENDBRANCH  19  20
ENDBRANCH   3  19
TORSDOF 8
ENDMDL
