MODEL 1
REMARK VINA RESULT:     -11.2      0.000      0.000
REMARK  Name = 3152
REMARK  6 active torsions:
REMARK  status: ('A' for Active; 'I' for Inactive)
REMARK    1  A    between atoms: C_1  and  C_3
REMARK    2  A    between atoms: C_1  and  C_17
REMARK    3  A    between atoms: C_10  and  O_12
REMARK    4  A    between atoms: C_11  and  O_14
REMARK    5  A    between atoms: N_16  and  C_23
REMARK    6  A    between atoms: C_23  and  C_24
REMARK                            x       y       z     vdW  Elec       q    Type
REMARK                         _______ _______ _______ _____ _____    ______ ____
ROOT
ATOM      1  C   UNL     1      34.949 -20.198 -22.180  0.00  0.00    +0.008 C 
ENDROOT
BRANCH   1   3
ATOM      2  O   UNL     1      32.390 -20.590 -20.622  0.00  0.00    -0.291 OA
ATOM      3  C   UNL     1      34.771 -20.019 -20.684  0.00  0.00    +0.066 C 
ATOM      4  C   UNL     1      35.928 -20.641 -19.869  0.00  0.00    +0.034 C 
ATOM      5  C   UNL     1      33.521 -20.726 -20.190  0.00  0.00    +0.173 C 
ATOM      6  C   UNL     1      35.244 -21.552 -18.900  0.00  0.00    -0.016 C 
ATOM      7  C   UNL     1      33.869 -21.610 -19.089  0.00  0.00    +0.034 C 
ATOM      8  C   UNL     1      35.832 -22.311 -17.901  0.00  0.00    +0.036 C 
ATOM      9  C   UNL     1      33.035 -22.399 -18.319  0.00  0.00    +0.043 C 
ATOM     10  C   UNL     1      35.014 -23.117 -17.103  0.00  0.00    +0.172 C 
ATOM     11  C   UNL     1      33.626 -23.162 -17.311  0.00  0.00    +0.172 C 
BRANCH  10  12
ATOM     12  O   UNL     1      35.583 -23.868 -16.116  0.00  0.00    -0.468 OA
ATOM     13  C   UNL     1      36.629 -23.261 -15.362  0.00  0.00    +0.253 C 
ENDBRANCH  10  12
BRANCH  11  14
ATOM     14  O   UNL     1      32.840 -23.955 -16.528  0.00  0.00    -0.468 OA
ATOM     15  C   UNL     1      31.628 -23.384 -16.040  0.00  0.00    +0.253 C 
ENDBRANCH  11  14
ENDBRANCH   1   3
BRANCH   1  17
ATOM     16  N   UNL     1      34.255 -16.160 -23.544  0.00  0.00    +0.390 N 
ATOM     17  C   UNL     1      35.178 -18.862 -22.878  0.00  0.00    -0.004 C 
ATOM     18  C   UNL     1      34.096 -18.598 -23.931  0.00  0.00    -0.023 C 
ATOM     19  C   UNL     1      35.208 -17.710 -21.868  0.00  0.00    -0.023 C 
ATOM     20  C   UNL     1      34.262 -17.214 -24.565  0.00  0.00    -0.077 C 
ATOM     21  C   UNL     1      35.338 -16.356 -22.570  0.00  0.00    -0.077 C 
ATOM     22  H   UNL     1      33.368 -16.212 -23.042  0.00  0.00    -0.079 HD
BRANCH  16  23
ATOM     23  C   UNL     1      34.362 -14.841 -24.168  0.00  0.00    -0.050 C 
BRANCH  23  24
ATOM     24  C   UNL     1      33.606 -13.791 -23.397  0.00  0.00    -0.043 C 
ATOM     25  C   UNL     1      32.955 -14.142 -22.223  0.00  0.00    -0.006 C 
ATOM     26  C   UNL     1      33.572 -12.487 -23.873  0.00  0.00    -0.006 C 
ATOM     27  C   UNL     1      32.256 -13.169 -21.510  0.00  0.00    -0.000 C 
ATOM     28  C   UNL     1      32.873 -11.514 -23.158  0.00  0.00    -0.000 C 
ATOM     29  C   UNL     1      32.214 -11.855 -21.977  0.00  0.00    -0.000 C 
ENDBRANCH  23  24
ENDBRANCH  16  23
ENDBRANCH   1  17
TORSDOF 6
ENDMDL
MODEL 2
REMARK VINA RESULT:     -11.0      1.911      3.521
REMARK  Name = 3152
REMARK  6 active torsions:
REMARK  status: ('A' for Active; 'I' for Inactive)
REMARK    1  A    between atoms: C_1  and  C_3
REMARK    2  A    between atoms: C_1  and  C_17
REMARK    3  A    between atoms: C_10  and  O_12
REMARK    4  A    between atoms: C_11  and  O_14
REMARK    5  A    between atoms: N_16  and  C_23
REMARK    6  A    between atoms: C_23  and  C_24
REMARK                            x       y       z     vdW  Elec       q    Type
REMARK                         _______ _______ _______ _____ _____    ______ ____
ROOT
ATOM      1  C   UNL     1      36.432 -20.685 -19.029  0.00  0.00    +0.008 C 
ENDROOT
BRANCH   1   3
ATOM      2  O   UNL     1      37.279 -22.360 -16.662  0.00  0.00    -0.291 OA
ATOM      3  C   UNL     1      35.962 -22.091 -18.709  0.00  0.00    +0.066 C 
ATOM      4  C   UNL     1      34.438 -22.265 -18.898  0.00  0.00    +0.034 C 
ATOM      5  C   UNL     1      36.216 -22.438 -17.253  0.00  0.00    +0.173 C 
ATOM      6  C   UNL     1      33.967 -22.811 -17.588  0.00  0.00    -0.016 C 
ATOM      7  C   UNL     1      34.980 -22.901 -16.642  0.00  0.00    +0.034 C 
ATOM      8  C   UNL     1      32.678 -23.195 -17.251  0.00  0.00    +0.036 C 
ATOM      9  C   UNL     1      34.772 -23.363 -15.356  0.00  0.00    +0.043 C 
ATOM     10  C   UNL     1      32.437 -23.670 -15.958  0.00  0.00    +0.172 C 
ATOM     11  C   UNL     1      33.476 -23.752 -15.017  0.00  0.00    +0.172 C 
BRANCH  10  12
ATOM     12  O   UNL     1      31.172 -24.051 -15.616  0.00  0.00    -0.468 OA
ATOM     13  C   UNL     1      30.108 -23.189 -16.012  0.00  0.00    +0.253 C 
ENDBRANCH  10  12
BRANCH  11  14
ATOM     14  O   UNL     1      33.227 -24.214 -13.758  0.00  0.00    -0.468 OA
ATOM     15  C   UNL     1      34.357 -24.451 -12.921  0.00  0.00    +0.253 C 
ENDBRANCH  11  14
ENDBRANCH   1   3
BRANCH   1  17
ATOM     16  N   UNL     1      35.139 -18.359 -22.430  0.00  0.00    +0.390 N 
ATOM     17  C   UNL     1      36.123 -20.309 -20.474  0.00  0.00    -0.004 C 
ATOM     18  C   UNL     1      34.631 -20.010 -20.659  0.00  0.00    -0.023 C 
ATOM     19  C   UNL     1      36.952 -19.099 -20.918  0.00  0.00    -0.023 C 
ATOM     20  C   UNL     1      34.331 -19.535 -22.082  0.00  0.00    -0.077 C 
ATOM     21  C   UNL     1      36.575 -18.654 -22.333  0.00  0.00    -0.077 C 
ATOM     22  H   UNL     1      34.924 -17.619 -21.761  0.00  0.00    -0.079 HD
BRANCH  16  23
ATOM     23  C   UNL     1      34.804 -17.886 -23.773  0.00  0.00    -0.050 C 
BRANCH  23  24
ATOM     24  C   UNL     1      34.419 -16.430 -23.776  0.00  0.00    -0.043 C 
ATOM     25  C   UNL     1      34.739 -15.636 -22.684  0.00  0.00    -0.006 C 
ATOM     26  C   UNL     1      33.749 -15.903 -24.872  0.00  0.00    -0.006 C 
ATOM     27  C   UNL     1      34.383 -14.288 -22.688  0.00  0.00    -0.000 C 
ATOM     28  C   UNL     1      33.394 -14.554 -24.876  0.00  0.00    -0.000 C 
ATOM     29  C   UNL     1      33.711 -13.746 -23.784  0.00  0.00    -0.000 C 
ENDBRANCH  23  24
ENDBRANCH  16  23
ENDBRANCH   1  17
TORSDOF 6
ENDMDL
MODEL 3
REMARK VINA RESULT:     -10.9      4.338      9.819
REMARK  Name = 3152
REMARK  6 active torsions:
REMARK  status: ('A' for Active; 'I' for Inactive)
REMARK    1  A    between atoms: C_1  and  C_3
REMARK    2  A    between atoms: C_1  and  C_17
REMARK    3  A    between atoms: C_10  and  O_12
REMARK    4  A    between atoms: C_11  and  O_14
REMARK    5  A    between atoms: N_16  and  C_23
REMARK    6  A    between atoms: C_23  and  C_24
REMARK                            x       y       z     vdW  Elec       q    Type
REMARK                         _______ _______ _______ _____ _____    ______ ____
ROOT
ATOM      1  C   UNL     1      34.136 -15.586 -23.650  0.00  0.00    +0.008 C 
ENDROOT
BRANCH   1   3
ATOM      2  O   UNL     1      34.223 -12.775 -24.752  0.00  0.00    -0.291 OA
ATOM      3  C   UNL     1      34.387 -14.318 -22.858  0.00  0.00    +0.066 C 
ATOM      4  C   UNL     1      33.606 -14.286 -21.524  0.00  0.00    +0.034 C 
ATOM      5  C   UNL     1      33.913 -13.091 -23.617  0.00  0.00    +0.173 C 
ATOM      6  C   UNL     1      32.851 -12.995 -21.573  0.00  0.00    -0.016 C 
ATOM      7  C   UNL     1      33.017 -12.316 -22.773  0.00  0.00    +0.034 C 
ATOM      8  C   UNL     1      32.035 -12.461 -20.589  0.00  0.00    +0.036 C 
ATOM      9  C   UNL     1      32.401 -11.110 -23.048  0.00  0.00    +0.043 C 
ATOM     10  C   UNL     1      31.401 -11.240 -20.836  0.00  0.00    +0.172 C 
ATOM     11  C   UNL     1      31.582 -10.569 -22.057  0.00  0.00    +0.172 C 
BRANCH  10  12
ATOM     12  O   UNL     1      30.595 -10.704 -19.874  0.00  0.00    -0.468 OA
ATOM     13  C   UNL     1      31.238 -10.063 -18.775  0.00  0.00    +0.253 C 
ENDBRANCH  10  12
BRANCH  11  14
ATOM     14  O   UNL     1      30.954  -9.380 -22.287  0.00  0.00    -0.468 OA
ATOM     15  C   UNL     1      31.748  -8.200 -22.187  0.00  0.00    +0.253 C 
ENDBRANCH  11  14
ENDBRANCH   1   3
BRANCH   1  17
ATOM     16  N   UNL     1      35.111 -19.206 -21.505  0.00  0.00    +0.390 N 
ATOM     17  C   UNL     1      34.952 -16.755 -23.106  0.00  0.00    -0.004 C 
ATOM     18  C   UNL     1      34.986 -16.736 -21.574  0.00  0.00    -0.023 C 
ATOM     19  C   UNL     1      34.390 -18.094 -23.594  0.00  0.00    -0.023 C 
ATOM     20  C   UNL     1      35.718 -17.961 -21.019  0.00  0.00    -0.077 C 
ATOM     21  C   UNL     1      35.141 -19.273 -22.973  0.00  0.00    -0.077 C 
ATOM     22  H   UNL     1      34.134 -19.217 -21.210  0.00  0.00    -0.079 HD
BRANCH  16  23
ATOM     23  C   UNL     1      35.787 -20.367 -20.926  0.00  0.00    -0.050 C 
BRANCH  23  24
ATOM     24  C   UNL     1      34.898 -21.114 -19.968  0.00  0.00    -0.043 C 
ATOM     25  C   UNL     1      35.458 -22.034 -19.093  0.00  0.00    -0.006 C 
ATOM     26  C   UNL     1      33.531 -20.873 -19.974  0.00  0.00    -0.006 C 
ATOM     27  C   UNL     1      34.635 -22.727 -18.205  0.00  0.00    -0.000 C 
ATOM     28  C   UNL     1      32.708 -21.565 -19.085  0.00  0.00    -0.000 C 
ATOM     29  C   UNL     1      33.260 -22.492 -18.201  0.00  0.00    -0.000 C 
ENDBRANCH  23  24
ENDBRANCH  16  23
ENDBRANCH   1  17
TORSDOF 6
ENDMDL
MODEL 4
REMARK VINA RESULT:     -10.6      2.212      3.876
REMARK  Name = 3152
REMARK  6 active torsions:
REMARK  status: ('A' for Active; 'I' for Inactive)
REMARK    1  A    between atoms: C_1  and  C_3
REMARK    2  A    between atoms: C_1  and  C_17
REMARK    3  A    between atoms: C_10  and  O_12
REMARK    4  A    between atoms: C_11  and  O_14
REMARK    5  A    between atoms: N_16  and  C_23
REMARK    6  A    between atoms: C_23  and  C_24
REMARK                            x       y       z     vdW  Elec       q    Type
REMARK                         _______ _______ _______ _____ _____    ______ ____
ROOT
ATOM      1  C   UNL     1      34.637 -22.902 -19.105  0.00  0.00    +0.008 C 
ENDROOT
BRANCH   1   3
ATOM      2  O   UNL     1      31.951 -22.600 -17.756  0.00  0.00    -0.291 OA
ATOM      3  C   UNL     1      34.380 -22.290 -17.742  0.00  0.00    +0.066 C 
ATOM      4  C   UNL     1      35.400 -22.757 -16.679  0.00  0.00    +0.034 C 
ATOM      5  C   UNL     1      33.027 -22.711 -17.195  0.00  0.00    +0.173 C 
ATOM      6  C   UNL     1      34.552 -23.289 -15.567  0.00  0.00    -0.016 C 
ATOM      7  C   UNL     1      33.196 -23.273 -15.865  0.00  0.00    +0.034 C 
ATOM      8  C   UNL     1      34.981 -23.783 -14.345  0.00  0.00    +0.036 C 
ATOM      9  C   UNL     1      32.227 -23.731 -14.992  0.00  0.00    +0.043 C 
ATOM     10  C   UNL     1      34.024 -24.251 -13.439  0.00  0.00    +0.172 C 
ATOM     11  C   UNL     1      32.657 -24.227 -13.761  0.00  0.00    +0.172 C 
BRANCH  10  12
ATOM     12  O   UNL     1      34.435 -24.739 -12.233  0.00  0.00    -0.468 OA
ATOM     13  C   UNL     1      35.599 -24.150 -11.660  0.00  0.00    +0.253 C 
ENDBRANCH  10  12
BRANCH  11  14
ATOM     14  O   UNL     1      31.734 -24.689 -12.870  0.00  0.00    -0.468 OA
ATOM     15  C   UNL     1      30.594 -25.357 -13.407  0.00  0.00    +0.253 C 
ENDBRANCH  11  14
ENDBRANCH   1   3
BRANCH   1  17
ATOM     16  N   UNL     1      35.704 -19.068 -20.783  0.00  0.00    +0.390 N 
ATOM     17  C   UNL     1      35.170 -21.867 -20.090  0.00  0.00    -0.004 C 
ATOM     18  C   UNL     1      34.062 -20.902 -20.528  0.00  0.00    -0.023 C 
ATOM     19  C   UNL     1      36.334 -21.076 -19.482  0.00  0.00    -0.023 C 
ATOM     20  C   UNL     1      34.613 -19.800 -21.437  0.00  0.00    -0.077 C 
ATOM     21  C   UNL     1      36.809 -19.970 -20.426  0.00  0.00    -0.077 C 
ATOM     22  H   UNL     1      35.339 -18.662 -19.920  0.00  0.00    -0.079 HD
BRANCH  16  23
ATOM     23  C   UNL     1      36.184 -17.986 -21.642  0.00  0.00    -0.050 C 
BRANCH  23  24
ATOM     24  C   UNL     1      35.302 -16.769 -21.559  0.00  0.00    -0.043 C 
ATOM     25  C   UNL     1      34.865 -16.325 -20.319  0.00  0.00    -0.006 C 
ATOM     26  C   UNL     1      34.938 -16.109 -22.725  0.00  0.00    -0.006 C 
ATOM     27  C   UNL     1      34.049 -15.197 -20.243  0.00  0.00    -0.000 C 
ATOM     28  C   UNL     1      34.121 -14.980 -22.648  0.00  0.00    -0.000 C 
ATOM     29  C   UNL     1      33.676 -14.524 -21.407  0.00  0.00    -0.000 C 
ENDBRANCH  23  24
ENDBRANCH  16  23
ENDBRANCH   1  17
TORSDOF 6
ENDMDL
MODEL 5
REMARK VINA RESULT:     -10.5      2.087      4.410
REMARK  Name = 3152
REMARK  6 active torsions:
REMARK  status: ('A' for Active; 'I' for Inactive)
REMARK    1  A    between atoms: C_1  and  C_3
REMARK    2  A    between atoms: C_1  and  C_17
REMARK    3  A    between atoms: C_10  and  O_12
REMARK    4  A    between atoms: C_11  and  O_14
REMARK    5  A    between atoms: N_16  and  C_23
REMARK    6  A    between atoms: C_23  and  C_24
REMARK                            x       y       z     vdW  Elec       q    Type
REMARK                         _______ _______ _______ _____ _____    ______ ____
ROOT
ATOM      1  C   UNL     1      35.901 -21.937 -18.089  0.00  0.00    +0.008 C 
ENDROOT
BRANCH   1   3
ATOM      2  O   UNL     1      35.649 -23.953 -15.853  0.00  0.00    -0.291 OA
ATOM      3  C   UNL     1      34.854 -23.028 -17.976  0.00  0.00    +0.066 C 
ATOM      4  C   UNL     1      33.435 -22.530 -18.334  0.00  0.00    +0.034 C 
ATOM      5  C   UNL     1      34.740 -23.538 -16.551  0.00  0.00    +0.173 C 
ATOM      6  C   UNL     1      32.606 -22.903 -17.146  0.00  0.00    -0.016 C 
ATOM      7  C   UNL     1      33.353 -23.470 -16.121  0.00  0.00    +0.034 C 
ATOM      8  C   UNL     1      31.241 -22.725 -16.983  0.00  0.00    +0.036 C 
ATOM      9  C   UNL     1      32.799 -23.877 -14.921  0.00  0.00    +0.043 C 
ATOM     10  C   UNL     1      30.652 -23.130 -15.782  0.00  0.00    +0.172 C 
ATOM     11  C   UNL     1      31.425 -23.701 -14.758  0.00  0.00    +0.172 C 
BRANCH  10  12
ATOM     12  O   UNL     1      29.309 -22.960 -15.611  0.00  0.00    -0.468 OA
ATOM     13  C   UNL     1      28.452 -23.922 -16.222  0.00  0.00    +0.253 C 
ENDBRANCH  10  12
BRANCH  11  14
ATOM     14  O   UNL     1      30.838 -24.088 -13.589  0.00  0.00    -0.468 OA
ATOM     15  C   UNL     1      30.549 -25.476 -13.440  0.00  0.00    +0.253 C 
ENDBRANCH  11  14
ENDBRANCH   1   3
BRANCH   1  17
ATOM     16  N   UNL     1      35.482 -18.913 -21.143  0.00  0.00    +0.390 N 
ATOM     17  C   UNL     1      35.882 -21.285 -19.467  0.00  0.00    -0.004 C 
ATOM     18  C   UNL     1      34.489 -20.737 -19.798  0.00  0.00    -0.023 C 
ATOM     19  C   UNL     1      36.917 -20.159 -19.559  0.00  0.00    -0.023 C 
ATOM     20  C   UNL     1      34.488 -19.993 -21.136  0.00  0.00    -0.077 C 
ATOM     21  C   UNL     1      36.835 -19.435 -20.905  0.00  0.00    -0.077 C 
ATOM     22  H   UNL     1      35.255 -18.270 -20.384  0.00  0.00    -0.079 HD
BRANCH  16  23
ATOM     23  C   UNL     1      35.433 -18.179 -22.408  0.00  0.00    -0.050 C 
BRANCH  23  24
ATOM     24  C   UNL     1      35.025 -16.744 -22.209  0.00  0.00    -0.043 C 
ATOM     25  C   UNL     1      34.845 -15.925 -23.315  0.00  0.00    -0.006 C 
ATOM     26  C   UNL     1      34.835 -16.260 -20.922  0.00  0.00    -0.006 C 
ATOM     27  C   UNL     1      34.467 -14.595 -23.130  0.00  0.00    -0.000 C 
ATOM     28  C   UNL     1      34.456 -14.929 -20.738  0.00  0.00    -0.000 C 
ATOM     29  C   UNL     1      34.273 -14.097 -21.842  0.00  0.00    -0.000 C 
ENDBRANCH  23  24
ENDBRANCH  16  23
ENDBRANCH   1  17
TORSDOF 6
ENDMDL
MODEL 6
REMARK VINA RESULT:     -10.4      2.134      4.263
REMARK  Name = 3152
REMARK  6 active torsions:
REMARK  status: ('A' for Active; 'I' for Inactive)
REMARK    1  A    between atoms: C_1  and  C_3
REMARK    2  A    between atoms: C_1  and  C_17
REMARK    3  A    between atoms: C_10  and  O_12
REMARK    4  A    between atoms: C_11  and  O_14
REMARK    5  A    between atoms: N_16  and  C_23
REMARK    6  A    between atoms: C_23  and  C_24
REMARK                            x       y       z     vdW  Elec       q    Type
REMARK                         _______ _______ _______ _____ _____    ______ ____
ROOT
ATOM      1  C   UNL     1      34.722 -22.686 -18.877  0.00  0.00    +0.008 C 
ENDROOT
BRANCH   1   3
ATOM      2  O   UNL     1      33.198 -23.197 -16.319  0.00  0.00    -0.291 OA
ATOM      3  C   UNL     1      35.101 -22.198 -17.492  0.00  0.00    +0.066 C 
ATOM      4  C   UNL     1      36.608 -22.368 -17.194  0.00  0.00    +0.034 C 
ATOM      5  C   UNL     1      34.397 -23.001 -16.413  0.00  0.00    +0.173 C 
ATOM      6  C   UNL     1      36.642 -23.141 -15.913  0.00  0.00    -0.016 C 
ATOM      7  C   UNL     1      35.379 -23.513 -15.471  0.00  0.00    +0.034 C 
ATOM      8  C   UNL     1      37.762 -23.511 -15.184  0.00  0.00    +0.036 C 
ATOM      9  C   UNL     1      35.170 -24.247 -14.318  0.00  0.00    +0.043 C 
ATOM     10  C   UNL     1      37.582 -24.251 -14.012  0.00  0.00    +0.172 C 
ATOM     11  C   UNL     1      36.296 -24.618 -13.582  0.00  0.00    +0.172 C 
BRANCH  10  12
ATOM     12  O   UNL     1      38.677 -24.620 -13.286  0.00  0.00    -0.468 OA
ATOM     13  C   UNL     1      39.623 -25.471 -13.930  0.00  0.00    +0.253 C 
ENDBRANCH  10  12
BRANCH  11  14
ATOM     14  O   UNL     1      36.135 -25.343 -12.439  0.00  0.00    -0.468 OA
ATOM     15  C   UNL     1      35.541 -24.675 -11.328  0.00  0.00    +0.253 C 
ENDBRANCH  11  14
ENDBRANCH   1   3
BRANCH   1  17
ATOM     16  N   UNL     1      35.621 -18.958 -20.863  0.00  0.00    +0.390 N 
ATOM     17  C   UNL     1      35.180 -21.711 -19.956  0.00  0.00    -0.004 C 
ATOM     18  C   UNL     1      34.032 -20.796 -20.396  0.00  0.00    -0.023 C 
ATOM     19  C   UNL     1      36.360 -20.863 -19.469  0.00  0.00    -0.023 C 
ATOM     20  C   UNL     1      34.510 -19.750 -21.406  0.00  0.00    -0.077 C 
ATOM     21  C   UNL     1      36.761 -19.816 -20.510  0.00  0.00    -0.077 C 
ATOM     22  H   UNL     1      35.296 -18.500 -20.011  0.00  0.00    -0.079 HD
BRANCH  16  23
ATOM     23  C   UNL     1      36.032 -17.929 -21.818  0.00  0.00    -0.050 C 
BRANCH  23  24
ATOM     24  C   UNL     1      35.210 -16.675 -21.682  0.00  0.00    -0.043 C 
ATOM     25  C   UNL     1      34.820 -15.987 -22.822  0.00  0.00    -0.006 C 
ATOM     26  C   UNL     1      34.855 -16.225 -20.417  0.00  0.00    -0.006 C 
ATOM     27  C   UNL     1      34.058 -14.826 -22.695  0.00  0.00    -0.000 C 
ATOM     28  C   UNL     1      34.093 -15.063 -20.291  0.00  0.00    -0.000 C 
ATOM     29  C   UNL     1      33.695 -14.364 -21.430  0.00  0.00    -0.000 C 
ENDBRANCH  23  24
ENDBRANCH  16  23
ENDBRANCH   1  17
TORSDOF 6
ENDMDL
MODEL 7
REMARK VINA RESULT:     -10.2      5.019     11.503
REMARK  Name = 3152
REMARK  6 active torsions:
REMARK  status: ('A' for Active; 'I' for Inactive)
REMARK    1  A    between atoms: C_1  and  C_3
REMARK    2  A    between atoms: C_1  and  C_17
REMARK    3  A    between atoms: C_10  and  O_12
REMARK    4  A    between atoms: C_11  and  O_14
REMARK    5  A    between atoms: N_16  and  C_23
REMARK    6  A    between atoms: C_23  and  C_24
REMARK                            x       y       z     vdW  Elec       q    Type
REMARK                         _______ _______ _______ _____ _____    ______ ____
ROOT
ATOM      1  C   UNL     1      32.734 -12.948 -21.847  0.00  0.00    +0.008 C 
ENDROOT
BRANCH   1   3
ATOM      2  O   UNL     1      30.727 -10.696 -22.003  0.00  0.00    -0.291 OA
ATOM      3  C   UNL     1      32.627 -11.914 -22.952  0.00  0.00    +0.066 C 
ATOM      4  C   UNL     1      34.005 -11.359 -23.381  0.00  0.00    +0.034 C 
ATOM      5  C   UNL     1      31.842 -10.698 -22.493  0.00  0.00    +0.173 C 
ATOM      6  C   UNL     1      33.857  -9.876 -23.253  0.00  0.00    -0.016 C 
ATOM      7  C   UNL     1      32.625  -9.497 -22.735  0.00  0.00    +0.034 C 
ATOM      8  C   UNL     1      34.796  -8.907 -23.571  0.00  0.00    +0.036 C 
ATOM      9  C   UNL     1      32.273  -8.178 -22.516  0.00  0.00    +0.043 C 
ATOM     10  C   UNL     1      34.468  -7.564 -23.363  0.00  0.00    +0.172 C 
ATOM     11  C   UNL     1      33.216  -7.201 -22.838  0.00  0.00    +0.172 C 
BRANCH  10  12
ATOM     12  O   UNL     1      35.384  -6.601 -23.673  0.00  0.00    -0.468 OA
ATOM     13  C   UNL     1      35.349  -6.078 -24.998  0.00  0.00    +0.253 C 
ENDBRANCH  10  12
BRANCH  11  14
ATOM     14  O   UNL     1      32.910  -5.888 -22.637  0.00  0.00    -0.468 OA
ATOM     15  C   UNL     1      32.149  -5.572 -21.473  0.00  0.00    +0.253 C 
ENDBRANCH  11  14
ENDBRANCH   1   3
BRANCH   1  17
ATOM     16  N   UNL     1      34.730 -16.727 -22.467  0.00  0.00    +0.390 N 
ATOM     17  C   UNL     1      33.847 -13.952 -22.129  0.00  0.00    -0.004 C 
ATOM     18  C   UNL     1      34.045 -14.903 -20.943  0.00  0.00    -0.023 C 
ATOM     19  C   UNL     1      33.552 -14.761 -23.397  0.00  0.00    -0.023 C 
ATOM     20  C   UNL     1      35.090 -15.976 -21.259  0.00  0.00    -0.077 C 
ATOM     21  C   UNL     1      34.614 -15.838 -23.631  0.00  0.00    -0.077 C 
ATOM     22  H   UNL     1      33.820 -17.161 -22.310  0.00  0.00    -0.079 HD
BRANCH  16  23
ATOM     23  C   UNL     1      35.710 -17.782 -22.726  0.00  0.00    -0.050 C 
BRANCH  23  24
ATOM     24  C   UNL     1      35.634 -18.884 -21.704  0.00  0.00    -0.043 C 
ATOM     25  C   UNL     1      36.769 -19.231 -20.986  0.00  0.00    -0.006 C 
ATOM     26  C   UNL     1      34.427 -19.538 -21.494  0.00  0.00    -0.006 C 
ATOM     27  C   UNL     1      36.697 -20.252 -20.039  0.00  0.00    -0.000 C 
ATOM     28  C   UNL     1      34.355 -20.559 -20.546  0.00  0.00    -0.000 C 
ATOM     29  C   UNL     1      35.490 -20.916 -19.819  0.00  0.00    -0.000 C 
ENDBRANCH  23  24
ENDBRANCH  16  23
ENDBRANCH   1  17
TORSDOF 6
ENDMDL
MODEL 8
REMARK VINA RESULT:     -10.2      2.717      4.676
REMARK  Name = 3152
REMARK  6 active torsions:
REMARK  status: ('A' for Active; 'I' for Inactive)
REMARK    1  A    between atoms: C_1  and  C_3
REMARK    2  A    between atoms: C_1  and  C_17
REMARK    3  A    between atoms: C_10  and  O_12
REMARK    4  A    between atoms: C_11  and  O_14
REMARK    5  A    between atoms: N_16  and  C_23
REMARK    6  A    between atoms: C_23  and  C_24
REMARK                            x       y       z     vdW  Elec       q    Type
REMARK                         _______ _______ _______ _____ _____    ______ ____
ROOT
ATOM      1  C   UNL     1      34.368 -23.145 -18.873  0.00  0.00    +0.008 C 
ENDROOT
BRANCH   1   3
ATOM      2  O   UNL     1      31.700 -23.104 -17.457  0.00  0.00    -0.291 OA
ATOM      3  C   UNL     1      34.083 -22.545 -17.510  0.00  0.00    +0.066 C 
ATOM      4  C   UNL     1      35.173 -22.890 -16.469  0.00  0.00    +0.034 C 
ATOM      5  C   UNL     1      32.795 -23.096 -16.924  0.00  0.00    +0.173 C 
ATOM      6  C   UNL     1      34.412 -23.492 -15.330  0.00  0.00    -0.016 C 
ATOM      7  C   UNL     1      33.054 -23.621 -15.593  0.00  0.00    +0.034 C 
ATOM      8  C   UNL     1      34.920 -23.924 -14.115  0.00  0.00    +0.036 C 
ATOM      9  C   UNL     1      32.160 -24.165 -14.690  0.00  0.00    +0.043 C 
ATOM     10  C   UNL     1      34.040 -24.476 -13.180  0.00  0.00    +0.172 C 
ATOM     11  C   UNL     1      32.670 -24.597 -13.466  0.00  0.00    +0.172 C 
BRANCH  10  12
ATOM     12  O   UNL     1      34.529 -24.904 -11.980  0.00  0.00    -0.468 OA
ATOM     13  C   UNL     1      35.706 -24.262 -11.496  0.00  0.00    +0.253 C 
ENDBRANCH  10  12
BRANCH  11  14
ATOM     14  O   UNL     1      31.822 -25.141 -12.546  0.00  0.00    -0.468 OA
ATOM     15  C   UNL     1      30.444 -25.220 -12.903  0.00  0.00    +0.253 C 
ENDBRANCH  11  14
ENDBRANCH   1   3
BRANCH   1  17
ATOM     16  N   UNL     1      35.731 -19.341 -20.398  0.00  0.00    +0.390 N 
ATOM     17  C   UNL     1      34.857 -22.087 -19.857  0.00  0.00    -0.004 C 
ATOM     18  C   UNL     1      33.876 -20.911 -19.935  0.00  0.00    -0.023 C 
ATOM     19  C   UNL     1      36.248 -21.575 -19.470  0.00  0.00    -0.023 C 
ATOM     20  C   UNL     1      34.410 -19.801 -20.843  0.00  0.00    -0.077 C 
ATOM     21  C   UNL     1      36.703 -20.443 -20.394  0.00  0.00    -0.077 C 
ATOM     22  H   UNL     1      35.640 -18.998 -19.442  0.00  0.00    -0.079 HD
BRANCH  16  23
ATOM     23  C   UNL     1      36.204 -18.246 -21.244  0.00  0.00    -0.050 C 
BRANCH  23  24
ATOM     24  C   UNL     1      35.375 -18.101 -22.493  0.00  0.00    -0.043 C 
ATOM     25  C   UNL     1      34.965 -19.236 -23.176  0.00  0.00    -0.006 C 
ATOM     26  C   UNL     1      35.033 -16.832 -22.942  0.00  0.00    -0.006 C 
ATOM     27  C   UNL     1      34.197 -19.102 -24.333  0.00  0.00    -0.000 C 
ATOM     28  C   UNL     1      34.264 -16.698 -24.099  0.00  0.00    -0.000 C 
ATOM     29  C   UNL     1      33.847 -17.833 -24.794  0.00  0.00    -0.000 C 
ENDBRANCH  23  24
ENDBRANCH  16  23
ENDBRANCH   1  17
TORSDOF 6
ENDMDL
MODEL 9
REMARK VINA RESULT:     -10.0      1.752      3.119
REMARK  Name = 3152
REMARK  6 active torsions:
REMARK  status: ('A' for Active; 'I' for Inactive)
REMARK    1  A    between atoms: C_1  and  C_3
REMARK    2  A    between atoms: C_1  and  C_17
REMARK    3  A    between atoms: C_10  and  O_12
REMARK    4  A    between atoms: C_11  and  O_14
REMARK    5  A    between atoms: N_16  and  C_23
REMARK    6  A    between atoms: C_23  and  C_24
REMARK                            x       y       z     vdW  Elec       q    Type
REMARK                         _______ _______ _______ _____ _____    ______ ____
ROOT
ATOM      1  C   UNL     1      33.921 -20.600 -19.876  0.00  0.00    +0.008 C 
ENDROOT
BRANCH   1   3
ATOM      2  O   UNL     1      36.802 -20.790 -18.987  0.00  0.00    -0.291 OA
ATOM      3  C   UNL     1      34.665 -21.868 -19.503  0.00  0.00    +0.066 C 
ATOM      4  C   UNL     1      33.825 -22.809 -18.609  0.00  0.00    +0.034 C 
ATOM      5  C   UNL     1      35.906 -21.558 -18.685  0.00  0.00    +0.173 C 
ATOM      6  C   UNL     1      34.698 -23.059 -17.420  0.00  0.00    -0.016 C 
ATOM      7  C   UNL     1      35.883 -22.336 -17.456  0.00  0.00    +0.034 C 
ATOM      8  C   UNL     1      34.431 -23.887 -16.340  0.00  0.00    +0.036 C 
ATOM      9  C   UNL     1      36.834 -22.397 -16.455  0.00  0.00    +0.043 C 
ATOM     10  C   UNL     1      35.376 -23.972 -15.313  0.00  0.00    +0.172 C 
ATOM     11  C   UNL     1      36.569 -23.232 -15.370  0.00  0.00    +0.172 C 
BRANCH  10  12
ATOM     12  O   UNL     1      35.124 -24.784 -14.246  0.00  0.00    -0.468 OA
ATOM     13  C   UNL     1      33.990 -24.465 -13.444  0.00  0.00    +0.253 C 
ENDBRANCH  10  12
BRANCH  11  14
ATOM     14  O   UNL     1      37.480 -23.321 -14.359  0.00  0.00    -0.468 OA
ATOM     15  C   UNL     1      38.377 -24.429 -14.394  0.00  0.00    +0.253 C 
ENDBRANCH  11  14
ENDBRANCH   1   3
BRANCH   1  17
ATOM     16  N   UNL     1      34.536 -17.763 -23.073  0.00  0.00    +0.390 N 
ATOM     17  C   UNL     1      34.548 -19.922 -21.089  0.00  0.00    -0.004 C 
ATOM     18  C   UNL     1      33.574 -19.897 -22.272  0.00  0.00    -0.023 C 
ATOM     19  C   UNL     1      34.991 -18.493 -20.754  0.00  0.00    -0.023 C 
ATOM     20  C   UNL     1      34.160 -19.129 -23.459  0.00  0.00    -0.077 C 
ATOM     21  C   UNL     1      35.530 -17.772 -21.991  0.00  0.00    -0.077 C 
ATOM     22  H   UNL     1      33.699 -17.291 -22.728  0.00  0.00    -0.079 HD
BRANCH  16  23
ATOM     23  C   UNL     1      35.045 -17.026 -24.229  0.00  0.00    -0.050 C 
BRANCH  23  24
ATOM     24  C   UNL     1      34.469 -15.637 -24.308  0.00  0.00    -0.043 C 
ATOM     25  C   UNL     1      34.633 -14.767 -23.239  0.00  0.00    -0.006 C 
ATOM     26  C   UNL     1      33.782 -15.246 -25.449  0.00  0.00    -0.006 C 
ATOM     27  C   UNL     1      34.100 -13.481 -23.313  0.00  0.00    -0.000 C 
ATOM     28  C   UNL     1      33.249 -13.959 -25.523  0.00  0.00    -0.000 C 
ATOM     29  C   UNL     1      33.407 -13.076 -24.455  0.00  0.00    -0.000 C 
ENDBRANCH  23  24
ENDBRANCH  16  23
ENDBRANCH   1  17
TORSDOF 6
ENDMDL
