MODEL 1
REMARK VINA RESULT:     -12.4      0.000      0.000
REMARK  Name = 52920501
REMARK  9 active torsions:
REMARK  status: ('A' for Active; 'I' for Inactive)
REMARK    1  A    between atoms: N_1  and  C_12
REMARK    2  A    between atoms: C_5  and  O_27
REMARK    3  A    between atoms: C_9  and  C_15
REMARK    4  A    between atoms: C_15  and  S_16
REMARK    5  A    between atoms: S_16  and  N_19
REMARK    6  A    between atoms: N_19  and  C_21
REMARK    7  A    between atoms: C_21  and  C_22
REMARK    8  A    between atoms: C_22  and  N_23
REMARK    9  A    between atoms: O_27  and  C_35
REMARK                            x       y       z     vdW  Elec       q    Type
REMARK                         _______ _______ _______ _____ _____    ______ ____
ROOT
ATOM      1  N   UNL     1      32.615 -22.654 -18.256  0.00  0.00    -0.247 N 
ATOM      2  N   UNL     1      33.298 -22.977 -16.034  0.00  0.00    -0.300 NA
ATOM      3  N   UNL     1      31.112 -23.676 -16.771  0.00  0.00    -0.170 NA
ATOM      4  C   UNL     1      32.328 -23.126 -16.956  0.00  0.00    +0.152 C 
ATOM      5  C   UNL     1      32.989 -23.438 -14.804  0.00  0.00    +0.295 C 
ATOM      6  C   UNL     1      31.780 -24.022 -14.485  0.00  0.00    +0.094 C 
ATOM      7  C   UNL     1      30.871 -24.115 -15.519  0.00  0.00    +0.118 C 
ATOM      8  H   UNL     1      31.879 -22.783 -18.896  0.00  0.00    +0.165 HD
ENDROOT
BRANCH   1  12
ATOM      9  C   UNL     1      34.741 -20.595 -20.480  0.00  0.00    +0.004 C 
ATOM     10  C   UNL     1      33.616 -21.207 -19.927  0.00  0.00    +0.013 C 
ATOM     11  C   UNL     1      36.000 -20.814 -19.921  0.00  0.00    -0.002 C 
ATOM     12  C   UNL     1      33.750 -22.037 -18.814  0.00  0.00    +0.057 C 
ATOM     13  C   UNL     1      36.134 -21.644 -18.807  0.00  0.00    +0.001 C 
ATOM     14  C   UNL     1      35.009 -22.256 -18.255  0.00  0.00    +0.015 C 
BRANCH   9  15
ATOM     15  C   UNL     1      34.598 -19.707 -21.670  0.00  0.00    +0.195 C 
BRANCH  15  16
ATOM     16  S   UNL     1      35.701 -18.345 -21.466  0.00  0.00    +0.045 S 
ATOM     17  O   UNL     1      35.168 -17.472 -20.434  0.00  0.00    -0.157 OA
ATOM     18  O   UNL     1      37.050 -18.876 -21.351  0.00  0.00    -0.157 OA
BRANCH  16  19
ATOM     19  N   UNL     1      35.560 -17.579 -22.989  0.00  0.00    -0.185 NA
ATOM     20  H   UNL     1      35.081 -18.233 -23.609  0.00  0.00    +0.148 HD
BRANCH  19  21
ATOM     21  C   UNL     1      34.841 -16.295 -23.078  0.00  0.00    +0.068 C 
BRANCH  21  22
ATOM     22  C   UNL     1      34.278 -16.132 -24.483  0.00  0.00    -0.058 C 
BRANCH  22  23
ATOM     23  N   UNL     1      33.252 -15.096 -24.499  0.00  0.00    +0.385 N 
ATOM     24  C   UNL     1      33.354 -14.251 -23.307  0.00  0.00    -0.101 C 
ATOM     25  C   UNL     1      33.361 -14.280 -25.709  0.00  0.00    -0.101 C 
ATOM     26  H   UNL     1      32.340 -15.551 -24.496  0.00  0.00    -0.080 HD
ENDBRANCH  22  23
ENDBRANCH  21  22
ENDBRANCH  19  21
ENDBRANCH  16  19
ENDBRANCH  15  16
ENDBRANCH   9  15
ENDBRANCH   1  12
BRANCH   5  27
ATOM     27  O   UNL     1      33.955 -23.308 -13.821  0.00  0.00    -0.427 OA
BRANCH  27  35
ATOM     28  N   UNL     1      39.116 -24.724 -15.013  0.00  0.00    -0.316 N 
ATOM     29  C   UNL     1      37.190 -25.031 -13.928  0.00  0.00    +0.017 C 
ATOM     30  C   UNL     1      37.850 -24.212 -14.847  0.00  0.00    +0.048 C 
ATOM     31  C   UNL     1      39.281 -25.837 -14.233  0.00  0.00    +0.026 C 
ATOM     32  C   UNL     1      38.106 -26.052 -13.549  0.00  0.00    +0.012 C 
ATOM     33  C   UNL     1      35.861 -24.724 -13.576  0.00  0.00    +0.039 C 
ATOM     34  C   UNL     1      37.242 -23.096 -15.435  0.00  0.00    +0.018 C 
ATOM     35  C   UNL     1      35.241 -23.612 -14.156  0.00  0.00    +0.148 C 
ATOM     36  C   UNL     1      35.923 -22.811 -15.070  0.00  0.00    +0.039 C 
ATOM     37  C   UNL     1      40.552 -26.583 -14.220  0.00  0.00    +0.047 C 
ATOM     38  H   UNL     1      39.804 -24.346 -15.607  0.00  0.00    +0.152 HD
ENDBRANCH  27  35
ENDBRANCH   5  27
TORSDOF 9
ENDMDL
MODEL 2
REMARK VINA RESULT:     -12.0      3.603     11.886
REMARK  Name = 52920501
REMARK  9 active torsions:
REMARK  status: ('A' for Active; 'I' for Inactive)
REMARK    1  A    between atoms: N_1  and  C_12
REMARK    2  A    between atoms: C_5  and  O_27
REMARK    3  A    between atoms: C_9  and  C_15
REMARK    4  A    between atoms: C_15  and  S_16
REMARK    5  A    between atoms: S_16  and  N_19
REMARK    6  A    between atoms: N_19  and  C_21
REMARK    7  A    between atoms: C_21  and  C_22
REMARK    8  A    between atoms: C_22  and  N_23
REMARK    9  A    between atoms: O_27  and  C_35
REMARK                            x       y       z     vdW  Elec       q    Type
REMARK                         _______ _______ _______ _____ _____    ______ ____
ROOT
ATOM      1  N   UNL     1      34.633 -19.286 -23.037  0.00  0.00    -0.247 N 
ATOM      2  N   UNL     1      34.741 -16.998 -22.529  0.00  0.00    -0.300 NA
ATOM      3  N   UNL     1      34.164 -17.748 -24.746  0.00  0.00    -0.170 NA
ATOM      4  C   UNL     1      34.506 -17.944 -23.458  0.00  0.00    +0.152 C 
ATOM      5  C   UNL     1      34.612 -15.728 -22.966  0.00  0.00    +0.295 C 
ATOM      6  C   UNL     1      34.267 -15.392 -24.259  0.00  0.00    +0.094 C 
ATOM      7  C   UNL     1      34.053 -16.454 -25.114  0.00  0.00    +0.118 C 
ATOM      8  H   UNL     1      34.452 -19.943 -23.748  0.00  0.00    +0.165 HD
ENDROOT
BRANCH   1  12
ATOM      9  C   UNL     1      34.300 -21.005 -19.775  0.00  0.00    +0.004 C 
ATOM     10  C   UNL     1      33.969 -20.428 -21.001  0.00  0.00    +0.013 C 
ATOM     11  C   UNL     1      35.628 -21.020 -19.347  0.00  0.00    -0.002 C 
ATOM     12  C   UNL     1      34.966 -19.868 -21.800  0.00  0.00    +0.057 C 
ATOM     13  C   UNL     1      36.625 -20.460 -20.145  0.00  0.00    +0.001 C 
ATOM     14  C   UNL     1      36.293 -19.883 -21.372  0.00  0.00    +0.015 C 
BRANCH   9  15
ATOM     15  C   UNL     1      33.234 -21.605 -18.921  0.00  0.00    +0.195 C 
BRANCH  15  16
ATOM     16  S   UNL     1      33.853 -23.122 -18.268  0.00  0.00    +0.045 S 
ATOM     17  O   UNL     1      34.004 -24.067 -19.362  0.00  0.00    -0.157 OA
ATOM     18  O   UNL     1      34.984 -22.811 -17.409  0.00  0.00    -0.157 OA
BRANCH  16  19
ATOM     19  N   UNL     1      32.548 -23.607 -17.274  0.00  0.00    -0.185 NA
ATOM     20  H   UNL     1      32.307 -24.561 -17.541  0.00  0.00    +0.148 HD
BRANCH  19  21
ATOM     21  C   UNL     1      32.725 -23.600 -15.810  0.00  0.00    +0.068 C 
BRANCH  21  22
ATOM     22  C   UNL     1      31.369 -23.420 -15.142  0.00  0.00    -0.058 C 
BRANCH  22  23
ATOM     23  N   UNL     1      30.730 -24.715 -14.939  0.00  0.00    +0.385 N 
ATOM     24  C   UNL     1      31.090 -25.267 -13.631  0.00  0.00    -0.101 C 
ATOM     25  C   UNL     1      29.276 -24.597 -15.057  0.00  0.00    -0.101 C 
ATOM     26  H   UNL     1      31.065 -25.351 -15.662  0.00  0.00    -0.080 HD
ENDBRANCH  22  23
ENDBRANCH  21  22
ENDBRANCH  19  21
ENDBRANCH  16  19
ENDBRANCH  15  16
ENDBRANCH   9  15
ENDBRANCH   1  12
BRANCH   5  27
ATOM     27  O   UNL     1      34.843 -14.718 -22.047  0.00  0.00    -0.427 OA
BRANCH  27  35
ATOM     28  N   UNL     1      31.125 -10.703 -21.714  0.00  0.00    -0.316 N 
ATOM     29  C   UNL     1      32.948 -11.629 -22.606  0.00  0.00    +0.017 C 
ATOM     30  C   UNL     1      31.951 -11.801 -21.643  0.00  0.00    +0.048 C 
ATOM     31  C   UNL     1      31.563  -9.843 -22.684  0.00  0.00    +0.026 C 
ATOM     32  C   UNL     1      32.691 -10.389 -23.255  0.00  0.00    +0.012 C 
ATOM     33  C   UNL     1      33.936 -12.623 -22.745  0.00  0.00    +0.039 C 
ATOM     34  C   UNL     1      31.893 -12.924 -20.810  0.00  0.00    +0.018 C 
ATOM     35  C   UNL     1      33.891 -13.752 -21.918  0.00  0.00    +0.148 C 
ATOM     36  C   UNL     1      32.884 -13.897 -20.966  0.00  0.00    +0.039 C 
ATOM     37  C   UNL     1      30.856  -8.582 -22.968  0.00  0.00    +0.047 C 
ATOM     38  H   UNL     1      30.332 -10.556 -21.148  0.00  0.00    +0.152 HD
ENDBRANCH  27  35
ENDBRANCH   5  27
TORSDOF 9
ENDMDL
MODEL 3
REMARK VINA RESULT:     -11.8      1.059      1.466
REMARK  Name = 52920501
REMARK  9 active torsions:
REMARK  status: ('A' for Active; 'I' for Inactive)
REMARK    1  A    between atoms: N_1  and  C_12
REMARK    2  A    between atoms: C_5  and  O_27
REMARK    3  A    between atoms: C_9  and  C_15
REMARK    4  A    between atoms: C_15  and  S_16
REMARK    5  A    between atoms: S_16  and  N_19
REMARK    6  A    between atoms: N_19  and  C_21
REMARK    7  A    between atoms: C_21  and  C_22
REMARK    8  A    between atoms: C_22  and  N_23
REMARK    9  A    between atoms: O_27  and  C_35
REMARK                            x       y       z     vdW  Elec       q    Type
REMARK                         _______ _______ _______ _____ _____    ______ ____
ROOT
ATOM      1  N   UNL     1      32.706 -22.487 -18.392  0.00  0.00    -0.247 N 
ATOM      2  N   UNL     1      33.540 -22.891 -16.237  0.00  0.00    -0.300 NA
ATOM      3  N   UNL     1      31.278 -23.485 -16.820  0.00  0.00    -0.170 NA
ATOM      4  C   UNL     1      32.498 -22.979 -17.085  0.00  0.00    +0.152 C 
ATOM      5  C   UNL     1      33.306 -23.369 -14.997  0.00  0.00    +0.295 C 
ATOM      6  C   UNL     1      32.102 -23.912 -14.599  0.00  0.00    +0.094 C 
ATOM      7  C   UNL     1      31.114 -23.945 -15.562  0.00  0.00    +0.118 C 
ATOM      8  H   UNL     1      31.919 -22.572 -18.978  0.00  0.00    +0.165 HD
ENDROOT
BRANCH   1  12
ATOM      9  C   UNL     1      34.743 -20.495 -20.757  0.00  0.00    +0.004 C 
ATOM     10  C   UNL     1      33.639 -21.076 -20.133  0.00  0.00    +0.013 C 
ATOM     11  C   UNL     1      36.028 -20.741 -20.271  0.00  0.00    -0.002 C 
ATOM     12  C   UNL     1      33.819 -21.901 -19.023  0.00  0.00    +0.057 C 
ATOM     13  C   UNL     1      36.209 -21.566 -19.161  0.00  0.00    +0.001 C 
ATOM     14  C   UNL     1      35.104 -22.146 -18.537  0.00  0.00    +0.015 C 
BRANCH   9  15
ATOM     15  C   UNL     1      34.550 -19.612 -21.943  0.00  0.00    +0.195 C 
BRANCH  15  16
ATOM     16  S   UNL     1      35.593 -18.203 -21.745  0.00  0.00    +0.045 S 
ATOM     17  O   UNL     1      35.244 -17.543 -20.498  0.00  0.00    -0.157 OA
ATOM     18  O   UNL     1      36.963 -18.622 -21.992  0.00  0.00    -0.157 OA
BRANCH  16  19
ATOM     19  N   UNL     1      35.087 -17.235 -23.062  0.00  0.00    -0.185 NA
ATOM     20  H   UNL     1      34.091 -17.408 -23.195  0.00  0.00    +0.148 HD
BRANCH  19  21
ATOM     21  C   UNL     1      35.265 -15.774 -22.983  0.00  0.00    +0.068 C 
BRANCH  21  22
ATOM     22  C   UNL     1      33.917 -15.093 -23.175  0.00  0.00    -0.058 C 
BRANCH  22  23
ATOM     23  N   UNL     1      33.810 -13.929 -22.305  0.00  0.00    +0.385 N 
ATOM     24  C   UNL     1      32.553 -13.218 -22.546  0.00  0.00    -0.101 C 
ATOM     25  C   UNL     1      33.907 -14.325 -20.899  0.00  0.00    -0.101 C 
ATOM     26  H   UNL     1      34.584 -13.300 -22.518  0.00  0.00    -0.080 HD
ENDBRANCH  22  23
ENDBRANCH  21  22
ENDBRANCH  19  21
ENDBRANCH  16  19
ENDBRANCH  15  16
ENDBRANCH   9  15
ENDBRANCH   1  12
BRANCH   5  27
ATOM     27  O   UNL     1      34.348 -23.301 -14.088  0.00  0.00    -0.427 OA
BRANCH  27  35
ATOM     28  N   UNL     1      38.501 -26.864 -14.418  0.00  0.00    -0.316 N 
ATOM     29  C   UNL     1      37.650 -24.879 -13.860  0.00  0.00    +0.017 C 
ATOM     30  C   UNL     1      37.344 -26.120 -14.424  0.00  0.00    +0.048 C 
ATOM     31  C   UNL     1      39.527 -26.140 -13.872  0.00  0.00    +0.026 C 
ATOM     32  C   UNL     1      39.030 -24.906 -13.517  0.00  0.00    +0.012 C 
ATOM     33  C   UNL     1      36.629 -23.916 -13.744  0.00  0.00    +0.039 C 
ATOM     34  C   UNL     1      36.062 -26.446 -14.880  0.00  0.00    +0.018 C 
ATOM     35  C   UNL     1      35.341 -24.228 -14.196  0.00  0.00    +0.148 C 
ATOM     36  C   UNL     1      35.065 -25.474 -14.755  0.00  0.00    +0.039 C 
ATOM     37  C   UNL     1      40.882 -26.705 -13.747  0.00  0.00    +0.047 C 
ATOM     38  H   UNL     1      38.581 -27.785 -14.758  0.00  0.00    +0.152 HD
ENDBRANCH  27  35
ENDBRANCH   5  27
TORSDOF 9
ENDMDL
MODEL 4
REMARK VINA RESULT:     -11.6      1.609      4.965
REMARK  Name = 52920501
REMARK  9 active torsions:
REMARK  status: ('A' for Active; 'I' for Inactive)
REMARK    1  A    between atoms: N_1  and  C_12
REMARK    2  A    between atoms: C_5  and  O_27
REMARK    3  A    between atoms: C_9  and  C_15
REMARK    4  A    between atoms: C_15  and  S_16
REMARK    5  A    between atoms: S_16  and  N_19
REMARK    6  A    between atoms: N_19  and  C_21
REMARK    7  A    between atoms: C_21  and  C_22
REMARK    8  A    between atoms: C_22  and  N_23
REMARK    9  A    between atoms: O_27  and  C_35
REMARK                            x       y       z     vdW  Elec       q    Type
REMARK                         _______ _______ _______ _____ _____    ______ ____
ROOT
ATOM      1  N   UNL     1      36.398 -21.757 -17.791  0.00  0.00    -0.247 N 
ATOM      2  N   UNL     1      35.398 -23.385 -16.429  0.00  0.00    -0.300 NA
ATOM      3  N   UNL     1      37.654 -22.642 -16.017  0.00  0.00    -0.170 NA
ATOM      4  C   UNL     1      36.487 -22.638 -16.691  0.00  0.00    +0.152 C 
ATOM      5  C   UNL     1      35.519 -24.216 -15.373  0.00  0.00    +0.295 C 
ATOM      6  C   UNL     1      36.659 -24.315 -14.601  0.00  0.00    +0.094 C 
ATOM      7  C   UNL     1      37.705 -23.496 -14.973  0.00  0.00    +0.118 C 
ATOM      8  H   UNL     1      37.216 -21.231 -17.945  0.00  0.00    +0.165 HD
ENDROOT
BRANCH   1  12
ATOM      9  C   UNL     1      34.628 -20.532 -20.803  0.00  0.00    +0.004 C 
ATOM     10  C   UNL     1      35.650 -20.804 -19.894  0.00  0.00    +0.013 C 
ATOM     11  C   UNL     1      33.322 -20.938 -20.526  0.00  0.00    -0.002 C 
ATOM     12  C   UNL     1      35.367 -21.482 -18.708  0.00  0.00    +0.057 C 
ATOM     13  C   UNL     1      33.039 -21.617 -19.340  0.00  0.00    +0.001 C 
ATOM     14  C   UNL     1      34.062 -21.888 -18.432  0.00  0.00    +0.015 C 
BRANCH   9  15
ATOM     15  C   UNL     1      34.931 -19.807 -22.070  0.00  0.00    +0.195 C 
BRANCH  15  16
ATOM     16  S   UNL     1      35.798 -18.327 -21.655  0.00  0.00    +0.045 S 
ATOM     17  O   UNL     1      35.065 -17.643 -20.603  0.00  0.00    -0.157 OA
ATOM     18  O   UNL     1      37.199 -18.668 -21.467  0.00  0.00    -0.157 OA
BRANCH  16  19
ATOM     19  N   UNL     1      35.657 -17.445 -23.114  0.00  0.00    -0.185 NA
ATOM     20  H   UNL     1      35.263 -18.079 -23.809  0.00  0.00    +0.148 HD
BRANCH  19  21
ATOM     21  C   UNL     1      34.835 -16.221 -23.131  0.00  0.00    +0.068 C 
BRANCH  21  22
ATOM     22  C   UNL     1      34.190 -16.069 -24.501  0.00  0.00    -0.058 C 
BRANCH  22  23
ATOM     23  N   UNL     1      33.194 -15.005 -24.475  0.00  0.00    +0.385 N 
ATOM     24  C   UNL     1      33.347 -14.184 -23.272  0.00  0.00    -0.101 C 
ATOM     25  C   UNL     1      33.298 -14.171 -25.674  0.00  0.00    -0.101 C 
ATOM     26  H   UNL     1      32.269 -15.436 -24.458  0.00  0.00    -0.080 HD
ENDBRANCH  22  23
ENDBRANCH  21  22
ENDBRANCH  19  21
ENDBRANCH  16  19
ENDBRANCH  15  16
ENDBRANCH   9  15
ENDBRANCH   1  12
BRANCH   5  27
ATOM     27  O   UNL     1      34.425 -25.005 -15.062  0.00  0.00    -0.427 OA
BRANCH  27  35
ATOM     28  N   UNL     1      29.564 -22.556 -14.405  0.00  0.00    -0.316 N 
ATOM     29  C   UNL     1      31.009 -23.778 -15.586  0.00  0.00    +0.017 C 
ATOM     30  C   UNL     1      30.829 -23.096 -14.381  0.00  0.00    +0.048 C 
ATOM     31  C   UNL     1      28.937 -22.872 -15.580  0.00  0.00    +0.026 C 
ATOM     32  C   UNL     1      29.807 -23.628 -16.333  0.00  0.00    +0.012 C 
ATOM     33  C   UNL     1      32.235 -24.430 -15.821  0.00  0.00    +0.039 C 
ATOM     34  C   UNL     1      31.820 -23.034 -13.394  0.00  0.00    +0.018 C 
ATOM     35  C   UNL     1      33.235 -24.376 -14.843  0.00  0.00    +0.148 C 
ATOM     36  C   UNL     1      33.029 -23.688 -13.649  0.00  0.00    +0.039 C 
ATOM     37  C   UNL     1      27.565 -22.415 -15.865  0.00  0.00    +0.047 C 
ATOM     38  H   UNL     1      29.165 -22.020 -13.681  0.00  0.00    +0.152 HD
ENDBRANCH  27  35
ENDBRANCH   5  27
TORSDOF 9
ENDMDL
MODEL 5
REMARK VINA RESULT:     -11.3      2.159      5.494
REMARK  Name = 52920501
REMARK  9 active torsions:
REMARK  status: ('A' for Active; 'I' for Inactive)
REMARK    1  A    between atoms: N_1  and  C_12
REMARK    2  A    between atoms: C_5  and  O_27
REMARK    3  A    between atoms: C_9  and  C_15
REMARK    4  A    between atoms: C_15  and  S_16
REMARK    5  A    between atoms: S_16  and  N_19
REMARK    6  A    between atoms: N_19  and  C_21
REMARK    7  A    between atoms: C_21  and  C_22
REMARK    8  A    between atoms: C_22  and  N_23
REMARK    9  A    between atoms: O_27  and  C_35
REMARK                            x       y       z     vdW  Elec       q    Type
REMARK                         _______ _______ _______ _____ _____    ______ ____
ROOT
ATOM      1  N   UNL     1      36.034 -23.525 -15.895  0.00  0.00    -0.247 N 
ATOM      2  N   UNL     1      34.443 -23.601 -14.172  0.00  0.00    -0.300 NA
ATOM      3  N   UNL     1      36.706 -24.343 -13.800  0.00  0.00    -0.170 NA
ATOM      4  C   UNL     1      35.711 -23.838 -14.557  0.00  0.00    +0.152 C 
ATOM      5  C   UNL     1      34.170 -23.913 -12.888  0.00  0.00    +0.295 C 
ATOM      6  C   UNL     1      35.098 -24.435 -12.012  0.00  0.00    +0.094 C 
ATOM      7  C   UNL     1      36.362 -24.631 -12.528  0.00  0.00    +0.118 C 
ATOM      8  H   UNL     1      36.971 -23.714 -16.132  0.00  0.00    +0.165 HD
ENDROOT
BRANCH   1  12
ATOM      9  C   UNL     1      35.153 -21.713 -19.002  0.00  0.00    +0.004 C 
ATOM     10  C   UNL     1      35.903 -22.239 -17.949  0.00  0.00    +0.013 C 
ATOM     11  C   UNL     1      33.779 -21.942 -19.061  0.00  0.00    -0.002 C 
ATOM     12  C   UNL     1      35.279 -22.994 -16.957  0.00  0.00    +0.057 C 
ATOM     13  C   UNL     1      33.153 -22.698 -18.068  0.00  0.00    +0.001 C 
ATOM     14  C   UNL     1      33.904 -23.223 -17.016  0.00  0.00    +0.015 C 
BRANCH   9  15
ATOM     15  C   UNL     1      35.822 -20.907 -20.063  0.00  0.00    +0.195 C 
BRANCH  15  16
ATOM     16  S   UNL     1      34.579 -19.970 -20.894  0.00  0.00    +0.045 S 
ATOM     17  O   UNL     1      34.604 -20.321 -22.305  0.00  0.00    -0.157 OA
ATOM     18  O   UNL     1      33.346 -20.087 -20.133  0.00  0.00    -0.157 OA
BRANCH  16  19
ATOM     19  N   UNL     1      35.179 -18.380 -20.693  0.00  0.00    -0.185 NA
ATOM     20  H   UNL     1      35.921 -18.427 -19.995  0.00  0.00    +0.148 HD
BRANCH  19  21
ATOM     21  C   UNL     1      35.730 -17.671 -21.862  0.00  0.00    +0.068 C 
BRANCH  21  22
ATOM     22  C   UNL     1      35.028 -16.330 -22.013  0.00  0.00    -0.058 C 
BRANCH  22  23
ATOM     23  N   UNL     1      35.075 -15.888 -23.401  0.00  0.00    +0.385 N 
ATOM     24  C   UNL     1      34.697 -16.978 -24.302  0.00  0.00    -0.101 C 
ATOM     25  C   UNL     1      34.197 -14.734 -23.606  0.00  0.00    -0.101 C 
ATOM     26  H   UNL     1      36.033 -15.608 -23.613  0.00  0.00    -0.080 HD
ENDBRANCH  22  23
ENDBRANCH  21  22
ENDBRANCH  19  21
ENDBRANCH  16  19
ENDBRANCH  15  16
ENDBRANCH   9  15
ENDBRANCH   1  12
BRANCH   5  27
ATOM     27  O   UNL     1      32.878 -23.685 -12.446  0.00  0.00    -0.427 OA
BRANCH  27  35
ATOM     28  N   UNL     1      28.746 -24.803 -15.873  0.00  0.00    -0.316 N 
ATOM     29  C   UNL     1      30.168 -23.386 -14.898  0.00  0.00    +0.017 C 
ATOM     30  C   UNL     1      29.784 -24.727 -14.972  0.00  0.00    +0.048 C 
ATOM     31  C   UNL     1      28.461 -23.560 -16.371  0.00  0.00    +0.026 C 
ATOM     32  C   UNL     1      29.324 -22.661 -15.786  0.00  0.00    +0.012 C 
ATOM     33  C   UNL     1      31.223 -23.028 -14.036  0.00  0.00    +0.039 C 
ATOM     34  C   UNL     1      30.406 -25.732 -14.224  0.00  0.00    +0.018 C 
ATOM     35  C   UNL     1      31.855 -24.023 -13.282  0.00  0.00    +0.148 C 
ATOM     36  C   UNL     1      31.451 -25.354 -13.376  0.00  0.00    +0.039 C 
ATOM     37  C   UNL     1      27.385 -23.359 -17.359  0.00  0.00    +0.047 C 
ATOM     38  H   UNL     1      28.277 -25.631 -16.124  0.00  0.00    +0.152 HD
ENDBRANCH  27  35
ENDBRANCH   5  27
TORSDOF 9
ENDMDL
MODEL 6
REMARK VINA RESULT:     -11.3      3.207     10.939
REMARK  Name = 52920501
REMARK  9 active torsions:
REMARK  status: ('A' for Active; 'I' for Inactive)
REMARK    1  A    between atoms: N_1  and  C_12
REMARK    2  A    between atoms: C_5  and  O_27
REMARK    3  A    between atoms: C_9  and  C_15
REMARK    4  A    between atoms: C_15  and  S_16
REMARK    5  A    between atoms: S_16  and  N_19
REMARK    6  A    between atoms: N_19  and  C_21
REMARK    7  A    between atoms: C_21  and  C_22
REMARK    8  A    between atoms: C_22  and  N_23
REMARK    9  A    between atoms: O_27  and  C_35
REMARK                            x       y       z     vdW  Elec       q    Type
REMARK                         _______ _______ _______ _____ _____    ______ ____
ROOT
ATOM      1  N   UNL     1      35.261 -21.551 -20.342  0.00  0.00    -0.247 N 
ATOM      2  N   UNL     1      35.307 -19.207 -20.442  0.00  0.00    -0.300 NA
ATOM      3  N   UNL     1      34.805 -20.521 -22.400  0.00  0.00    -0.170 NA
ATOM      4  C   UNL     1      35.117 -20.368 -21.098  0.00  0.00    +0.152 C 
ATOM      5  C   UNL     1      35.162 -18.098 -21.196  0.00  0.00    +0.295 C 
ATOM      6  C   UNL     1      34.844 -18.118 -22.538  0.00  0.00    +0.094 C 
ATOM      7  C   UNL     1      34.676 -19.370 -23.093  0.00  0.00    +0.118 C 
ATOM      8  H   UNL     1      35.114 -22.375 -20.861  0.00  0.00    +0.165 HD
ENDROOT
BRANCH   1  12
ATOM      9  C   UNL     1      35.014 -22.754 -16.849  0.00  0.00    +0.004 C 
ATOM     10  C   UNL     1      34.704 -22.524 -18.189  0.00  0.00    +0.013 C 
ATOM     11  C   UNL     1      36.195 -22.243 -16.309  0.00  0.00    -0.002 C 
ATOM     12  C   UNL     1      35.574 -21.784 -18.989  0.00  0.00    +0.057 C 
ATOM     13  C   UNL     1      37.065 -21.503 -17.109  0.00  0.00    +0.001 C 
ATOM     14  C   UNL     1      36.754 -21.273 -18.449  0.00  0.00    +0.015 C 
BRANCH   9  15
ATOM     15  C   UNL     1      34.085 -23.546 -15.993  0.00  0.00    +0.195 C 
BRANCH  15  16
ATOM     16  S   UNL     1      35.048 -24.383 -14.775  0.00  0.00    +0.045 S 
ATOM     17  O   UNL     1      35.881 -25.369 -15.444  0.00  0.00    -0.157 OA
ATOM     18  O   UNL     1      35.653 -23.378 -13.915  0.00  0.00    -0.157 OA
BRANCH  16  19
ATOM     19  N   UNL     1      33.826 -25.181 -13.883  0.00  0.00    -0.185 NA
ATOM     20  H   UNL     1      34.263 -25.540 -13.033  0.00  0.00    +0.148 HD
BRANCH  19  21
ATOM     21  C   UNL     1      32.634 -24.420 -13.466  0.00  0.00    +0.068 C 
BRANCH  21  22
ATOM     22  C   UNL     1      31.442 -25.362 -13.382  0.00  0.00    -0.058 C 
BRANCH  22  23
ATOM     23  N   UNL     1      30.219 -24.664 -13.759  0.00  0.00    +0.385 N 
ATOM     24  C   UNL     1      30.519 -23.540 -14.648  0.00  0.00    -0.101 C 
ATOM     25  C   UNL     1      29.277 -25.582 -14.402  0.00  0.00    -0.101 C 
ATOM     26  H   UNL     1      29.787 -24.298 -12.909  0.00  0.00    -0.080 HD
ENDBRANCH  22  23
ENDBRANCH  21  22
ENDBRANCH  19  21
ENDBRANCH  16  19
ENDBRANCH  15  16
ENDBRANCH   9  15
ENDBRANCH   1  12
BRANCH   5  27
ATOM     27  O   UNL     1      35.346 -16.879 -20.565  0.00  0.00    -0.427 OA
BRANCH  27  35
ATOM     28  N   UNL     1      32.493 -12.535 -22.311  0.00  0.00    -0.316 N 
ATOM     29  C   UNL     1      33.068 -14.011 -20.740  0.00  0.00    +0.017 C 
ATOM     30  C   UNL     1      33.290 -13.629 -22.065  0.00  0.00    +0.048 C 
ATOM     31  C   UNL     1      31.776 -12.211 -21.191  0.00  0.00    +0.026 C 
ATOM     32  C   UNL     1      32.109 -13.108 -20.201  0.00  0.00    +0.012 C 
ATOM     33  C   UNL     1      33.768 -15.120 -20.226  0.00  0.00    +0.039 C 
ATOM     34  C   UNL     1      34.183 -14.304 -22.904  0.00  0.00    +0.018 C 
ATOM     35  C   UNL     1      34.664 -15.805 -21.055  0.00  0.00    +0.148 C 
ATOM     36  C   UNL     1      34.867 -15.402 -22.373  0.00  0.00    +0.039 C 
ATOM     37  C   UNL     1      30.839 -11.073 -21.183  0.00  0.00    +0.047 C 
ATOM     38  H   UNL     1      32.446 -12.053 -23.168  0.00  0.00    +0.152 HD
ENDBRANCH  27  35
ENDBRANCH   5  27
TORSDOF 9
ENDMDL
MODEL 7
REMARK VINA RESULT:     -11.3      2.851     10.359
REMARK  Name = 52920501
REMARK  9 active torsions:
REMARK  status: ('A' for Active; 'I' for Inactive)
REMARK    1  A    between atoms: N_1  and  C_12
REMARK    2  A    between atoms: C_5  and  O_27
REMARK    3  A    between atoms: C_9  and  C_15
REMARK    4  A    between atoms: C_15  and  S_16
REMARK    5  A    between atoms: S_16  and  N_19
REMARK    6  A    between atoms: N_19  and  C_21
REMARK    7  A    between atoms: C_21  and  C_22
REMARK    8  A    between atoms: C_22  and  N_23
REMARK    9  A    between atoms: O_27  and  C_35
REMARK                            x       y       z     vdW  Elec       q    Type
REMARK                         _______ _______ _______ _____ _____    ______ ____
ROOT
ATOM      1  N   UNL     1      34.199 -22.502 -17.695  0.00  0.00    -0.247 N 
ATOM      2  N   UNL     1      34.980 -20.918 -19.239  0.00  0.00    -0.300 NA
ATOM      3  N   UNL     1      32.761 -21.839 -19.426  0.00  0.00    -0.170 NA
ATOM      4  C   UNL     1      33.969 -21.714 -18.843  0.00  0.00    +0.152 C 
ATOM      5  C   UNL     1      34.726 -20.179 -20.339  0.00  0.00    +0.295 C 
ATOM      6  C   UNL     1      33.531 -20.215 -21.027  0.00  0.00    +0.094 C 
ATOM      7  C   UNL     1      32.575 -21.072 -20.520  0.00  0.00    +0.118 C 
ATOM      8  H   UNL     1      33.434 -23.068 -17.442  0.00  0.00    +0.165 HD
ENDROOT
BRANCH   1  12
ATOM      9  C   UNL     1      36.223 -23.128 -14.658  0.00  0.00    +0.004 C 
ATOM     10  C   UNL     1      35.123 -22.995 -15.505  0.00  0.00    +0.013 C 
ATOM     11  C   UNL     1      37.510 -22.903 -15.147  0.00  0.00    -0.002 C 
ATOM     12  C   UNL     1      35.309 -22.637 -16.840  0.00  0.00    +0.057 C 
ATOM     13  C   UNL     1      37.697 -22.545 -16.482  0.00  0.00    +0.001 C 
ATOM     14  C   UNL     1      36.596 -22.412 -17.328  0.00  0.00    +0.015 C 
BRANCH   9  15
ATOM     15  C   UNL     1      36.024 -23.511 -13.231  0.00  0.00    +0.195 C 
BRANCH  15  16
ATOM     16  S   UNL     1      35.607 -25.225 -13.183  0.00  0.00    +0.045 S 
ATOM     17  O   UNL     1      35.482 -25.708 -14.548  0.00  0.00    -0.157 OA
ATOM     18  O   UNL     1      36.516 -25.881 -12.256  0.00  0.00    -0.157 OA
BRANCH  16  19
ATOM     19  N   UNL     1      34.059 -25.165 -12.456  0.00  0.00    -0.185 NA
ATOM     20  H   UNL     1      34.174 -24.725 -11.543  0.00  0.00    +0.148 HD
BRANCH  19  21
ATOM     21  C   UNL     1      32.973 -24.447 -13.147  0.00  0.00    +0.068 C 
BRANCH  21  22
ATOM     22  C   UNL     1      31.829 -25.412 -13.422  0.00  0.00    -0.058 C 
BRANCH  22  23
ATOM     23  N   UNL     1      30.741 -24.723 -14.105  0.00  0.00    +0.385 N 
ATOM     24  C   UNL     1      31.227 -24.066 -15.320  0.00  0.00    -0.101 C 
ATOM     25  C   UNL     1      29.662 -25.658 -14.432  0.00  0.00    -0.101 C 
ATOM     26  H   UNL     1      30.372 -24.010 -13.476  0.00  0.00    -0.080 HD
ENDBRANCH  22  23
ENDBRANCH  21  22
ENDBRANCH  19  21
ENDBRANCH  16  19
ENDBRANCH  15  16
ENDBRANCH   9  15
ENDBRANCH   1  12
BRANCH   5  27
ATOM     27  O   UNL     1      35.735 -19.343 -20.785  0.00  0.00    -0.427 OA
BRANCH  27  35
ATOM     28  N   UNL     1      34.308 -15.005 -23.818  0.00  0.00    -0.316 N 
ATOM     29  C   UNL     1      34.781 -15.971 -21.863  0.00  0.00    +0.017 C 
ATOM     30  C   UNL     1      34.670 -16.198 -23.237  0.00  0.00    +0.048 C 
ATOM     31  C   UNL     1      34.187 -14.032 -22.863  0.00  0.00    +0.026 C 
ATOM     32  C   UNL     1      34.473 -14.600 -21.642  0.00  0.00    +0.012 C 
ATOM     33  C   UNL     1      35.144 -17.043 -21.024  0.00  0.00    +0.039 C 
ATOM     34  C   UNL     1      34.906 -17.451 -23.815  0.00  0.00    +0.018 C 
ATOM     35  C   UNL     1      35.383 -18.301 -21.589  0.00  0.00    +0.148 C 
ATOM     36  C   UNL     1      35.265 -18.500 -22.964  0.00  0.00    +0.039 C 
ATOM     37  C   UNL     1      33.806 -12.653 -23.217  0.00  0.00    +0.047 C 
ATOM     38  H   UNL     1      34.159 -14.869 -24.782  0.00  0.00    +0.152 HD
ENDBRANCH  27  35
ENDBRANCH   5  27
TORSDOF 9
ENDMDL
MODEL 8
REMARK VINA RESULT:     -11.1      2.619     10.764
REMARK  Name = 52920501
REMARK  9 active torsions:
REMARK  status: ('A' for Active; 'I' for Inactive)
REMARK    1  A    between atoms: N_1  and  C_12
REMARK    2  A    between atoms: C_5  and  O_27
REMARK    3  A    between atoms: C_9  and  C_15
REMARK    4  A    between atoms: C_15  and  S_16
REMARK    5  A    between atoms: S_16  and  N_19
REMARK    6  A    between atoms: N_19  and  C_21
REMARK    7  A    between atoms: C_21  and  C_22
REMARK    8  A    between atoms: C_22  and  N_23
REMARK    9  A    between atoms: O_27  and  C_35
REMARK                            x       y       z     vdW  Elec       q    Type
REMARK                         _______ _______ _______ _____ _____    ______ ____
ROOT
ATOM      1  N   UNL     1      34.151 -22.501 -17.711  0.00  0.00    -0.247 N 
ATOM      2  N   UNL     1      34.946 -20.909 -19.240  0.00  0.00    -0.300 NA
ATOM      3  N   UNL     1      32.737 -21.846 -19.464  0.00  0.00    -0.170 NA
ATOM      4  C   UNL     1      33.934 -21.713 -18.862  0.00  0.00    +0.152 C 
ATOM      5  C   UNL     1      34.704 -20.171 -20.344  0.00  0.00    +0.295 C 
ATOM      6  C   UNL     1      33.521 -20.215 -21.052  0.00  0.00    +0.094 C 
ATOM      7  C   UNL     1      32.563 -21.079 -20.561  0.00  0.00    +0.118 C 
ATOM      8  H   UNL     1      33.386 -23.072 -17.471  0.00  0.00    +0.165 HD
ENDROOT
BRANCH   1  12
ATOM      9  C   UNL     1      36.126 -23.063 -14.629  0.00  0.00    +0.004 C 
ATOM     10  C   UNL     1      35.039 -22.936 -15.494  0.00  0.00    +0.013 C 
ATOM     11  C   UNL     1      37.423 -22.880 -15.109  0.00  0.00    -0.002 C 
ATOM     12  C   UNL     1      35.248 -22.628 -16.838  0.00  0.00    +0.057 C 
ATOM     13  C   UNL     1      37.633 -22.572 -16.454  0.00  0.00    +0.001 C 
ATOM     14  C   UNL     1      36.545 -22.446 -17.318  0.00  0.00    +0.015 C 
BRANCH   9  15
ATOM     15  C   UNL     1      35.902 -23.393 -13.192  0.00  0.00    +0.195 C 
BRANCH  15  16
ATOM     16  S   UNL     1      35.066 -24.944 -13.117  0.00  0.00    +0.045 S 
ATOM     17  O   UNL     1      33.729 -24.722 -12.591  0.00  0.00    -0.157 OA
ATOM     18  O   UNL     1      35.247 -25.613 -14.395  0.00  0.00    -0.157 OA
BRANCH  16  19
ATOM     19  N   UNL     1      36.008 -25.767 -11.949  0.00  0.00    -0.185 NA
ATOM     20  H   UNL     1      35.372 -26.359 -11.415  0.00  0.00    +0.148 HD
BRANCH  19  21
ATOM     21  C   UNL     1      37.118 -26.624 -12.402  0.00  0.00    +0.068 C 
BRANCH  21  22
ATOM     22  C   UNL     1      38.385 -25.788 -12.514  0.00  0.00    -0.058 C 
BRANCH  22  23
ATOM     23  N   UNL     1      38.890 -25.816 -13.881  0.00  0.00    +0.385 N 
ATOM     24  C   UNL     1      40.333 -26.063 -13.893  0.00  0.00    -0.101 C 
ATOM     25  C   UNL     1      38.195 -26.837 -14.668  0.00  0.00    -0.101 C 
ATOM     26  H   UNL     1      38.713 -24.904 -14.304  0.00  0.00    -0.080 HD
ENDBRANCH  22  23
ENDBRANCH  21  22
ENDBRANCH  19  21
ENDBRANCH  16  19
ENDBRANCH  15  16
ENDBRANCH   9  15
ENDBRANCH   1  12
BRANCH   5  27
ATOM     27  O   UNL     1      35.715 -19.328 -20.772  0.00  0.00    -0.427 OA
BRANCH  27  35
ATOM     28  N   UNL     1      34.313 -15.009 -23.845  0.00  0.00    -0.316 N 
ATOM     29  C   UNL     1      34.774 -15.961 -21.881  0.00  0.00    +0.017 C 
ATOM     30  C   UNL     1      34.670 -16.199 -23.253  0.00  0.00    +0.048 C 
ATOM     31  C   UNL     1      34.189 -14.029 -22.898  0.00  0.00    +0.026 C 
ATOM     32  C   UNL     1      34.467 -14.588 -21.671  0.00  0.00    +0.012 C 
ATOM     33  C   UNL     1      35.130 -17.028 -21.032  0.00  0.00    +0.039 C 
ATOM     34  C   UNL     1      34.905 -17.456 -23.821  0.00  0.00    +0.018 C 
ATOM     35  C   UNL     1      35.369 -18.290 -21.587  0.00  0.00    +0.148 C 
ATOM     36  C   UNL     1      35.258 -18.499 -22.960  0.00  0.00    +0.039 C 
ATOM     37  C   UNL     1      33.813 -12.651 -23.265  0.00  0.00    +0.047 C 
ATOM     38  H   UNL     1      34.169 -14.880 -24.811  0.00  0.00    +0.152 HD
ENDBRANCH  27  35
ENDBRANCH   5  27
TORSDOF 9
ENDMDL
MODEL 9
REMARK VINA RESULT:     -11.1      2.916     11.361
REMARK  Name = 52920501
REMARK  9 active torsions:
REMARK  status: ('A' for Active; 'I' for Inactive)
REMARK    1  A    between atoms: N_1  and  C_12
REMARK    2  A    between atoms: C_5  and  O_27
REMARK    3  A    between atoms: C_9  and  C_15
REMARK    4  A    between atoms: C_15  and  S_16
REMARK    5  A    between atoms: S_16  and  N_19
REMARK    6  A    between atoms: N_19  and  C_21
REMARK    7  A    between atoms: C_21  and  C_22
REMARK    8  A    between atoms: C_22  and  N_23
REMARK    9  A    between atoms: O_27  and  C_35
REMARK                            x       y       z     vdW  Elec       q    Type
REMARK                         _______ _______ _______ _____ _____    ______ ____
ROOT
ATOM      1  N   UNL     1      34.947 -21.086 -21.028  0.00  0.00    -0.247 N 
ATOM      2  N   UNL     1      34.967 -18.771 -20.646  0.00  0.00    -0.300 NA
ATOM      3  N   UNL     1      35.074 -19.657 -22.885  0.00  0.00    -0.170 NA
ATOM      4  C   UNL     1      34.998 -19.773 -21.545  0.00  0.00    +0.152 C 
ATOM      5  C   UNL     1      35.019 -17.530 -21.175  0.00  0.00    +0.295 C 
ATOM      6  C   UNL     1      35.098 -17.276 -22.529  0.00  0.00    +0.094 C 
ATOM      7  C   UNL     1      35.122 -18.389 -23.344  0.00  0.00    +0.118 C 
ATOM      8  H   UNL     1      34.971 -21.786 -21.720  0.00  0.00    +0.165 HD
ENDROOT
BRANCH   1  12
ATOM      9  C   UNL     1      35.924 -22.139 -17.616  0.00  0.00    +0.004 C 
ATOM     10  C   UNL     1      36.006 -21.640 -18.915  0.00  0.00    +0.013 C 
ATOM     11  C   UNL     1      34.701 -22.589 -17.117  0.00  0.00    -0.002 C 
ATOM     12  C   UNL     1      34.865 -21.590 -19.716  0.00  0.00    +0.057 C 
ATOM     13  C   UNL     1      33.560 -22.539 -17.918  0.00  0.00    +0.001 C 
ATOM     14  C   UNL     1      33.642 -22.040 -19.218  0.00  0.00    +0.015 C 
BRANCH   9  15
ATOM     15  C   UNL     1      37.144 -22.192 -16.759  0.00  0.00    +0.195 C 
BRANCH  15  16
ATOM     16  S   UNL     1      36.798 -23.246 -15.388  0.00  0.00    +0.045 S 
ATOM     17  O   UNL     1      36.399 -22.420 -14.260  0.00  0.00    -0.157 OA
ATOM     18  O   UNL     1      35.929 -24.316 -15.853  0.00  0.00    -0.157 OA
BRANCH  16  19
ATOM     19  N   UNL     1      38.345 -23.911 -15.087  0.00  0.00    -0.185 NA
ATOM     20  H   UNL     1      38.998 -23.130 -15.021  0.00  0.00    +0.148 HD
BRANCH  19  21
ATOM     21  C   UNL     1      38.544 -24.743 -13.887  0.00  0.00    +0.068 C 
BRANCH  21  22
ATOM     22  C   UNL     1      38.833 -26.176 -14.311  0.00  0.00    -0.058 C 
BRANCH  22  23
ATOM     23  N   UNL     1      37.816 -27.075 -13.779  0.00  0.00    +0.385 N 
ATOM     24  C   UNL     1      37.144 -26.469 -12.628  0.00  0.00    -0.101 C 
ATOM     25  C   UNL     1      36.839 -27.419 -14.814  0.00  0.00    -0.101 C 
ATOM     26  H   UNL     1      38.278 -27.931 -13.472  0.00  0.00    -0.080 HD
ENDBRANCH  22  23
ENDBRANCH  21  22
ENDBRANCH  19  21
ENDBRANCH  16  19
ENDBRANCH  15  16
ENDBRANCH   9  15
ENDBRANCH   1  12
BRANCH   5  27
ATOM     27  O   UNL     1      34.989 -16.466 -20.290  0.00  0.00    -0.427 OA
BRANCH  27  35
ATOM     28  N   UNL     1      32.066 -12.086 -21.816  0.00  0.00    -0.316 N 
ATOM     29  C   UNL     1      33.800 -13.471 -22.040  0.00  0.00    +0.017 C 
ATOM     30  C   UNL     1      32.656 -13.210 -21.284  0.00  0.00    +0.048 C 
ATOM     31  C   UNL     1      32.795 -11.628 -22.879  0.00  0.00    +0.026 C 
ATOM     32  C   UNL     1      33.876 -12.464 -23.043  0.00  0.00    +0.012 C 
ATOM     33  C   UNL     1      34.598 -14.582 -21.703  0.00  0.00    +0.039 C 
ATOM     34  C   UNL     1      32.268 -14.008 -20.202  0.00  0.00    +0.018 C 
ATOM     35  C   UNL     1      34.222 -15.389 -20.623  0.00  0.00    +0.148 C 
ATOM     36  C   UNL     1      33.075 -15.105 -19.886  0.00  0.00    +0.039 C 
ATOM     37  C   UNL     1      32.383 -10.430 -23.633  0.00  0.00    +0.047 C 
ATOM     38  H   UNL     1      31.238 -11.671 -21.480  0.00  0.00    +0.152 HD
ENDBRANCH  27  35
ENDBRANCH   5  27
TORSDOF 9
ENDMDL
