MODEL 1
REMARK VINA RESULT:     -12.7      0.000      0.000
REMARK  Name = 60195662
REMARK  7 active torsions:
REMARK  status: ('A' for Active; 'I' for Inactive)
REMARK    1  A    between atoms: N_2  and  C_14
REMARK    2  A    between atoms: N_2  and  C_23
REMARK    3  A    between atoms: C_3  and  C_5
REMARK    4  A    between atoms: C_14  and  C_17
REMARK    5  A    between atoms: C_23  and  C_24
REMARK    6  A    between atoms: C_27  and  C_31
REMARK    7  A    between atoms: C_31  and  O_32
REMARK                            x       y       z     vdW  Elec       q    Type
REMARK                         _______ _______ _______ _____ _____    ______ ____
ROOT
ATOM      1  O   UNL     1      35.571 -24.818 -15.902  0.00  0.00    -0.270 OA
ATOM      2  N   UNL     1      33.870 -23.954 -14.550  0.00  0.00    -0.270 N 
ATOM      3  C   UNL     1      34.596 -24.066 -15.751  0.00  0.00    +0.251 C 
ENDROOT
BRANCH   3   5
ATOM      4  N   UNL     1      32.456 -22.384 -18.305  0.00  0.00    -0.248 NA
ATOM      5  C   UNL     1      34.208 -23.253 -16.890  0.00  0.00    +0.072 C 
ATOM      6  C   UNL     1      35.153 -22.578 -17.648  0.00  0.00    +0.003 C 
ATOM      7  C   UNL     1      34.752 -21.799 -18.742  0.00  0.00    -0.004 C 
ATOM      8  C   UNL     1      32.884 -23.125 -17.257  0.00  0.00    +0.103 C 
ATOM      9  C   UNL     1      33.376 -21.729 -19.039  0.00  0.00    +0.060 C 
ATOM     10  C   UNL     1      35.685 -21.103 -19.530  0.00  0.00    +0.053 C 
ATOM     11  C   UNL     1      32.979 -20.956 -20.126  0.00  0.00    +0.071 C 
ATOM     12  C   UNL     1      35.260 -20.336 -20.612  0.00  0.00    -0.026 C 
ATOM     13  C   UNL     1      33.905 -20.263 -20.910  0.00  0.00    -0.024 C 
ENDBRANCH   3   5
BRANCH   2  14
ATOM     14  C   UNL     1      34.211 -24.728 -13.358  0.00  0.00    +0.099 C 
ATOM     15  C   UNL     1      33.643 -24.051 -12.112  0.00  0.00    +0.026 C 
BRANCH  14  17
ATOM     16  F   UNL     1      39.771 -25.619 -12.992  0.00  0.00    -0.204 F 
ATOM     17  C   UNL     1      35.702 -24.967 -13.261  0.00  0.00    -0.004 C 
ATOM     18  C   UNL     1      36.228 -26.225 -13.554  0.00  0.00    -0.000 C 
ATOM     19  C   UNL     1      36.552 -23.928 -12.876  0.00  0.00    -0.000 C 
ATOM     20  C   UNL     1      37.602 -26.446 -13.464  0.00  0.00    +0.029 C 
ATOM     21  C   UNL     1      37.926 -24.149 -12.785  0.00  0.00    +0.029 C 
ATOM     22  C   UNL     1      38.451 -25.408 -13.079  0.00  0.00    +0.140 C 
ENDBRANCH  14  17
ENDBRANCH   2  14
BRANCH   2  23
ATOM     23  C   UNL     1      32.730 -23.058 -14.416  0.00  0.00    +0.121 C 
BRANCH  23  24
ATOM     24  C   UNL     1      31.426 -23.771 -14.632  0.00  0.00    -0.002 C 
ATOM     25  C   UNL     1      30.430 -23.179 -15.408  0.00  0.00    +0.004 C 
ATOM     26  C   UNL     1      31.212 -25.023 -14.058  0.00  0.00    -0.003 C 
ATOM     27  C   UNL     1      29.218 -23.842 -15.610  0.00  0.00    +0.075 C 
ATOM     28  C   UNL     1      30.001 -25.685 -14.260  0.00  0.00    -0.000 C 
ATOM     29  C   UNL     1      29.004 -25.095 -15.036  0.00  0.00    +0.006 C 
BRANCH  27  31
ATOM     30  O   UNL     1      27.859 -22.034 -16.388  0.00  0.00    -0.245 OA
ATOM     31  C   UNL     1      28.179 -23.227 -16.420  0.00  0.00    +0.338 C 
BRANCH  31  32
ATOM     32  O   UNL     1      27.569 -24.117 -17.249  0.00  0.00    -0.477 OA
ATOM     33  H   UNL     1      26.674 -24.355 -17.104  0.00  0.00    +0.295 HD
ENDBRANCH  31  32
ENDBRANCH  27  31
ENDBRANCH  23  24
ENDBRANCH   2  23
TORSDOF 7
ENDMDL
MODEL 2
REMARK VINA RESULT:     -12.5      2.899      6.449
REMARK  Name = 60195662
REMARK  7 active torsions:
REMARK  status: ('A' for Active; 'I' for Inactive)
REMARK    1  A    between atoms: N_2  and  C_14
REMARK    2  A    between atoms: N_2  and  C_23
REMARK    3  A    between atoms: C_3  and  C_5
REMARK    4  A    between atoms: C_14  and  C_17
REMARK    5  A    between atoms: C_23  and  C_24
REMARK    6  A    between atoms: C_27  and  C_31
REMARK    7  A    between atoms: C_31  and  O_32
REMARK                            x       y       z     vdW  Elec       q    Type
REMARK                         _______ _______ _______ _____ _____    ______ ____
ROOT
ATOM      1  O   UNL     1      33.267 -24.228 -17.306  0.00  0.00    -0.270 OA
ATOM      2  N   UNL     1      34.516 -23.484 -15.475  0.00  0.00    -0.270 N 
ATOM      3  C   UNL     1      34.138 -23.485 -16.832  0.00  0.00    +0.251 C 
ENDROOT
BRANCH   3   5
ATOM      4  N   UNL     1      36.844 -21.510 -18.479  0.00  0.00    -0.248 NA
ATOM      5  C   UNL     1      34.807 -22.581 -17.751  0.00  0.00    +0.072 C 
ATOM      6  C   UNL     1      34.107 -21.929 -18.756  0.00  0.00    +0.003 C 
ATOM      7  C   UNL     1      34.776 -21.062 -19.631  0.00  0.00    -0.004 C 
ATOM      8  C   UNL     1      36.162 -22.339 -17.655  0.00  0.00    +0.103 C 
ATOM      9  C   UNL     1      36.162 -20.879 -19.453  0.00  0.00    +0.060 C 
ATOM     10  C   UNL     1      34.096 -20.387 -20.659  0.00  0.00    +0.053 C 
ATOM     11  C   UNL     1      36.825 -20.016 -20.322  0.00  0.00    +0.071 C 
ATOM     12  C   UNL     1      34.784 -19.530 -21.515  0.00  0.00    -0.026 C 
ATOM     13  C   UNL     1      36.151 -19.345 -21.345  0.00  0.00    -0.024 C 
ENDBRANCH   3   5
BRANCH   2  14
ATOM     14  C   UNL     1      33.899 -24.375 -14.495  0.00  0.00    +0.099 C 
ATOM     15  C   UNL     1      34.429 -25.797 -14.670  0.00  0.00    +0.026 C 
BRANCH  14  17
ATOM     16  F   UNL     1      28.267 -24.123 -14.730  0.00  0.00    -0.204 F 
ATOM     17  C   UNL     1      32.388 -24.307 -14.557  0.00  0.00    -0.004 C 
ATOM     18  C   UNL     1      31.632 -25.473 -14.429  0.00  0.00    -0.000 C 
ATOM     19  C   UNL     1      31.752 -23.080 -14.744  0.00  0.00    -0.000 C 
ATOM     20  C   UNL     1      30.240 -25.411 -14.487  0.00  0.00    +0.029 C 
ATOM     21  C   UNL     1      30.360 -23.018 -14.802  0.00  0.00    +0.029 C 
ATOM     22  C   UNL     1      29.604 -24.183 -14.674  0.00  0.00    +0.140 C 
ENDBRANCH  14  17
ENDBRANCH   2  14
BRANCH   2  23
ATOM     23  C   UNL     1      35.545 -22.594 -14.959  0.00  0.00    +0.121 C 
BRANCH  23  24
ATOM     24  C   UNL     1      36.526 -23.318 -14.081  0.00  0.00    -0.002 C 
ATOM     25  C   UNL     1      37.607 -23.990 -14.651  0.00  0.00    +0.004 C 
ATOM     26  C   UNL     1      36.355 -23.318 -12.697  0.00  0.00    -0.003 C 
ATOM     27  C   UNL     1      38.519 -24.662 -13.835  0.00  0.00    +0.075 C 
ATOM     28  C   UNL     1      37.267 -23.989 -11.882  0.00  0.00    -0.000 C 
ATOM     29  C   UNL     1      38.348 -24.661 -12.451  0.00  0.00    +0.006 C 
BRANCH  27  31
ATOM     30  O   UNL     1      40.836 -25.070 -14.264  0.00  0.00    -0.245 OA
ATOM     31  C   UNL     1      39.647 -25.361 -14.428  0.00  0.00    +0.338 C 
BRANCH  31  32
ATOM     32  O   UNL     1      39.260 -26.406 -15.210  0.00  0.00    -0.477 OA
ATOM     33  H   UNL     1      39.572 -27.270 -15.027  0.00  0.00    +0.295 HD
ENDBRANCH  31  32
ENDBRANCH  27  31
ENDBRANCH  23  24
ENDBRANCH   2  23
TORSDOF 7
ENDMDL
MODEL 3
REMARK VINA RESULT:     -12.3      3.001      6.289
REMARK  Name = 60195662
REMARK  7 active torsions:
REMARK  status: ('A' for Active; 'I' for Inactive)
REMARK    1  A    between atoms: N_2  and  C_14
REMARK    2  A    between atoms: N_2  and  C_23
REMARK    3  A    between atoms: C_3  and  C_5
REMARK    4  A    between atoms: C_14  and  C_17
REMARK    5  A    between atoms: C_23  and  C_24
REMARK    6  A    between atoms: C_27  and  C_31
REMARK    7  A    between atoms: C_31  and  O_32
REMARK                            x       y       z     vdW  Elec       q    Type
REMARK                         _______ _______ _______ _____ _____    ______ ____
ROOT
ATOM      1  O   UNL     1      33.004 -23.951 -17.644  0.00  0.00    -0.270 OA
ATOM      2  N   UNL     1      34.301 -23.337 -15.798  0.00  0.00    -0.270 N 
ATOM      3  C   UNL     1      33.918 -23.274 -17.152  0.00  0.00    +0.251 C 
ENDROOT
BRANCH   3   5
ATOM      4  N   UNL     1      36.709 -21.334 -18.695  0.00  0.00    -0.248 NA
ATOM      5  C   UNL     1      34.633 -22.380 -18.046  0.00  0.00    +0.072 C 
ATOM      6  C   UNL     1      33.981 -21.724 -19.079  0.00  0.00    +0.003 C 
ATOM      7  C   UNL     1      34.693 -20.867 -19.929  0.00  0.00    -0.004 C 
ATOM      8  C   UNL     1      35.985 -22.153 -17.898  0.00  0.00    +0.103 C 
ATOM      9  C   UNL     1      36.074 -20.698 -19.698  0.00  0.00    +0.060 C 
ATOM     10  C   UNL     1      34.062 -20.187 -20.986  0.00  0.00    +0.053 C 
ATOM     11  C   UNL     1      36.780 -19.846 -20.542  0.00  0.00    +0.071 C 
ATOM     12  C   UNL     1      34.793 -19.340 -21.815  0.00  0.00    -0.026 C 
ATOM     13  C   UNL     1      36.154 -19.170 -21.593  0.00  0.00    -0.024 C 
ENDBRANCH   3   5
BRANCH   2  14
ATOM     14  C   UNL     1      33.640 -24.223 -14.842  0.00  0.00    +0.099 C 
ATOM     15  C   UNL     1      34.100 -25.664 -15.056  0.00  0.00    +0.026 C 
BRANCH  14  17
ATOM     16  F   UNL     1      28.027 -23.687 -15.067  0.00  0.00    -0.204 F 
ATOM     17  C   UNL     1      32.135 -24.079 -14.903  0.00  0.00    -0.004 C 
ATOM     18  C   UNL     1      31.541 -22.842 -14.650  0.00  0.00    -0.000 C 
ATOM     19  C   UNL     1      31.340 -25.184 -15.211  0.00  0.00    -0.000 C 
ATOM     20  C   UNL     1      30.154 -22.709 -14.706  0.00  0.00    +0.029 C 
ATOM     21  C   UNL     1      29.952 -25.051 -15.267  0.00  0.00    +0.029 C 
ATOM     22  C   UNL     1      29.359 -23.814 -15.014  0.00  0.00    +0.140 C 
ENDBRANCH  14  17
ENDBRANCH   2  14
BRANCH   2  23
ATOM     23  C   UNL     1      35.382 -22.524 -15.260  0.00  0.00    +0.121 C 
BRANCH  23  24
ATOM     24  C   UNL     1      36.305 -23.323 -14.385  0.00  0.00    -0.002 C 
ATOM     25  C   UNL     1      36.017 -23.481 -13.030  0.00  0.00    +0.004 C 
ATOM     26  C   UNL     1      37.449 -23.908 -14.928  0.00  0.00    -0.003 C 
ATOM     27  C   UNL     1      36.873 -24.224 -12.216  0.00  0.00    +0.075 C 
ATOM     28  C   UNL     1      38.305 -24.651 -14.115  0.00  0.00    -0.000 C 
ATOM     29  C   UNL     1      38.017 -24.809 -12.759  0.00  0.00    +0.006 C 
BRANCH  27  31
ATOM     30  O   UNL     1      35.980 -25.352 -10.305  0.00  0.00    -0.245 OA
ATOM     31  C   UNL     1      36.573 -24.389 -10.804  0.00  0.00    +0.338 C 
BRANCH  31  32
ATOM     32  O   UNL     1      37.021 -23.348 -10.050  0.00  0.00    -0.477 OA
ATOM     33  H   UNL     1      37.915 -23.325  -9.767  0.00  0.00    +0.295 HD
ENDBRANCH  31  32
ENDBRANCH  27  31
ENDBRANCH  23  24
ENDBRANCH   2  23
TORSDOF 7
ENDMDL
MODEL 4
REMARK VINA RESULT:     -11.0      2.360      5.022
REMARK  Name = 60195662
REMARK  7 active torsions:
REMARK  status: ('A' for Active; 'I' for Inactive)
REMARK    1  A    between atoms: N_2  and  C_14
REMARK    2  A    between atoms: N_2  and  C_23
REMARK    3  A    between atoms: C_3  and  C_5
REMARK    4  A    between atoms: C_14  and  C_17
REMARK    5  A    between atoms: C_23  and  C_24
REMARK    6  A    between atoms: C_27  and  C_31
REMARK    7  A    between atoms: C_31  and  O_32
REMARK                            x       y       z     vdW  Elec       q    Type
REMARK                         _______ _______ _______ _____ _____    ______ ____
ROOT
ATOM      1  O   UNL     1      33.867 -23.747 -11.226  0.00  0.00    -0.270 OA
ATOM      2  N   UNL     1      35.246 -24.651 -12.884  0.00  0.00    -0.270 N 
ATOM      3  C   UNL     1      34.006 -24.246 -12.352  0.00  0.00    +0.251 C 
ENDROOT
BRANCH   3   5
ATOM      4  N   UNL     1      31.067 -25.896 -13.955  0.00  0.00    -0.248 NA
ATOM      5  C   UNL     1      32.805 -24.429 -13.147  0.00  0.00    +0.072 C 
ATOM      6  C   UNL     1      32.237 -23.374 -13.846  0.00  0.00    +0.003 C 
ATOM      7  C   UNL     1      31.077 -23.575 -14.605  0.00  0.00    -0.004 C 
ATOM      8  C   UNL     1      32.187 -25.659 -13.234  0.00  0.00    +0.103 C 
ATOM      9  C   UNL     1      30.518 -24.870 -14.632  0.00  0.00    +0.060 C 
ATOM     10  C   UNL     1      30.477 -22.527 -15.324  0.00  0.00    +0.053 C 
ATOM     11  C   UNL     1      29.366 -25.069 -15.388  0.00  0.00    +0.071 C 
ATOM     12  C   UNL     1      29.324 -22.755 -16.072  0.00  0.00    -0.026 C 
ATOM     13  C   UNL     1      28.768 -24.029 -16.103  0.00  0.00    -0.024 C 
ENDBRANCH   3   5
BRANCH   2  14
ATOM     14  C   UNL     1      36.496 -24.513 -12.138  0.00  0.00    +0.099 C 
ATOM     15  C   UNL     1      36.776 -23.039 -11.850  0.00  0.00    +0.026 C 
BRANCH  14  17
ATOM     16  F   UNL     1      40.778 -27.055 -14.789  0.00  0.00    -0.204 F 
ATOM     17  C   UNL     1      37.644 -25.195 -12.850  0.00  0.00    -0.004 C 
ATOM     18  C   UNL     1      37.481 -26.481 -13.363  0.00  0.00    -0.000 C 
ATOM     19  C   UNL     1      38.866 -24.536 -12.992  0.00  0.00    -0.000 C 
ATOM     20  C   UNL     1      38.540 -27.110 -14.019  0.00  0.00    +0.029 C 
ATOM     21  C   UNL     1      39.925 -25.165 -13.647  0.00  0.00    +0.029 C 
ATOM     22  C   UNL     1      39.762 -26.452 -14.160  0.00  0.00    +0.140 C 
ENDBRANCH  14  17
ENDBRANCH   2  14
BRANCH   2  23
ATOM     23  C   UNL     1      35.366 -25.234 -14.212  0.00  0.00    +0.121 C 
BRANCH  23  24
ATOM     24  C   UNL     1      35.445 -24.183 -15.282  0.00  0.00    -0.002 C 
ATOM     25  C   UNL     1      34.451 -24.107 -16.258  0.00  0.00    +0.004 C 
ATOM     26  C   UNL     1      36.510 -23.283 -15.300  0.00  0.00    -0.003 C 
ATOM     27  C   UNL     1      34.523 -23.130 -17.252  0.00  0.00    +0.075 C 
ATOM     28  C   UNL     1      36.582 -22.307 -16.293  0.00  0.00    -0.000 C 
ATOM     29  C   UNL     1      35.588 -22.230 -17.269  0.00  0.00    +0.006 C 
BRANCH  27  31
ATOM     30  O   UNL     1      32.504 -22.302 -18.232  0.00  0.00    -0.245 OA
ATOM     31  C   UNL     1      33.487 -23.050 -18.269  0.00  0.00    +0.338 C 
BRANCH  31  32
ATOM     32  O   UNL     1      33.706 -23.905 -19.305  0.00  0.00    -0.477 OA
ATOM     33  H   UNL     1      34.551 -23.945 -19.709  0.00  0.00    +0.295 HD
ENDBRANCH  31  32
ENDBRANCH  27  31
ENDBRANCH  23  24
ENDBRANCH   2  23
TORSDOF 7
ENDMDL
MODEL 5
REMARK VINA RESULT:     -10.9     15.553     19.306
REMARK  Name = 60195662
REMARK  7 active torsions:
REMARK  status: ('A' for Active; 'I' for Inactive)
REMARK    1  A    between atoms: N_2  and  C_14
REMARK    2  A    between atoms: N_2  and  C_23
REMARK    3  A    between atoms: C_3  and  C_5
REMARK    4  A    between atoms: C_14  and  C_17
REMARK    5  A    between atoms: C_23  and  C_24
REMARK    6  A    between atoms: C_27  and  C_31
REMARK    7  A    between atoms: C_31  and  O_32
REMARK                            x       y       z     vdW  Elec       q    Type
REMARK                         _______ _______ _______ _____ _____    ______ ____
ROOT
ATOM      1  O   UNL     1      34.544  -8.062 -22.224  0.00  0.00    -0.270 OA
ATOM      2  N   UNL     1      32.386  -7.164 -22.251  0.00  0.00    -0.270 N 
ATOM      3  C   UNL     1      33.643  -7.451 -22.817  0.00  0.00    +0.251 C 
ENDROOT
BRANCH   3   5
ATOM      4  N   UNL     1      33.385  -7.051 -26.519  0.00  0.00    -0.248 NA
ATOM      5  C   UNL     1      33.928  -7.001 -24.167  0.00  0.00    +0.072 C 
ATOM      6  C   UNL     1      34.970  -6.123 -24.429  0.00  0.00    +0.003 C 
ATOM      7  C   UNL     1      35.225  -5.703 -25.741  0.00  0.00    -0.004 C 
ATOM      8  C   UNL     1      33.173  -7.432 -25.238  0.00  0.00    +0.103 C 
ATOM      9  C   UNL     1      34.397  -6.199 -26.769  0.00  0.00    +0.060 C 
ATOM     10  C   UNL     1      36.272  -4.815 -26.039  0.00  0.00    +0.053 C 
ATOM     11  C   UNL     1      34.651  -5.782 -28.073  0.00  0.00    +0.071 C 
ATOM     12  C   UNL     1      36.504  -4.414 -27.353  0.00  0.00    -0.026 C 
ATOM     13  C   UNL     1      35.692  -4.898 -28.371  0.00  0.00    -0.024 C 
ENDBRANCH   3   5
BRANCH   2  14
ATOM     14  C   UNL     1      32.032  -7.570 -20.892  0.00  0.00    +0.099 C 
ATOM     15  C   UNL     1      33.057  -7.029 -19.898  0.00  0.00    +0.026 C 
BRANCH  14  17
ATOM     16  F   UNL     1      31.394 -13.164 -20.511  0.00  0.00    -0.204 F 
ATOM     17  C   UNL     1      31.860  -9.070 -20.790  0.00  0.00    -0.004 C 
ATOM     18  C   UNL     1      32.018  -9.708 -19.559  0.00  0.00    -0.000 C 
ATOM     19  C   UNL     1      31.546  -9.816 -21.927  0.00  0.00    -0.000 C 
ATOM     20  C   UNL     1      31.860 -11.091 -19.465  0.00  0.00    +0.029 C 
ATOM     21  C   UNL     1      31.388 -11.199 -21.832  0.00  0.00    +0.029 C 
ATOM     22  C   UNL     1      31.545 -11.836 -20.602  0.00  0.00    +0.140 C 
ENDBRANCH  14  17
ENDBRANCH   2  14
BRANCH   2  23
ATOM     23  C   UNL     1      31.354  -6.442 -22.982  0.00  0.00    +0.121 C 
BRANCH  23  24
ATOM     24  C   UNL     1      31.569  -4.956 -22.938  0.00  0.00    -0.002 C 
ATOM     25  C   UNL     1      31.775  -4.247 -24.121  0.00  0.00    +0.004 C 
ATOM     26  C   UNL     1      31.562  -4.286 -21.715  0.00  0.00    -0.003 C 
ATOM     27  C   UNL     1      31.973  -2.866 -24.080  0.00  0.00    +0.075 C 
ATOM     28  C   UNL     1      31.760  -2.906 -21.674  0.00  0.00    -0.000 C 
ATOM     29  C   UNL     1      31.966  -2.196 -22.857  0.00  0.00    +0.006 C 
BRANCH  27  31
ATOM     30  O   UNL     1      31.303  -1.786 -26.107  0.00  0.00    -0.245 OA
ATOM     31  C   UNL     1      32.187  -2.126 -25.313  0.00  0.00    +0.338 C 
BRANCH  31  32
ATOM     32  O   UNL     1      33.499  -1.829 -25.523  0.00  0.00    -0.477 OA
ATOM     33  H   UNL     1      33.959  -1.286 -24.913  0.00  0.00    +0.295 HD
ENDBRANCH  31  32
ENDBRANCH  27  31
ENDBRANCH  23  24
ENDBRANCH   2  23
TORSDOF 7
ENDMDL
MODEL 6
REMARK VINA RESULT:     -10.6      3.425      7.349
REMARK  Name = 60195662
REMARK  7 active torsions:
REMARK  status: ('A' for Active; 'I' for Inactive)
REMARK    1  A    between atoms: N_2  and  C_14
REMARK    2  A    between atoms: N_2  and  C_23
REMARK    3  A    between atoms: C_3  and  C_5
REMARK    4  A    between atoms: C_14  and  C_17
REMARK    5  A    between atoms: C_23  and  C_24
REMARK    6  A    between atoms: C_27  and  C_31
REMARK    7  A    between atoms: C_31  and  O_32
REMARK                            x       y       z     vdW  Elec       q    Type
REMARK                         _______ _______ _______ _____ _____    ______ ____
ROOT
ATOM      1  O   UNL     1      34.084 -23.680 -12.035  0.00  0.00    -0.270 OA
ATOM      2  N   UNL     1      33.105 -23.949 -14.141  0.00  0.00    -0.270 N 
ATOM      3  C   UNL     1      34.127 -24.131 -13.188  0.00  0.00    +0.251 C 
ENDROOT
BRANCH   3   5
ATOM      4  N   UNL     1      36.294 -26.783 -14.673  0.00  0.00    -0.248 NA
ATOM      5  C   UNL     1      35.316 -24.876 -13.563  0.00  0.00    +0.072 C 
ATOM      6  C   UNL     1      36.582 -24.439 -13.202  0.00  0.00    +0.003 C 
ATOM      7  C   UNL     1      37.714 -25.175 -13.576  0.00  0.00    -0.004 C 
ATOM      8  C   UNL     1      35.227 -26.044 -14.292  0.00  0.00    +0.103 C 
ATOM      9  C   UNL     1      37.521 -26.357 -14.321  0.00  0.00    +0.060 C 
ATOM     10  C   UNL     1      39.010 -24.760 -13.226  0.00  0.00    +0.053 C 
ATOM     11  C   UNL     1      38.647 -27.088 -14.692  0.00  0.00    +0.071 C 
ATOM     12  C   UNL     1      40.119 -25.510 -13.611  0.00  0.00    -0.026 C 
ATOM     13  C   UNL     1      39.936 -26.676 -14.345  0.00  0.00    -0.024 C 
ENDBRANCH   3   5
BRANCH   2  14
ATOM     14  C   UNL     1      31.887 -23.199 -13.842  0.00  0.00    +0.099 C 
ATOM     15  C   UNL     1      31.591 -23.253 -12.344  0.00  0.00    +0.026 C 
BRANCH  14  17
ATOM     16  F   UNL     1      27.541 -24.978 -16.971  0.00  0.00    -0.204 F 
ATOM     17  C   UNL     1      30.722 -23.676 -14.681  0.00  0.00    -0.004 C 
ATOM     18  C   UNL     1      30.233 -22.877 -15.715  0.00  0.00    -0.000 C 
ATOM     19  C   UNL     1      30.135 -24.916 -14.421  0.00  0.00    -0.000 C 
ATOM     20  C   UNL     1      29.159 -23.317 -16.489  0.00  0.00    +0.029 C 
ATOM     21  C   UNL     1      29.061 -25.355 -15.195  0.00  0.00    +0.029 C 
ATOM     22  C   UNL     1      28.573 -24.556 -16.228  0.00  0.00    +0.140 C 
ENDBRANCH  14  17
ENDBRANCH   2  14
BRANCH   2  23
ATOM     23  C   UNL     1      33.195 -24.496 -15.487  0.00  0.00    +0.121 C 
BRANCH  23  24
ATOM     24  C   UNL     1      33.970 -23.598 -16.408  0.00  0.00    -0.002 C 
ATOM     25  C   UNL     1      35.211 -23.099 -16.012  0.00  0.00    +0.004 C 
ATOM     26  C   UNL     1      33.451 -23.265 -17.658  0.00  0.00    -0.003 C 
ATOM     27  C   UNL     1      35.933 -22.266 -16.868  0.00  0.00    +0.075 C 
ATOM     28  C   UNL     1      34.173 -22.432 -18.514  0.00  0.00    -0.000 C 
ATOM     29  C   UNL     1      35.413 -21.933 -18.118  0.00  0.00    +0.006 C 
BRANCH  27  31
ATOM     30  O   UNL     1      38.078 -22.371 -15.814  0.00  0.00    -0.245 OA
ATOM     31  C   UNL     1      37.227 -21.746 -16.456  0.00  0.00    +0.338 C 
BRANCH  31  32
ATOM     32  O   UNL     1      37.424 -20.460 -16.857  0.00  0.00    -0.477 OA
ATOM     33  H   UNL     1      37.924 -20.281 -17.629  0.00  0.00    +0.295 HD
ENDBRANCH  31  32
ENDBRANCH  27  31
ENDBRANCH  23  24
ENDBRANCH   2  23
TORSDOF 7
ENDMDL
MODEL 7
REMARK VINA RESULT:     -10.6      2.449      6.279
REMARK  Name = 60195662
REMARK  7 active torsions:
REMARK  status: ('A' for Active; 'I' for Inactive)
REMARK    1  A    between atoms: N_2  and  C_14
REMARK    2  A    between atoms: N_2  and  C_23
REMARK    3  A    between atoms: C_3  and  C_5
REMARK    4  A    between atoms: C_14  and  C_17
REMARK    5  A    between atoms: C_23  and  C_24
REMARK    6  A    between atoms: C_27  and  C_31
REMARK    7  A    between atoms: C_31  and  O_32
REMARK                            x       y       z     vdW  Elec       q    Type
REMARK                         _______ _______ _______ _____ _____    ______ ____
ROOT
ATOM      1  O   UNL     1      35.809 -24.250 -16.885  0.00  0.00    -0.270 OA
ATOM      2  N   UNL     1      33.736 -23.339 -16.299  0.00  0.00    -0.270 N 
ATOM      3  C   UNL     1      35.055 -23.756 -16.033  0.00  0.00    +0.251 C 
ENDROOT
BRANCH   3   5
ATOM      4  N   UNL     1      37.168 -22.607 -13.179  0.00  0.00    -0.248 NA
ATOM      5  C   UNL     1      35.579 -23.623 -14.686  0.00  0.00    +0.072 C 
ATOM      6  C   UNL     1      35.039 -24.341 -13.629  0.00  0.00    +0.003 C 
ATOM      7  C   UNL     1      35.562 -24.194 -12.337  0.00  0.00    -0.004 C 
ATOM      8  C   UNL     1      36.634 -22.778 -14.410  0.00  0.00    +0.103 C 
ATOM      9  C   UNL     1      36.642 -23.305 -12.155  0.00  0.00    +0.060 C 
ATOM     10  C   UNL     1      35.037 -24.906 -11.245  0.00  0.00    +0.053 C 
ATOM     11  C   UNL     1      37.161 -23.161 -10.871  0.00  0.00    +0.071 C 
ATOM     12  C   UNL     1      35.576 -24.742  -9.972  0.00  0.00    -0.026 C 
ATOM     13  C   UNL     1      36.640 -23.868  -9.785  0.00  0.00    -0.024 C 
ENDBRANCH   3   5
BRANCH   2  14
ATOM     14  C   UNL     1      33.135 -23.456 -17.626  0.00  0.00    +0.099 C 
ATOM     15  C   UNL     1      33.368 -24.858 -18.186  0.00  0.00    +0.026 C 
BRANCH  14  17
ATOM     16  F   UNL     1      34.980 -19.404 -21.092  0.00  0.00    -0.204 F 
ATOM     17  C   UNL     1      33.630 -22.370 -18.556  0.00  0.00    -0.004 C 
ATOM     18  C   UNL     1      34.995 -22.236 -18.809  0.00  0.00    -0.000 C 
ATOM     19  C   UNL     1      32.720 -21.501 -19.160  0.00  0.00    -0.000 C 
ATOM     20  C   UNL     1      35.452 -21.235 -19.666  0.00  0.00    +0.029 C 
ATOM     21  C   UNL     1      33.177 -20.499 -20.017  0.00  0.00    +0.029 C 
ATOM     22  C   UNL     1      34.542 -20.366 -20.270  0.00  0.00    +0.140 C 
ENDBRANCH  14  17
ENDBRANCH   2  14
BRANCH   2  23
ATOM     23  C   UNL     1      32.884 -22.764 -15.269  0.00  0.00    +0.121 C 
BRANCH  23  24
ATOM     24  C   UNL     1      31.573 -23.488 -15.155  0.00  0.00    -0.002 C 
ATOM     25  C   UNL     1      30.469 -23.048 -15.887  0.00  0.00    +0.004 C 
ATOM     26  C   UNL     1      31.459 -24.599 -14.320  0.00  0.00    -0.003 C 
ATOM     27  C   UNL     1      29.251 -23.721 -15.783  0.00  0.00    +0.075 C 
ATOM     28  C   UNL     1      30.241 -25.271 -14.216  0.00  0.00    -0.000 C 
ATOM     29  C   UNL     1      29.137 -24.832 -14.948  0.00  0.00    +0.006 C 
BRANCH  27  31
ATOM     30  O   UNL     1      27.674 -22.105 -16.573  0.00  0.00    -0.245 OA
ATOM     31  C   UNL     1      28.101 -23.265 -16.546  0.00  0.00    +0.338 C 
BRANCH  31  32
ATOM     32  O   UNL     1      27.515 -24.267 -17.256  0.00  0.00    -0.477 OA
ATOM     33  H   UNL     1      27.576 -25.153 -16.954  0.00  0.00    +0.295 HD
ENDBRANCH  31  32
ENDBRANCH  27  31
ENDBRANCH  23  24
ENDBRANCH   2  23
TORSDOF 7
ENDMDL
MODEL 8
REMARK VINA RESULT:     -10.5      2.553      5.615
REMARK  Name = 60195662
REMARK  7 active torsions:
REMARK  status: ('A' for Active; 'I' for Inactive)
REMARK    1  A    between atoms: N_2  and  C_14
REMARK    2  A    between atoms: N_2  and  C_23
REMARK    3  A    between atoms: C_3  and  C_5
REMARK    4  A    between atoms: C_14  and  C_17
REMARK    5  A    between atoms: C_23  and  C_24
REMARK    6  A    between atoms: C_27  and  C_31
REMARK    7  A    between atoms: C_31  and  O_32
REMARK                            x       y       z     vdW  Elec       q    Type
REMARK                         _______ _______ _______ _____ _____    ______ ____
ROOT
ATOM      1  O   UNL     1      34.857 -22.781 -12.862  0.00  0.00    -0.270 OA
ATOM      2  N   UNL     1      35.522 -23.501 -14.985  0.00  0.00    -0.270 N 
ATOM      3  C   UNL     1      34.603 -23.362 -13.927  0.00  0.00    +0.251 C 
ENDROOT
BRANCH   3   5
ATOM      4  N   UNL     1      31.809 -25.832 -13.762  0.00  0.00    -0.248 NA
ATOM      5  C   UNL     1      33.278 -23.941 -14.064  0.00  0.00    +0.072 C 
ATOM      6  C   UNL     1      32.227 -23.213 -14.603  0.00  0.00    +0.003 C 
ATOM      7  C   UNL     1      30.957 -23.793 -14.724  0.00  0.00    -0.004 C 
ATOM      8  C   UNL     1      33.019 -25.235 -13.662  0.00  0.00    +0.103 C 
ATOM      9  C   UNL     1      30.791 -25.123 -14.285  0.00  0.00    +0.060 C 
ATOM     10  C   UNL     1      29.872 -23.083 -15.265  0.00  0.00    +0.053 C 
ATOM     11  C   UNL     1      29.529 -25.699 -14.407  0.00  0.00    +0.071 C 
ATOM     12  C   UNL     1      28.621 -23.684 -15.375  0.00  0.00    -0.026 C 
ATOM     13  C   UNL     1      28.449 -24.994 -14.944  0.00  0.00    -0.024 C 
ENDBRANCH   3   5
BRANCH   2  14
ATOM     14  C   UNL     1      36.878 -22.959 -14.914  0.00  0.00    +0.099 C 
ATOM     15  C   UNL     1      37.254 -22.308 -16.243  0.00  0.00    +0.026 C 
BRANCH  14  17
ATOM     16  F   UNL     1      40.592 -26.889 -13.303  0.00  0.00    -0.204 F 
ATOM     17  C   UNL     1      37.874 -24.014 -14.482  0.00  0.00    -0.004 C 
ATOM     18  C   UNL     1      37.717 -24.661 -13.256  0.00  0.00    -0.000 C 
ATOM     19  C   UNL     1      38.950 -24.338 -15.310  0.00  0.00    -0.000 C 
ATOM     20  C   UNL     1      38.635 -25.632 -12.858  0.00  0.00    +0.029 C 
ATOM     21  C   UNL     1      39.867 -25.310 -14.911  0.00  0.00    +0.029 C 
ATOM     22  C   UNL     1      39.711 -25.957 -13.685  0.00  0.00    +0.140 C 
ENDBRANCH  14  17
ENDBRANCH   2  14
BRANCH   2  23
ATOM     23  C   UNL     1      35.183 -24.193 -16.220  0.00  0.00    +0.121 C 
BRANCH  23  24
ATOM     24  C   UNL     1      34.559 -23.270 -17.228  0.00  0.00    -0.002 C 
ATOM     25  C   UNL     1      35.370 -22.496 -18.058  0.00  0.00    +0.004 C 
ATOM     26  C   UNL     1      33.171 -23.190 -17.336  0.00  0.00    -0.003 C 
ATOM     27  C   UNL     1      34.791 -21.640 -18.996  0.00  0.00    +0.075 C 
ATOM     28  C   UNL     1      32.593 -22.335 -18.273  0.00  0.00    -0.000 C 
ATOM     29  C   UNL     1      33.403 -21.559 -19.103  0.00  0.00    +0.006 C 
BRANCH  27  31
ATOM     30  O   UNL     1      36.792 -20.482 -19.609  0.00  0.00    -0.245 OA
ATOM     31  C   UNL     1      35.635 -20.833 -19.862  0.00  0.00    +0.338 C 
BRANCH  31  32
ATOM     32  O   UNL     1      35.012 -20.485 -21.021  0.00  0.00    -0.477 OA
ATOM     33  H   UNL     1      35.136 -19.629 -21.382  0.00  0.00    +0.295 HD
ENDBRANCH  31  32
ENDBRANCH  27  31
ENDBRANCH  23  24
ENDBRANCH   2  23
TORSDOF 7
ENDMDL
MODEL 9
REMARK VINA RESULT:     -10.4      3.120      7.365
REMARK  Name = 60195662
REMARK  7 active torsions:
REMARK  status: ('A' for Active; 'I' for Inactive)
REMARK    1  A    between atoms: N_2  and  C_14
REMARK    2  A    between atoms: N_2  and  C_23
REMARK    3  A    between atoms: C_3  and  C_5
REMARK    4  A    between atoms: C_14  and  C_17
REMARK    5  A    between atoms: C_23  and  C_24
REMARK    6  A    between atoms: C_27  and  C_31
REMARK    7  A    between atoms: C_31  and  O_32
REMARK                            x       y       z     vdW  Elec       q    Type
REMARK                         _______ _______ _______ _____ _____    ______ ____
ROOT
ATOM      1  O   UNL     1      34.293 -23.687 -18.511  0.00  0.00    -0.270 OA
ATOM      2  N   UNL     1      35.444 -22.551 -16.823  0.00  0.00    -0.270 N 
ATOM      3  C   UNL     1      34.400 -23.353 -17.322  0.00  0.00    +0.251 C 
ENDROOT
BRANCH   3   5
ATOM      4  N   UNL     1      32.772 -25.027 -14.409  0.00  0.00    -0.248 NA
ATOM      5  C   UNL     1      33.368 -23.815 -16.410  0.00  0.00    +0.072 C 
ATOM      6  C   UNL     1      32.031 -23.520 -16.628  0.00  0.00    +0.003 C 
ATOM      7  C   UNL     1      31.054 -23.977 -15.733  0.00  0.00    -0.004 C 
ATOM      8  C   UNL     1      33.684 -24.566 -15.297  0.00  0.00    +0.103 C 
ATOM      9  C   UNL     1      31.474 -24.738 -14.623  0.00  0.00    +0.060 C 
ATOM     10  C   UNL     1      29.690 -23.694 -15.925  0.00  0.00    +0.053 C 
ATOM     11  C   UNL     1      30.503 -25.193 -13.735  0.00  0.00    +0.071 C 
ATOM     12  C   UNL     1      28.740 -24.162 -15.021  0.00  0.00    -0.026 C 
ATOM     13  C   UNL     1      29.148 -24.912 -13.924  0.00  0.00    -0.024 C 
ENDBRANCH   3   5
BRANCH   2  14
ATOM     14  C   UNL     1      36.509 -22.035 -17.681  0.00  0.00    +0.099 C 
ATOM     15  C   UNL     1      37.475 -21.180 -16.865  0.00  0.00    +0.026 C 
BRANCH  14  17
ATOM     16  F   UNL     1      34.416 -19.279 -22.138  0.00  0.00    -0.204 F 
ATOM     17  C   UNL     1      35.948 -21.297 -18.877  0.00  0.00    -0.004 C 
ATOM     18  C   UNL     1      36.793 -20.540 -19.689  0.00  0.00    -0.000 C 
ATOM     19  C   UNL     1      34.585 -21.372 -19.167  0.00  0.00    -0.000 C 
ATOM     20  C   UNL     1      36.276 -19.858 -20.791  0.00  0.00    +0.029 C 
ATOM     21  C   UNL     1      34.068 -20.690 -20.268  0.00  0.00    +0.029 C 
ATOM     22  C   UNL     1      34.913 -19.933 -21.080  0.00  0.00    +0.140 C 
ENDBRANCH  14  17
ENDBRANCH   2  14
BRANCH   2  23
ATOM     23  C   UNL     1      35.533 -22.181 -15.418  0.00  0.00    +0.121 C 
BRANCH  23  24
ATOM     24  C   UNL     1      36.272 -23.210 -14.611  0.00  0.00    -0.002 C 
ATOM     25  C   UNL     1      35.886 -23.472 -13.296  0.00  0.00    +0.004 C 
ATOM     26  C   UNL     1      37.341 -23.903 -15.176  0.00  0.00    -0.003 C 
ATOM     27  C   UNL     1      36.571 -24.429 -12.547  0.00  0.00    +0.075 C 
ATOM     28  C   UNL     1      38.026 -24.860 -14.427  0.00  0.00    -0.000 C 
ATOM     29  C   UNL     1      37.641 -25.123 -13.112  0.00  0.00    +0.006 C 
BRANCH  27  31
ATOM     30  O   UNL     1      36.789 -24.358 -10.165  0.00  0.00    -0.245 OA
ATOM     31  C   UNL     1      36.169 -24.704 -11.177  0.00  0.00    +0.338 C 
BRANCH  31  32
ATOM     32  O   UNL     1      35.004 -25.404 -11.106  0.00  0.00    -0.477 OA
ATOM     33  H   UNL     1      34.982 -26.235 -10.671  0.00  0.00    +0.295 HD
ENDBRANCH  31  32
ENDBRANCH  27  31
ENDBRANCH  23  24
ENDBRANCH   2  23
TORSDOF 7
ENDMDL
