MODEL 1
REMARK VINA RESULT:     -12.5      0.000      0.000
REMARK  Name = 446805
REMARK  6 active torsions:
REMARK  status: ('A' for Active; 'I' for Inactive)
REMARK    1  A    between atoms: C_4  and  C_22
REMARK    2  A    between atoms: C_7  and  N_11
REMARK    3  A    between atoms: N_11  and  S_13
REMARK    4  A    between atoms: S_13  and  C_16
REMARK    5  A    between atoms: C_22  and  C_23
REMARK    6  A    between atoms: C_28  and  C_31
REMARK                            x       y       z     vdW  Elec       q    Type
REMARK                         _______ _______ _______ _____ _____    ______ ____
ROOT
ATOM      1  N   UNL     1      34.852 -16.870 -22.967  0.00  0.00    -0.262 N 
ATOM      2  N   UNL     1      35.110 -16.488 -20.793  0.00  0.00    -0.394 NA
ATOM      3  C   UNL     1      34.215 -15.680 -22.727  0.00  0.00    +0.079 C 
ATOM      4  C   UNL     1      35.370 -17.313 -21.783  0.00  0.00    +0.168 C 
ATOM      5  C   UNL     1      34.390 -15.463 -21.364  0.00  0.00    +0.129 C 
ATOM      6  C   UNL     1      33.849 -14.305 -20.779  0.00  0.00    +0.103 C 
ATOM      7  C   UNL     1      33.148 -13.409 -21.596  0.00  0.00    +0.050 C 
ATOM      8  C   UNL     1      33.522 -14.801 -23.560  0.00  0.00    +0.018 C 
ATOM      9  C   UNL     1      34.954 -17.535 -24.247  0.00  0.00    +0.119 C 
ATOM     10  C   UNL     1      32.989 -13.654 -22.962  0.00  0.00    +0.013 C 
ENDROOT
BRANCH   7  11
ATOM     11  N   UNL     1      32.588 -12.227 -21.022  0.00  0.00    -0.219 N 
ATOM     12  H   UNL     1      32.585 -12.076 -20.049  0.00  0.00    +0.173 HD
BRANCH  11  13
ATOM     13  S   UNL     1      31.916 -11.066 -22.126  0.00  0.00    +0.073 S 
ATOM     14  O   UNL     1      30.477 -11.234 -22.181  0.00  0.00    -0.150 OA
ATOM     15  O   UNL     1      32.703 -11.056 -23.345  0.00  0.00    -0.150 OA
BRANCH  13  16
ATOM     16  C   UNL     1      32.247  -9.542 -21.290  0.00  0.00    +0.125 C 
ATOM     17  C   UNL     1      31.872  -9.406 -19.965  0.00  0.00    +0.020 C 
ATOM     18  C   UNL     1      32.874  -8.519 -21.977  0.00  0.00    +0.020 C 
ATOM     19  C   UNL     1      32.133  -8.204 -19.306  0.00  0.00    +0.001 C 
ATOM     20  C   UNL     1      33.136  -7.317 -21.318  0.00  0.00    +0.001 C 
ATOM     21  C   UNL     1      32.765  -7.160 -19.982  0.00  0.00    +0.000 C 
ENDBRANCH  13  16
ENDBRANCH  11  13
ENDBRANCH   7  11
BRANCH   4  22
ATOM     22  C   UNL     1      36.126 -18.578 -21.679  0.00  0.00    +0.101 C 
BRANCH  22  23
ATOM     23  C   UNL     1      35.407 -19.663 -20.888  0.00  0.00    -0.014 C 
ATOM     24  C   UNL     1      34.036 -19.765 -20.992  0.00  0.00    -0.004 C 
ATOM     25  C   UNL     1      36.151 -20.511 -20.093  0.00  0.00    -0.004 C 
ATOM     26  C   UNL     1      33.377 -20.760 -20.268  0.00  0.00    +0.002 C 
ATOM     27  C   UNL     1      35.493 -21.504 -19.368  0.00  0.00    +0.002 C 
ATOM     28  C   UNL     1      34.106 -21.628 -19.456  0.00  0.00    +0.031 C 
BRANCH  28  31
ATOM     29  N   UNL     1      32.275 -22.381 -17.956  0.00  0.00    -0.343 N 
ATOM     30  N   UNL     1      33.883 -23.902 -18.708  0.00  0.00    -0.285 NA
ATOM     31  C   UNL     1      33.420 -22.664 -18.700  0.00  0.00    +0.117 C 
ATOM     32  H   UNL     1      31.827 -23.099 -17.452  0.00  0.00    +0.144 HD
ATOM     33  H   UNL     1      31.915 -21.466 -17.935  0.00  0.00    +0.144 HD
ATOM     34  H   UNL     1      33.421 -24.604 -18.197  0.00  0.00    +0.188 HD
ENDBRANCH  28  31
ENDBRANCH  22  23
ENDBRANCH   4  22
TORSDOF 6
ENDMDL
MODEL 2
REMARK VINA RESULT:     -12.3      4.973     10.496
REMARK  Name = 446805
REMARK  6 active torsions:
REMARK  status: ('A' for Active; 'I' for Inactive)
REMARK    1  A    between atoms: C_4  and  C_22
REMARK    2  A    between atoms: C_7  and  N_11
REMARK    3  A    between atoms: N_11  and  S_13
REMARK    4  A    between atoms: S_13  and  C_16
REMARK    5  A    between atoms: C_22  and  C_23
REMARK    6  A    between atoms: C_28  and  C_31
REMARK                            x       y       z     vdW  Elec       q    Type
REMARK                         _______ _______ _______ _____ _____    ______ ____
ROOT
ATOM      1  N   UNL     1      36.069 -19.248 -21.624  0.00  0.00    -0.262 N 
ATOM      2  N   UNL     1      33.889 -19.161 -22.047  0.00  0.00    -0.394 NA
ATOM      3  C   UNL     1      35.487 -20.097 -20.719  0.00  0.00    +0.079 C 
ATOM      4  C   UNL     1      35.075 -18.713 -22.394  0.00  0.00    +0.168 C 
ATOM      5  C   UNL     1      34.127 -20.027 -21.004  0.00  0.00    +0.129 C 
ATOM      6  C   UNL     1      33.226 -20.793 -20.244  0.00  0.00    +0.103 C 
ATOM      7  C   UNL     1      33.737 -21.604 -19.222  0.00  0.00    +0.050 C 
ATOM      8  C   UNL     1      36.017 -20.899 -19.707  0.00  0.00    +0.018 C 
ATOM      9  C   UNL     1      37.483 -18.969 -21.738  0.00  0.00    +0.119 C 
ATOM     10  C   UNL     1      35.108 -21.655 -18.961  0.00  0.00    +0.013 C 
ENDROOT
BRANCH   7  11
ATOM     11  N   UNL     1      32.840 -22.391 -18.436  0.00  0.00    -0.219 N 
ATOM     12  H   UNL     1      31.863 -22.289 -18.510  0.00  0.00    +0.173 HD
BRANCH  11  13
ATOM     13  S   UNL     1      33.556 -23.537 -17.346  0.00  0.00    +0.073 S 
ATOM     14  O   UNL     1      34.792 -22.991 -16.821  0.00  0.00    -0.150 OA
ATOM     15  O   UNL     1      33.533 -24.854 -17.955  0.00  0.00    -0.150 OA
BRANCH  13  16
ATOM     16  C   UNL     1      32.378 -23.563 -16.026  0.00  0.00    +0.125 C 
ATOM     17  C   UNL     1      32.795 -23.931 -14.759  0.00  0.00    +0.020 C 
ATOM     18  C   UNL     1      31.066 -23.214 -16.287  0.00  0.00    +0.020 C 
ATOM     19  C   UNL     1      31.866 -23.950 -13.718  0.00  0.00    +0.001 C 
ATOM     20  C   UNL     1      30.137 -23.234 -15.247  0.00  0.00    +0.001 C 
ATOM     21  C   UNL     1      30.537 -23.602 -13.962  0.00  0.00    +0.000 C 
ENDBRANCH  13  16
ENDBRANCH  11  13
ENDBRANCH   7  11
BRANCH   4  22
ATOM     22  C   UNL     1      35.353 -17.748 -23.478  0.00  0.00    +0.101 C 
BRANCH  22  23
ATOM     23  C   UNL     1      34.674 -16.397 -23.289  0.00  0.00    -0.014 C 
ATOM     24  C   UNL     1      33.974 -15.850 -24.344  0.00  0.00    -0.004 C 
ATOM     25  C   UNL     1      34.783 -15.762 -22.069  0.00  0.00    -0.004 C 
ATOM     26  C   UNL     1      33.353 -14.613 -24.171  0.00  0.00    +0.002 C 
ATOM     27  C   UNL     1      34.162 -14.525 -21.896  0.00  0.00    +0.002 C 
ATOM     28  C   UNL     1      33.447 -13.951 -22.948  0.00  0.00    +0.031 C 
BRANCH  28  31
ATOM     29  N   UNL     1      31.602 -12.542 -22.066  0.00  0.00    -0.343 N 
ATOM     30  N   UNL     1      33.350 -11.572 -23.277  0.00  0.00    -0.285 NA
ATOM     31  C   UNL     1      32.801 -12.660 -22.767  0.00  0.00    +0.117 C 
ATOM     32  H   UNL     1      31.182 -11.658 -21.956  0.00  0.00    +0.144 HD
ATOM     33  H   UNL     1      31.176 -13.341 -21.681  0.00  0.00    +0.144 HD
ATOM     34  H   UNL     1      32.914 -10.698 -23.157  0.00  0.00    +0.188 HD
ENDBRANCH  28  31
ENDBRANCH  22  23
ENDBRANCH   4  22
TORSDOF 6
ENDMDL
MODEL 3
REMARK VINA RESULT:     -12.1      5.044      8.526
REMARK  Name = 446805
REMARK  6 active torsions:
REMARK  status: ('A' for Active; 'I' for Inactive)
REMARK    1  A    between atoms: C_4  and  C_22
REMARK    2  A    between atoms: C_7  and  N_11
REMARK    3  A    between atoms: N_11  and  S_13
REMARK    4  A    between atoms: S_13  and  C_16
REMARK    5  A    between atoms: C_22  and  C_23
REMARK    6  A    between atoms: C_28  and  C_31
REMARK                            x       y       z     vdW  Elec       q    Type
REMARK                         _______ _______ _______ _____ _____    ______ ____
ROOT
ATOM      1  N   UNL     1      34.036 -23.095 -16.882  0.00  0.00    -0.262 N 
ATOM      2  N   UNL     1      32.200 -22.488 -17.977  0.00  0.00    -0.394 NA
ATOM      3  C   UNL     1      34.476 -22.390 -17.972  0.00  0.00    +0.079 C 
ATOM      4  C   UNL     1      32.671 -23.126 -16.929  0.00  0.00    +0.168 C 
ATOM      5  C   UNL     1      33.312 -22.021 -18.639  0.00  0.00    +0.129 C 
ATOM      6  C   UNL     1      33.408 -21.271 -19.824  0.00  0.00    +0.103 C 
ATOM      7  C   UNL     1      34.682 -20.921 -20.290  0.00  0.00    +0.050 C 
ATOM      8  C   UNL     1      35.755 -22.052 -18.418  0.00  0.00    +0.018 C 
ATOM      9  C   UNL     1      34.871 -23.698 -15.868  0.00  0.00    +0.119 C 
ATOM     10  C   UNL     1      35.833 -21.305 -19.598  0.00  0.00    +0.013 C 
ENDROOT
BRANCH   7  11
ATOM     11  N   UNL     1      34.804 -20.159 -21.493  0.00  0.00    -0.219 N 
ATOM     12  H   UNL     1      34.346 -20.427 -22.323  0.00  0.00    +0.173 HD
BRANCH  11  13
ATOM     13  S   UNL     1      35.796 -18.736 -21.419  0.00  0.00    +0.073 S 
ATOM     14  O   UNL     1      37.150 -19.075 -21.813  0.00  0.00    -0.150 OA
ATOM     15  O   UNL     1      35.545 -18.044 -20.168  0.00  0.00    -0.150 OA
BRANCH  13  16
ATOM     16  C   UNL     1      35.097 -17.742 -22.704  0.00  0.00    +0.125 C 
ATOM     17  C   UNL     1      34.543 -18.363 -23.810  0.00  0.00    +0.020 C 
ATOM     18  C   UNL     1      35.116 -16.365 -22.577  0.00  0.00    +0.020 C 
ATOM     19  C   UNL     1      33.990 -17.579 -24.823  0.00  0.00    +0.001 C 
ATOM     20  C   UNL     1      34.563 -15.581 -23.590  0.00  0.00    +0.001 C 
ATOM     21  C   UNL     1      34.000 -16.188 -24.713  0.00  0.00    +0.000 C 
ENDBRANCH  13  16
ENDBRANCH  11  13
ENDBRANCH   7  11
BRANCH   4  22
ATOM     22  C   UNL     1      31.864 -23.811 -15.898  0.00  0.00    +0.101 C 
BRANCH  22  23
ATOM     23  C   UNL     1      30.400 -23.390 -15.879  0.00  0.00    -0.014 C 
ATOM     24  C   UNL     1      29.561 -23.854 -16.871  0.00  0.00    -0.004 C 
ATOM     25  C   UNL     1      29.959 -22.558 -14.871  0.00  0.00    -0.004 C 
ATOM     26  C   UNL     1      28.220 -23.468 -16.853  0.00  0.00    +0.002 C 
ATOM     27  C   UNL     1      28.619 -22.171 -14.854  0.00  0.00    +0.002 C 
ATOM     28  C   UNL     1      27.750 -22.627 -15.845  0.00  0.00    +0.031 C 
BRANCH  28  31
ATOM     29  N   UNL     1      25.777 -21.556 -16.907  0.00  0.00    -0.343 N 
ATOM     30  N   UNL     1      25.604 -22.488 -14.771  0.00  0.00    -0.285 NA
ATOM     31  C   UNL     1      26.352 -22.224 -15.828  0.00  0.00    +0.117 C 
ATOM     32  H   UNL     1      24.828 -21.293 -16.873  0.00  0.00    +0.144 HD
ATOM     33  H   UNL     1      26.317 -21.348 -17.703  0.00  0.00    +0.144 HD
ATOM     34  H   UNL     1      24.659 -22.216 -14.756  0.00  0.00    +0.188 HD
ENDBRANCH  28  31
ENDBRANCH  22  23
ENDBRANCH   4  22
TORSDOF 6
ENDMDL
MODEL 4
REMARK VINA RESULT:     -12.0      3.549     10.177
REMARK  Name = 446805
REMARK  6 active torsions:
REMARK  status: ('A' for Active; 'I' for Inactive)
REMARK    1  A    between atoms: C_4  and  C_22
REMARK    2  A    between atoms: C_7  and  N_11
REMARK    3  A    between atoms: N_11  and  S_13
REMARK    4  A    between atoms: S_13  and  C_16
REMARK    5  A    between atoms: C_22  and  C_23
REMARK    6  A    between atoms: C_28  and  C_31
REMARK                            x       y       z     vdW  Elec       q    Type
REMARK                         _______ _______ _______ _____ _____    ______ ____
ROOT
ATOM      1  N   UNL     1      33.578 -14.019 -24.582  0.00  0.00    -0.262 N 
ATOM      2  N   UNL     1      33.688 -13.177 -22.528  0.00  0.00    -0.394 NA
ATOM      3  C   UNL     1      34.064 -15.032 -23.797  0.00  0.00    +0.079 C 
ATOM      4  C   UNL     1      33.369 -12.933 -23.779  0.00  0.00    +0.168 C 
ATOM      5  C   UNL     1      34.122 -14.483 -22.519  0.00  0.00    +0.129 C 
ATOM      6  C   UNL     1      34.586 -15.273 -21.454  0.00  0.00    +0.103 C 
ATOM      7  C   UNL     1      34.974 -16.592 -21.720  0.00  0.00    +0.050 C 
ATOM      8  C   UNL     1      34.443 -16.344 -24.085  0.00  0.00    +0.018 C 
ATOM      9  C   UNL     1      33.333 -14.091 -26.005  0.00  0.00    +0.119 C 
ATOM     10  C   UNL     1      34.903 -17.116 -23.013  0.00  0.00    +0.013 C 
ENDROOT
BRANCH   7  11
ATOM     11  N   UNL     1      35.450 -17.413 -20.652  0.00  0.00    -0.219 N 
ATOM     12  H   UNL     1      35.317 -17.162 -19.708  0.00  0.00    +0.173 HD
BRANCH  11  13
ATOM     13  S   UNL     1      36.271 -18.877 -21.098  0.00  0.00    +0.073 S 
ATOM     14  O   UNL     1      37.548 -18.937 -20.413  0.00  0.00    -0.150 OA
ATOM     15  O   UNL     1      36.199 -19.044 -22.537  0.00  0.00    -0.150 OA
BRANCH  13  16
ATOM     16  C   UNL     1      35.222 -20.110 -20.386  0.00  0.00    +0.125 C 
ATOM     17  C   UNL     1      33.852 -20.010 -20.559  0.00  0.00    +0.020 C 
ATOM     18  C   UNL     1      35.790 -21.148 -19.670  0.00  0.00    +0.020 C 
ATOM     19  C   UNL     1      33.025 -20.983 -19.998  0.00  0.00    +0.001 C 
ATOM     20  C   UNL     1      34.963 -22.121 -19.109  0.00  0.00    +0.001 C 
ATOM     21  C   UNL     1      33.580 -22.039 -19.273  0.00  0.00    +0.000 C 
ENDBRANCH  13  16
ENDBRANCH  11  13
ENDBRANCH   7  11
BRANCH   4  22
ATOM     22  C   UNL     1      32.846 -11.655 -24.306  0.00  0.00    +0.101 C 
BRANCH  22  23
ATOM     23  C   UNL     1      32.836 -10.525 -23.285  0.00  0.00    -0.014 C 
ATOM     24  C   UNL     1      33.750  -9.500 -23.416  0.00  0.00    -0.004 C 
ATOM     25  C   UNL     1      31.912 -10.562 -22.260  0.00  0.00    -0.004 C 
ATOM     26  C   UNL     1      33.740  -8.465 -22.480  0.00  0.00    +0.002 C 
ATOM     27  C   UNL     1      31.903  -9.527 -21.324  0.00  0.00    +0.002 C 
ATOM     28  C   UNL     1      32.817  -8.479 -21.435  0.00  0.00    +0.031 C 
BRANCH  28  31
ATOM     29  N   UNL     1      32.438  -6.105 -20.814  0.00  0.00    -0.343 N 
ATOM     30  N   UNL     1      33.157  -7.642 -19.208  0.00  0.00    -0.285 NA
ATOM     31  C   UNL     1      32.808  -7.401 -20.459  0.00  0.00    +0.117 C 
ATOM     32  H   UNL     1      32.439  -5.390 -20.137  0.00  0.00    +0.144 HD
ATOM     33  H   UNL     1      32.177  -5.903 -21.742  0.00  0.00    +0.144 HD
ATOM     34  H   UNL     1      33.152  -6.914 -18.545  0.00  0.00    +0.188 HD
ENDBRANCH  28  31
ENDBRANCH  22  23
ENDBRANCH   4  22
TORSDOF 6
ENDMDL
MODEL 5
REMARK VINA RESULT:     -11.9      8.123     12.838
REMARK  Name = 446805
REMARK  6 active torsions:
REMARK  status: ('A' for Active; 'I' for Inactive)
REMARK    1  A    between atoms: C_4  and  C_22
REMARK    2  A    between atoms: C_7  and  N_11
REMARK    3  A    between atoms: N_11  and  S_13
REMARK    4  A    between atoms: S_13  and  C_16
REMARK    5  A    between atoms: C_22  and  C_23
REMARK    6  A    between atoms: C_28  and  C_31
REMARK                            x       y       z     vdW  Elec       q    Type
REMARK                         _______ _______ _______ _____ _____    ______ ____
ROOT
ATOM      1  N   UNL     1      32.196 -23.268 -16.270  0.00  0.00    -0.262 N 
ATOM      2  N   UNL     1      34.251 -23.779 -16.944  0.00  0.00    -0.394 NA
ATOM      3  C   UNL     1      32.831 -23.768 -15.162  0.00  0.00    +0.079 C 
ATOM      4  C   UNL     1      33.085 -23.295 -17.308  0.00  0.00    +0.168 C 
ATOM      5  C   UNL     1      34.112 -24.079 -15.608  0.00  0.00    +0.129 C 
ATOM      6  C   UNL     1      35.040 -24.623 -14.704  0.00  0.00    +0.103 C 
ATOM      7  C   UNL     1      34.636 -24.832 -13.379  0.00  0.00    +0.050 C 
ATOM      8  C   UNL     1      32.408 -23.967 -13.848  0.00  0.00    +0.018 C 
ATOM      9  C   UNL     1      30.830 -22.798 -16.326  0.00  0.00    +0.119 C 
ATOM     10  C   UNL     1      33.343 -24.509 -12.960  0.00  0.00    +0.013 C 
ENDROOT
BRANCH   7  11
ATOM     11  N   UNL     1      35.563 -25.386 -12.443  0.00  0.00    -0.219 N 
ATOM     12  H   UNL     1      35.458 -26.299 -12.090  0.00  0.00    +0.173 HD
BRANCH  11  13
ATOM     13  S   UNL     1      36.885 -24.369 -11.958  0.00  0.00    +0.073 S 
ATOM     14  O   UNL     1      37.324 -24.753 -10.631  0.00  0.00    -0.150 OA
ATOM     15  O   UNL     1      36.556 -22.986 -12.253  0.00  0.00    -0.150 OA
BRANCH  13  16
ATOM     16  C   UNL     1      38.146 -24.850 -13.101  0.00  0.00    +0.125 C 
ATOM     17  C   UNL     1      39.017 -25.868 -12.753  0.00  0.00    +0.020 C 
ATOM     18  C   UNL     1      38.237 -24.201 -14.318  0.00  0.00    +0.020 C 
ATOM     19  C   UNL     1      40.012 -26.248 -13.655  0.00  0.00    +0.001 C 
ATOM     20  C   UNL     1      39.232 -24.581 -15.220  0.00  0.00    +0.001 C 
ATOM     21  C   UNL     1      40.119 -25.605 -14.888  0.00  0.00    +0.000 C 
ENDBRANCH  13  16
ENDBRANCH  11  13
ENDBRANCH   7  11
BRANCH   4  22
ATOM     22  C   UNL     1      32.726 -22.824 -18.662  0.00  0.00    +0.101 C 
BRANCH  22  23
ATOM     23  C   UNL     1      33.746 -21.872 -19.274  0.00  0.00    -0.014 C 
ATOM     24  C   UNL     1      33.298 -20.825 -20.052  0.00  0.00    -0.004 C 
ATOM     25  C   UNL     1      35.087 -22.088 -19.032  0.00  0.00    -0.004 C 
ATOM     26  C   UNL     1      34.232 -19.953 -20.612  0.00  0.00    +0.002 C 
ATOM     27  C   UNL     1      36.022 -21.217 -19.592  0.00  0.00    +0.002 C 
ATOM     28  C   UNL     1      35.594 -20.150 -20.382  0.00  0.00    +0.031 C 
BRANCH  28  31
ATOM     29  N   UNL     1      36.313 -18.579 -22.166  0.00  0.00    -0.343 N 
ATOM     30  N   UNL     1      37.723 -19.036 -20.360  0.00  0.00    -0.285 NA
ATOM     31  C   UNL     1      36.568 -19.242 -20.967  0.00  0.00    +0.117 C 
ATOM     32  H   UNL     1      36.987 -17.969 -22.544  0.00  0.00    +0.144 HD
ATOM     33  H   UNL     1      35.459 -18.721 -22.636  0.00  0.00    +0.144 HD
ATOM     34  H   UNL     1      38.384 -18.422 -20.753  0.00  0.00    +0.188 HD
ENDBRANCH  28  31
ENDBRANCH  22  23
ENDBRANCH   4  22
TORSDOF 6
ENDMDL
MODEL 6
REMARK VINA RESULT:     -11.3      1.775      2.104
REMARK  Name = 446805
REMARK  6 active torsions:
REMARK  status: ('A' for Active; 'I' for Inactive)
REMARK    1  A    between atoms: C_4  and  C_22
REMARK    2  A    between atoms: C_7  and  N_11
REMARK    3  A    between atoms: N_11  and  S_13
REMARK    4  A    between atoms: S_13  and  C_16
REMARK    5  A    between atoms: C_22  and  C_23
REMARK    6  A    between atoms: C_28  and  C_31
REMARK                            x       y       z     vdW  Elec       q    Type
REMARK                         _______ _______ _______ _____ _____    ______ ____
ROOT
ATOM      1  N   UNL     1      35.239 -18.481 -22.798  0.00  0.00    -0.262 N 
ATOM      2  N   UNL     1      35.616 -17.739 -20.737  0.00  0.00    -0.394 NA
ATOM      3  C   UNL     1      34.857 -17.164 -22.808  0.00  0.00    +0.079 C 
ATOM      4  C   UNL     1      35.685 -18.777 -21.541  0.00  0.00    +0.168 C 
ATOM      5  C   UNL     1      35.102 -16.723 -21.510  0.00  0.00    +0.129 C 
ATOM      6  C   UNL     1      34.815 -15.390 -21.173  0.00  0.00    +0.103 C 
ATOM      7  C   UNL     1      34.289 -14.550 -22.162  0.00  0.00    +0.050 C 
ATOM      8  C   UNL     1      34.335 -16.344 -23.809  0.00  0.00    +0.018 C 
ATOM      9  C   UNL     1      35.178 -19.390 -23.921  0.00  0.00    +0.119 C 
ATOM     10  C   UNL     1      34.054 -15.020 -23.457  0.00  0.00    +0.013 C 
ENDROOT
BRANCH   7  11
ATOM     11  N   UNL     1      33.988 -13.190 -21.842  0.00  0.00    -0.219 N 
ATOM     12  H   UNL     1      34.694 -12.506 -21.780  0.00  0.00    +0.173 HD
BRANCH  11  13
ATOM     13  S   UNL     1      32.317 -12.803 -21.568  0.00  0.00    +0.073 S 
ATOM     14  O   UNL     1      32.079 -12.688 -20.143  0.00  0.00    -0.150 OA
ATOM     15  O   UNL     1      31.487 -13.668 -22.386  0.00  0.00    -0.150 OA
BRANCH  13  16
ATOM     16  C   UNL     1      32.205 -11.180 -22.264  0.00  0.00    +0.125 C 
ATOM     17  C   UNL     1      31.115 -10.387 -21.951  0.00  0.00    +0.020 C 
ATOM     18  C   UNL     1      33.209 -10.737 -23.105  0.00  0.00    +0.020 C 
ATOM     19  C   UNL     1      31.028  -9.107 -22.499  0.00  0.00    +0.001 C 
ATOM     20  C   UNL     1      33.122  -9.457 -23.652  0.00  0.00    +0.001 C 
ATOM     21  C   UNL     1      32.031  -8.642 -23.350  0.00  0.00    +0.000 C 
ENDBRANCH  13  16
ENDBRANCH  11  13
ENDBRANCH   7  11
BRANCH   4  22
ATOM     22  C   UNL     1      36.177 -20.122 -21.178  0.00  0.00    +0.101 C 
BRANCH  22  23
ATOM     23  C   UNL     1      35.288 -20.855 -20.180  0.00  0.00    -0.014 C 
ATOM     24  C   UNL     1      33.921 -20.699 -20.265  0.00  0.00    -0.004 C 
ATOM     25  C   UNL     1      35.881 -21.652 -19.222  0.00  0.00    -0.004 C 
ATOM     26  C   UNL     1      33.108 -21.370 -19.351  0.00  0.00    +0.002 C 
ATOM     27  C   UNL     1      35.068 -22.322 -18.308  0.00  0.00    +0.002 C 
ATOM     28  C   UNL     1      33.682 -22.181 -18.373  0.00  0.00    +0.031 C 
BRANCH  28  31
ATOM     29  N   UNL     1      33.362 -23.811 -16.527  0.00  0.00    -0.343 N 
ATOM     30  N   UNL     1      31.536 -22.638 -17.392  0.00  0.00    -0.285 NA
ATOM     31  C   UNL     1      32.834 -22.880 -17.420  0.00  0.00    +0.117 C 
ATOM     32  H   UNL     1      32.770 -24.273 -15.890  0.00  0.00    +0.144 HD
ATOM     33  H   UNL     1      34.327 -24.008 -16.533  0.00  0.00    +0.144 HD
ATOM     34  H   UNL     1      30.960 -23.110 -16.748  0.00  0.00    +0.188 HD
ENDBRANCH  28  31
ENDBRANCH  22  23
ENDBRANCH   4  22
TORSDOF 6
ENDMDL
MODEL 7
REMARK VINA RESULT:     -10.9      5.758     11.440
REMARK  Name = 446805
REMARK  6 active torsions:
REMARK  status: ('A' for Active; 'I' for Inactive)
REMARK    1  A    between atoms: C_4  and  C_22
REMARK    2  A    between atoms: C_7  and  N_11
REMARK    3  A    between atoms: N_11  and  S_13
REMARK    4  A    between atoms: S_13  and  C_16
REMARK    5  A    between atoms: C_22  and  C_23
REMARK    6  A    between atoms: C_28  and  C_31
REMARK                            x       y       z     vdW  Elec       q    Type
REMARK                         _______ _______ _______ _____ _____    ______ ____
ROOT
ATOM      1  N   UNL     1      34.899 -20.031 -21.036  0.00  0.00    -0.262 N 
ATOM      2  N   UNL     1      36.945 -19.565 -20.306  0.00  0.00    -0.394 NA
ATOM      3  C   UNL     1      35.094 -20.846 -19.951  0.00  0.00    +0.079 C 
ATOM      4  C   UNL     1      36.031 -19.286 -21.208  0.00  0.00    +0.168 C 
ATOM      5  C   UNL     1      36.378 -20.536 -19.512  0.00  0.00    +0.129 C 
ATOM      6  C   UNL     1      36.901 -21.205 -18.392  0.00  0.00    +0.103 C 
ATOM      7  C   UNL     1      36.104 -22.165 -17.757  0.00  0.00    +0.050 C 
ATOM      8  C   UNL     1      34.283 -21.798 -19.332  0.00  0.00    +0.018 C 
ATOM      9  C   UNL     1      33.706 -19.976 -21.851  0.00  0.00    +0.119 C 
ATOM     10  C   UNL     1      34.818 -22.455 -18.219  0.00  0.00    +0.013 C 
ENDROOT
BRANCH   7  11
ATOM     11  N   UNL     1      36.615 -22.859 -16.617  0.00  0.00    -0.219 N 
ATOM     12  H   UNL     1      37.583 -22.936 -16.450  0.00  0.00    +0.173 HD
BRANCH  11  13
ATOM     13  S   UNL     1      35.447 -23.557 -15.538  0.00  0.00    +0.073 S 
ATOM     14  O   UNL     1      34.589 -24.460 -16.280  0.00  0.00    -0.150 OA
ATOM     15  O   UNL     1      34.874 -22.510 -14.713  0.00  0.00    -0.150 OA
BRANCH  13  16
ATOM     16  C   UNL     1      36.473 -24.538 -14.483  0.00  0.00    +0.125 C 
ATOM     17  C   UNL     1      37.202 -23.916 -13.484  0.00  0.00    +0.020 C 
ATOM     18  C   UNL     1      36.525 -25.906 -14.675  0.00  0.00    +0.020 C 
ATOM     19  C   UNL     1      38.010 -24.690 -12.651  0.00  0.00    +0.001 C 
ATOM     20  C   UNL     1      37.334 -26.680 -13.842  0.00  0.00    +0.001 C 
ATOM     21  C   UNL     1      38.076 -26.072 -12.830  0.00  0.00    +0.000 C 
ENDBRANCH  13  16
ENDBRANCH  11  13
ENDBRANCH   7  11
BRANCH   4  22
ATOM     22  C   UNL     1      36.163 -18.296 -22.297  0.00  0.00    +0.101 C 
BRANCH  22  23
ATOM     23  C   UNL     1      35.349 -17.027 -22.078  0.00  0.00    -0.014 C 
ATOM     24  C   UNL     1      35.064 -16.631 -20.788  0.00  0.00    -0.004 C 
ATOM     25  C   UNL     1      34.921 -16.313 -23.179  0.00  0.00    -0.004 C 
ATOM     26  C   UNL     1      34.319 -15.469 -20.588  0.00  0.00    +0.002 C 
ATOM     27  C   UNL     1      34.175 -15.151 -22.979  0.00  0.00    +0.002 C 
ATOM     28  C   UNL     1      33.875 -14.730 -21.684  0.00  0.00    +0.031 C 
BRANCH  28  31
ATOM     29  N   UNL     1      32.475 -13.256 -20.256  0.00  0.00    -0.343 N 
ATOM     30  N   UNL     1      32.967 -12.643 -22.457  0.00  0.00    -0.285 NA
ATOM     31  C   UNL     1      33.097 -13.518 -21.476  0.00  0.00    +0.117 C 
ATOM     32  H   UNL     1      31.953 -12.430 -20.138  0.00  0.00    +0.144 HD
ATOM     33  H   UNL     1      32.558 -13.897 -19.514  0.00  0.00    +0.144 HD
ATOM     34  H   UNL     1      32.441 -11.823 -22.319  0.00  0.00    +0.188 HD
ENDBRANCH  28  31
ENDBRANCH  22  23
ENDBRANCH   4  22
TORSDOF 6
ENDMDL
MODEL 8
REMARK VINA RESULT:     -10.8      4.237      7.552
REMARK  Name = 446805
REMARK  6 active torsions:
REMARK  status: ('A' for Active; 'I' for Inactive)
REMARK    1  A    between atoms: C_4  and  C_22
REMARK    2  A    between atoms: C_7  and  N_11
REMARK    3  A    between atoms: N_11  and  S_13
REMARK    4  A    between atoms: S_13  and  C_16
REMARK    5  A    between atoms: C_22  and  C_23
REMARK    6  A    between atoms: C_28  and  C_31
REMARK                            x       y       z     vdW  Elec       q    Type
REMARK                         _______ _______ _______ _____ _____    ______ ____
ROOT
ATOM      1  N   UNL     1      31.768  -9.891 -20.150  0.00  0.00    -0.262 N 
ATOM      2  N   UNL     1      32.411 -10.418 -22.212  0.00  0.00    -0.394 NA
ATOM      3  C   UNL     1      32.175  -8.712 -20.720  0.00  0.00    +0.079 C 
ATOM      4  C   UNL     1      31.928 -10.880 -21.080  0.00  0.00    +0.168 C 
ATOM      5  C   UNL     1      32.570  -9.067 -22.006  0.00  0.00    +0.129 C 
ATOM      6  C   UNL     1      33.050  -8.072 -22.875  0.00  0.00    +0.103 C 
ATOM      7  C   UNL     1      33.113  -6.753 -22.410  0.00  0.00    +0.050 C 
ATOM      8  C   UNL     1      32.227  -7.404 -20.236  0.00  0.00    +0.018 C 
ATOM      9  C   UNL     1      31.263 -10.054 -18.806  0.00  0.00    +0.119 C 
ATOM     10  C   UNL     1      32.708  -6.426 -21.114  0.00  0.00    +0.013 C 
ENDROOT
BRANCH   7  11
ATOM     11  N   UNL     1      33.598  -5.726 -23.276  0.00  0.00    -0.219 N 
ATOM     12  H   UNL     1      34.550  -5.473 -23.295  0.00  0.00    +0.173 HD
BRANCH  11  13
ATOM     13  S   UNL     1      32.428  -4.945 -24.296  0.00  0.00    +0.073 S 
ATOM     14  O   UNL     1      32.461  -3.516 -24.056  0.00  0.00    -0.150 OA
ATOM     15  O   UNL     1      31.175  -5.674 -24.228  0.00  0.00    -0.150 OA
BRANCH  13  16
ATOM     16  C   UNL     1      33.103  -5.235 -25.905  0.00  0.00    +0.125 C 
ATOM     17  C   UNL     1      33.800  -6.407 -26.142  0.00  0.00    +0.020 C 
ATOM     18  C   UNL     1      32.920  -4.286 -26.894  0.00  0.00    +0.020 C 
ATOM     19  C   UNL     1      34.332  -6.636 -27.411  0.00  0.00    +0.001 C 
ATOM     20  C   UNL     1      33.452  -4.515 -28.163  0.00  0.00    +0.001 C 
ATOM     21  C   UNL     1      34.157  -5.689 -28.422  0.00  0.00    +0.000 C 
ENDBRANCH  13  16
ENDBRANCH  11  13
ENDBRANCH   7  11
BRANCH   4  22
ATOM     22  C   UNL     1      31.584 -12.289 -20.795  0.00  0.00    +0.101 C 
BRANCH  22  23
ATOM     23  C   UNL     1      32.499 -13.297 -21.479  0.00  0.00    -0.014 C 
ATOM     24  C   UNL     1      33.390 -14.016 -20.710  0.00  0.00    -0.004 C 
ATOM     25  C   UNL     1      32.408 -13.458 -22.846  0.00  0.00    -0.004 C 
ATOM     26  C   UNL     1      34.228 -14.940 -21.336  0.00  0.00    +0.002 C 
ATOM     27  C   UNL     1      33.246 -14.381 -23.472  0.00  0.00    +0.002 C 
ATOM     28  C   UNL     1      34.156 -15.122 -22.717  0.00  0.00    +0.031 C 
BRANCH  28  31
ATOM     29  N   UNL     1      35.753 -17.022 -22.636  0.00  0.00    -0.343 N 
ATOM     30  N   UNL     1      35.151 -16.075 -24.686  0.00  0.00    -0.285 NA
ATOM     31  C   UNL     1      35.030 -16.083 -23.370  0.00  0.00    +0.117 C 
ATOM     32  H   UNL     1      36.339 -17.663 -23.099  0.00  0.00    +0.144 HD
ATOM     33  H   UNL     1      35.678 -17.043 -21.655  0.00  0.00    +0.144 HD
ATOM     34  H   UNL     1      35.742 -16.724 -25.131  0.00  0.00    +0.188 HD
ENDBRANCH  28  31
ENDBRANCH  22  23
ENDBRANCH   4  22
TORSDOF 6
ENDMDL
MODEL 9
REMARK VINA RESULT:     -10.6      6.909     10.956
REMARK  Name = 446805
REMARK  6 active torsions:
REMARK  status: ('A' for Active; 'I' for Inactive)
REMARK    1  A    between atoms: C_4  and  C_22
REMARK    2  A    between atoms: C_7  and  N_11
REMARK    3  A    between atoms: N_11  and  S_13
REMARK    4  A    between atoms: S_13  and  C_16
REMARK    5  A    between atoms: C_22  and  C_23
REMARK    6  A    between atoms: C_28  and  C_31
REMARK                            x       y       z     vdW  Elec       q    Type
REMARK                         _______ _______ _______ _____ _____    ______ ____
ROOT
ATOM      1  N   UNL     1      36.098 -22.325 -16.941  0.00  0.00    -0.262 N 
ATOM      2  N   UNL     1      34.668 -22.240 -18.641  0.00  0.00    -0.394 NA
ATOM      3  C   UNL     1      34.941 -22.893 -16.475  0.00  0.00    +0.079 C 
ATOM      4  C   UNL     1      35.886 -21.951 -18.239  0.00  0.00    +0.168 C 
ATOM      5  C   UNL     1      34.064 -22.830 -17.554  0.00  0.00    +0.129 C 
ATOM      6  C   UNL     1      32.762 -23.338 -17.410  0.00  0.00    +0.103 C 
ATOM      7  C   UNL     1      32.394 -23.893 -16.178  0.00  0.00    +0.050 C 
ATOM      8  C   UNL     1      34.596 -23.442 -15.239  0.00  0.00    +0.018 C 
ATOM      9  C   UNL     1      37.321 -22.152 -16.191  0.00  0.00    +0.119 C 
ATOM     10  C   UNL     1      33.296 -23.943 -15.113  0.00  0.00    +0.013 C 
ENDROOT
BRANCH   7  11
ATOM     11  N   UNL     1      31.075 -24.414 -16.009  0.00  0.00    -0.219 N 
ATOM     12  H   UNL     1      30.701 -25.084 -16.628  0.00  0.00    +0.173 HD
BRANCH  11  13
ATOM     13  S   UNL     1      30.163 -23.812 -14.659  0.00  0.00    +0.073 S 
ATOM     14  O   UNL     1      30.835 -22.653 -14.106  0.00  0.00    -0.150 OA
ATOM     15  O   UNL     1      29.788 -24.923 -13.804  0.00  0.00    -0.150 OA
BRANCH  13  16
ATOM     16  C   UNL     1      28.683 -23.249 -15.446  0.00  0.00    +0.125 C 
ATOM     17  C   UNL     1      27.743 -22.560 -14.700  0.00  0.00    +0.020 C 
ATOM     18  C   UNL     1      28.494 -23.509 -16.792  0.00  0.00    +0.020 C 
ATOM     19  C   UNL     1      26.576 -22.115 -15.322  0.00  0.00    +0.001 C 
ATOM     20  C   UNL     1      27.327 -23.064 -17.413  0.00  0.00    +0.001 C 
ATOM     21  C   UNL     1      26.368 -22.367 -16.678  0.00  0.00    +0.000 C 
ENDBRANCH  13  16
ENDBRANCH  11  13
ENDBRANCH   7  11
BRANCH   4  22
ATOM     22  C   UNL     1      36.935 -21.301 -19.051  0.00  0.00    +0.101 C 
BRANCH  22  23
ATOM     23  C   UNL     1      36.391 -20.403 -20.156  0.00  0.00    -0.014 C 
ATOM     24  C   UNL     1      35.113 -20.622 -20.624  0.00  0.00    -0.004 C 
ATOM     25  C   UNL     1      37.197 -19.399 -20.654  0.00  0.00    -0.004 C 
ATOM     26  C   UNL     1      34.615 -19.799 -21.635  0.00  0.00    +0.002 C 
ATOM     27  C   UNL     1      36.700 -18.578 -21.665  0.00  0.00    +0.002 C 
ATOM     28  C   UNL     1      35.409 -18.778 -22.156  0.00  0.00    +0.031 C 
BRANCH  28  31
ATOM     29  N   UNL     1      35.202 -16.563 -23.260  0.00  0.00    -0.343 N 
ATOM     30  N   UNL     1      34.107 -18.428 -24.145  0.00  0.00    -0.285 NA
ATOM     31  C   UNL     1      34.891 -17.921 -23.211  0.00  0.00    +0.117 C 
ATOM     32  H   UNL     1      34.840 -16.001 -23.983  0.00  0.00    +0.144 HD
ATOM     33  H   UNL     1      35.783 -16.165 -22.572  0.00  0.00    +0.144 HD
ATOM     34  H   UNL     1      33.755 -17.850 -24.860  0.00  0.00    +0.188 HD
ENDBRANCH  28  31
ENDBRANCH  22  23
ENDBRANCH   4  22
TORSDOF 6
ENDMDL
