MODEL 1
REMARK VINA RESULT:     -12.5      0.000      0.000
REMARK  Name = 107971
REMARK  9 active torsions:
REMARK  status: ('A' for Active; 'I' for Inactive)
REMARK    1  A    between atoms: C_3  and  O_20
REMARK    2  A    between atoms: C_10  and  C_12
REMARK    3  A    between atoms: C_17  and  O_18
REMARK    4  A    between atoms: O_20  and  C_26
REMARK    5  A    between atoms: C_22  and  O_27
REMARK    6  A    between atoms: C_23  and  O_29
REMARK    7  A    between atoms: C_24  and  O_31
REMARK    8  A    between atoms: C_25  and  C_33
REMARK    9  A    between atoms: C_33  and  O_34
REMARK                            x       y       z     vdW  Elec       q    Type
REMARK                         _______ _______ _______ _____ _____    ______ ____
ROOT
ATOM      1  O   UNL     1      32.987 -21.544 -19.545  0.00  0.00    -0.450 OA
ATOM      2  O   UNL     1      36.700 -19.969 -20.156  0.00  0.00    -0.286 OA
ATOM      3  C   UNL     1      34.806 -23.306 -16.927  0.00  0.00    +0.144 C 
ATOM      4  C   UNL     1      33.774 -22.870 -17.757  0.00  0.00    +0.075 C 
ATOM      5  C   UNL     1      36.099 -22.811 -17.096  0.00  0.00    +0.037 C 
ATOM      6  C   UNL     1      34.039 -21.936 -18.759  0.00  0.00    +0.151 C 
ATOM      7  C   UNL     1      35.332 -21.441 -18.929  0.00  0.00    +0.074 C 
ATOM      8  C   UNL     1      36.367 -21.877 -18.098  0.00  0.00    +0.009 C 
ATOM      9  C   UNL     1      35.587 -20.452 -19.993  0.00  0.00    +0.202 C 
ATOM     10  C   UNL     1      34.421 -20.069 -20.835  0.00  0.00    +0.077 C 
ATOM     11  C   UNL     1      33.241 -20.637 -20.546  0.00  0.00    +0.183 C 
ENDROOT
BRANCH  10  12
ATOM     12  C   UNL     1      34.546 -19.120 -21.955  0.00  0.00    +0.006 C 
ATOM     13  C   UNL     1      35.049 -17.836 -21.733  0.00  0.00    +0.003 C 
ATOM     14  C   UNL     1      34.163 -19.503 -23.242  0.00  0.00    +0.003 C 
ATOM     15  C   UNL     1      35.167 -16.939 -22.794  0.00  0.00    +0.037 C 
ATOM     16  C   UNL     1      34.280 -18.605 -24.303  0.00  0.00    +0.037 C 
ATOM     17  C   UNL     1      34.782 -17.323 -24.079  0.00  0.00    +0.134 C 
BRANCH  17  18
ATOM     18  O   UNL     1      34.898 -16.446 -25.114  0.00  0.00    -0.506 OA
ATOM     19  H   UNL     1      34.661 -15.548 -24.995  0.00  0.00    +0.292 HD
ENDBRANCH  17  18
ENDBRANCH  10  12
BRANCH   3  20
ATOM     20  O   UNL     1      34.551 -24.220 -15.947  0.00  0.00    -0.450 OA
BRANCH  20  26
ATOM     21  O   UNL     1      36.480 -25.190 -15.064  0.00  0.00    -0.316 OA
ATOM     22  C   UNL     1      35.560 -24.779 -12.375  0.00  0.00    +0.173 C 
ATOM     23  C   UNL     1      36.743 -25.688 -12.706  0.00  0.00    +0.169 C 
ATOM     24  C   UNL     1      34.647 -24.595 -13.587  0.00  0.00    +0.210 C 
ATOM     25  C   UNL     1      37.430 -25.237 -13.998  0.00  0.00    +0.177 C 
ATOM     26  C   UNL     1      35.449 -24.233 -14.837  0.00  0.00    +0.318 C 
BRANCH  22  27
ATOM     27  O   UNL     1      34.822 -25.384 -11.312  0.00  0.00    -0.379 OA
ATOM     28  H   UNL     1      35.408 -25.964 -10.800  0.00  0.00    +0.211 HD
ENDBRANCH  22  27
BRANCH  23  29
ATOM     29  O   UNL     1      37.682 -25.648 -11.635  0.00  0.00    -0.379 OA
ATOM     30  H   UNL     1      37.243 -25.331 -10.831  0.00  0.00    +0.211 HD
ENDBRANCH  23  29
BRANCH  24  31
ATOM     31  O   UNL     1      33.722 -23.540 -13.328  0.00  0.00    -0.377 OA
ATOM     32  H   UNL     1      34.202 -22.701 -13.251  0.00  0.00    +0.211 HD
ENDBRANCH  24  31
BRANCH  25  33
ATOM     33  C   UNL     1      38.541 -26.196 -14.412  0.00  0.00    +0.169 C 
BRANCH  33  34
ATOM     34  O   UNL     1      38.114 -27.520 -14.148  0.00  0.00    -0.379 OA
ATOM     35  H   UNL     1      38.838 -28.018 -13.739  0.00  0.00    +0.211 HD
ENDBRANCH  33  34
ENDBRANCH  25  33
ENDBRANCH  20  26
ENDBRANCH   3  20
TORSDOF 9
ENDMDL
MODEL 2
REMARK VINA RESULT:     -12.3      1.076      2.016
REMARK  Name = 107971
REMARK  9 active torsions:
REMARK  status: ('A' for Active; 'I' for Inactive)
REMARK    1  A    between atoms: C_3  and  O_20
REMARK    2  A    between atoms: C_10  and  C_12
REMARK    3  A    between atoms: C_17  and  O_18
REMARK    4  A    between atoms: O_20  and  C_26
REMARK    5  A    between atoms: C_22  and  O_27
REMARK    6  A    between atoms: C_23  and  O_29
REMARK    7  A    between atoms: C_24  and  O_31
REMARK    8  A    between atoms: C_25  and  C_33
REMARK    9  A    between atoms: C_33  and  O_34
REMARK                            x       y       z     vdW  Elec       q    Type
REMARK                         _______ _______ _______ _____ _____    ______ ____
ROOT
ATOM      1  O   UNL     1      36.237 -21.885 -18.440  0.00  0.00    -0.450 OA
ATOM      2  O   UNL     1      32.602 -20.911 -20.015  0.00  0.00    -0.286 OA
ATOM      3  C   UNL     1      34.098 -23.822 -16.216  0.00  0.00    +0.144 C 
ATOM      4  C   UNL     1      35.230 -23.267 -16.811  0.00  0.00    +0.075 C 
ATOM      5  C   UNL     1      32.828 -23.516 -16.705  0.00  0.00    +0.037 C 
ATOM      6  C   UNL     1      35.089 -22.402 -17.897  0.00  0.00    +0.151 C 
ATOM      7  C   UNL     1      33.820 -22.095 -18.386  0.00  0.00    +0.074 C 
ATOM      8  C   UNL     1      32.684 -22.652 -17.791  0.00  0.00    +0.009 C 
ATOM      9  C   UNL     1      33.695 -21.182 -19.537  0.00  0.00    +0.202 C 
ATOM     10  C   UNL     1      34.964 -20.629 -20.084  0.00  0.00    +0.077 C 
ATOM     11  C   UNL     1      36.107 -21.020 -19.500  0.00  0.00    +0.183 C 
ENDROOT
BRANCH  10  12
ATOM     12  C   UNL     1      34.980 -19.677 -21.207  0.00  0.00    +0.006 C 
ATOM     13  C   UNL     1      34.611 -20.097 -22.487  0.00  0.00    +0.003 C 
ATOM     14  C   UNL     1      35.363 -18.351 -20.995  0.00  0.00    +0.003 C 
ATOM     15  C   UNL     1      34.625 -19.194 -23.550  0.00  0.00    +0.037 C 
ATOM     16  C   UNL     1      35.379 -17.449 -22.059  0.00  0.00    +0.037 C 
ATOM     17  C   UNL     1      35.010 -17.870 -23.337  0.00  0.00    +0.134 C 
BRANCH  17  18
ATOM     18  O   UNL     1      35.024 -16.990 -24.375  0.00  0.00    -0.506 OA
ATOM     19  H   UNL     1      34.242 -16.530 -24.609  0.00  0.00    +0.292 HD
ENDBRANCH  17  18
ENDBRANCH  10  12
BRANCH   3  20
ATOM     20  O   UNL     1      34.232 -24.666 -15.154  0.00  0.00    -0.450 OA
BRANCH  20  26
ATOM     21  O   UNL     1      36.397 -24.959 -14.335  0.00  0.00    -0.316 OA
ATOM     22  C   UNL     1      35.552 -24.390 -11.650  0.00  0.00    +0.173 C 
ATOM     23  C   UNL     1      36.915 -25.004 -11.967  0.00  0.00    +0.169 C 
ATOM     24  C   UNL     1      34.557 -24.637 -12.784  0.00  0.00    +0.210 C 
ATOM     25  C   UNL     1      37.382 -24.594 -13.367  0.00  0.00    +0.177 C 
ATOM     26  C   UNL     1      35.161 -24.277 -14.141  0.00  0.00    +0.318 C 
BRANCH  22  27
ATOM     27  O   UNL     1      35.064 -24.994 -10.451  0.00  0.00    -0.379 OA
ATOM     28  H   UNL     1      35.330 -25.927 -10.426  0.00  0.00    +0.211 HD
ENDBRANCH  22  27
BRANCH  23  29
ATOM     29  O   UNL     1      37.868 -24.559 -11.004  0.00  0.00    -0.379 OA
ATOM     30  H   UNL     1      37.425 -24.003 -10.345  0.00  0.00    +0.211 HD
ENDBRANCH  23  29
BRANCH  24  31
ATOM     31  O   UNL     1      33.398 -23.828 -12.582  0.00  0.00    -0.377 OA
ATOM     32  H   UNL     1      33.235 -23.294 -13.375  0.00  0.00    +0.211 HD
ENDBRANCH  24  31
BRANCH  25  33
ATOM     33  C   UNL     1      38.686 -25.287 -13.752  0.00  0.00    +0.169 C 
BRANCH  33  34
ATOM     34  O   UNL     1      38.722 -26.558 -13.127  0.00  0.00    -0.379 OA
ATOM     35  H   UNL     1      37.822 -26.914 -13.068  0.00  0.00    +0.211 HD
ENDBRANCH  33  34
ENDBRANCH  25  33
ENDBRANCH  20  26
ENDBRANCH   3  20
TORSDOF 9
ENDMDL
MODEL 3
REMARK VINA RESULT:     -11.8      1.353      3.251
REMARK  Name = 107971
REMARK  9 active torsions:
REMARK  status: ('A' for Active; 'I' for Inactive)
REMARK    1  A    between atoms: C_3  and  O_20
REMARK    2  A    between atoms: C_10  and  C_12
REMARK    3  A    between atoms: C_17  and  O_18
REMARK    4  A    between atoms: O_20  and  C_26
REMARK    5  A    between atoms: C_22  and  O_27
REMARK    6  A    between atoms: C_23  and  O_29
REMARK    7  A    between atoms: C_24  and  O_31
REMARK    8  A    between atoms: C_25  and  C_33
REMARK    9  A    between atoms: C_33  and  O_34
REMARK                            x       y       z     vdW  Elec       q    Type
REMARK                         _______ _______ _______ _____ _____    ______ ____
ROOT
ATOM      1  O   UNL     1      36.998 -19.924 -19.869  0.00  0.00    -0.450 OA
ATOM      2  O   UNL     1      33.180 -20.304 -21.257  0.00  0.00    -0.286 OA
ATOM      3  C   UNL     1      35.789 -22.472 -17.563  0.00  0.00    +0.144 C 
ATOM      4  C   UNL     1      36.622 -21.558 -18.207  0.00  0.00    +0.075 C 
ATOM      5  C   UNL     1      34.470 -22.637 -17.988  0.00  0.00    +0.037 C 
ATOM      6  C   UNL     1      36.133 -20.807 -19.276  0.00  0.00    +0.151 C 
ATOM      7  C   UNL     1      34.815 -20.971 -19.700  0.00  0.00    +0.074 C 
ATOM      8  C   UNL     1      33.978 -21.887 -19.057  0.00  0.00    +0.009 C 
ATOM      9  C   UNL     1      34.321 -20.169 -20.835  0.00  0.00    +0.202 C 
ATOM     10  C   UNL     1      35.286 -19.209 -21.437  0.00  0.00    +0.077 C 
ATOM     11  C   UNL     1      36.520 -19.168 -20.912  0.00  0.00    +0.183 C 
ENDROOT
BRANCH  10  12
ATOM     12  C   UNL     1      34.911 -18.321 -22.550  0.00  0.00    +0.006 C 
ATOM     13  C   UNL     1      34.316 -18.849 -23.698  0.00  0.00    +0.003 C 
ATOM     14  C   UNL     1      35.148 -16.947 -22.461  0.00  0.00    +0.003 C 
ATOM     15  C   UNL     1      33.960 -18.008 -24.752  0.00  0.00    +0.037 C 
ATOM     16  C   UNL     1      34.793 -16.106 -23.516  0.00  0.00    +0.037 C 
ATOM     17  C   UNL     1      34.199 -16.636 -24.661  0.00  0.00    +0.134 C 
BRANCH  17  18
ATOM     18  O   UNL     1      33.853 -15.816 -25.690  0.00  0.00    -0.506 OA
ATOM     19  H   UNL     1      33.391 -15.018 -25.517  0.00  0.00    +0.292 HD
ENDBRANCH  17  18
ENDBRANCH  10  12
BRANCH   3  20
ATOM     20  O   UNL     1      36.263 -23.207 -16.517  0.00  0.00    -0.450 OA
BRANCH  20  26
ATOM     21  O   UNL     1      34.254 -23.184 -15.332  0.00  0.00    -0.316 OA
ATOM     22  C   UNL     1      35.055 -25.449 -13.760  0.00  0.00    +0.173 C 
ATOM     23  C   UNL     1      33.853 -24.580 -13.392  0.00  0.00    +0.169 C 
ATOM     24  C   UNL     1      36.034 -24.689 -14.654  0.00  0.00    +0.210 C 
ATOM     25  C   UNL     1      33.251 -23.929 -14.640  0.00  0.00    +0.177 C 
ATOM     26  C   UNL     1      35.311 -24.008 -15.816  0.00  0.00    +0.318 C 
BRANCH  22  27
ATOM     27  O   UNL     1      35.713 -25.829 -12.550  0.00  0.00    -0.379 OA
ATOM     28  H   UNL     1      36.214 -26.646 -12.696  0.00  0.00    +0.211 HD
ENDBRANCH  22  27
BRANCH  23  29
ATOM     29  O   UNL     1      32.864 -25.388 -12.758  0.00  0.00    -0.379 OA
ATOM     30  H   UNL     1      32.011 -24.926 -12.774  0.00  0.00    +0.211 HD
ENDBRANCH  23  29
BRANCH  24  31
ATOM     31  O   UNL     1      36.988 -25.602 -15.195  0.00  0.00    -0.377 OA
ATOM     32  H   UNL     1      37.436 -25.191 -15.951  0.00  0.00    +0.211 HD
ENDBRANCH  24  31
BRANCH  25  33
ATOM     33  C   UNL     1      32.122 -22.966 -14.285  0.00  0.00    +0.169 C 
BRANCH  33  34
ATOM     34  O   UNL     1      32.103 -22.793 -12.880  0.00  0.00    -0.379 OA
ATOM     35  H   UNL     1      31.513 -22.058 -12.654  0.00  0.00    +0.211 HD
ENDBRANCH  33  34
ENDBRANCH  25  33
ENDBRANCH  20  26
ENDBRANCH   3  20
TORSDOF 9
ENDMDL
MODEL 4
REMARK VINA RESULT:     -11.3      1.618      2.500
REMARK  Name = 107971
REMARK  9 active torsions:
REMARK  status: ('A' for Active; 'I' for Inactive)
REMARK    1  A    between atoms: C_3  and  O_20
REMARK    2  A    between atoms: C_10  and  C_12
REMARK    3  A    between atoms: C_17  and  O_18
REMARK    4  A    between atoms: O_20  and  C_26
REMARK    5  A    between atoms: C_22  and  O_27
REMARK    6  A    between atoms: C_23  and  O_29
REMARK    7  A    between atoms: C_24  and  O_31
REMARK    8  A    between atoms: C_25  and  C_33
REMARK    9  A    between atoms: C_33  and  O_34
REMARK                            x       y       z     vdW  Elec       q    Type
REMARK                         _______ _______ _______ _____ _____    ______ ____
ROOT
ATOM      1  O   UNL     1      36.546 -20.766 -19.634  0.00  0.00    -0.450 OA
ATOM      2  O   UNL     1      32.750 -20.096 -20.969  0.00  0.00    -0.286 OA
ATOM      3  C   UNL     1      34.760 -23.151 -17.537  0.00  0.00    +0.144 C 
ATOM      4  C   UNL     1      35.789 -22.407 -18.114  0.00  0.00    +0.075 C 
ATOM      5  C   UNL     1      33.440 -22.956 -17.946  0.00  0.00    +0.037 C 
ATOM      6  C   UNL     1      35.495 -21.468 -19.103  0.00  0.00    +0.151 C 
ATOM      7  C   UNL     1      34.176 -21.273 -19.512  0.00  0.00    +0.074 C 
ATOM      8  C   UNL     1      33.143 -22.017 -18.934  0.00  0.00    +0.009 C 
ATOM      9  C   UNL     1      33.889 -20.277 -20.561  0.00  0.00    +0.202 C 
ATOM     10  C   UNL     1      35.057 -19.524 -21.096  0.00  0.00    +0.077 C 
ATOM     11  C   UNL     1      36.265 -19.827 -20.596  0.00  0.00    +0.183 C 
ENDROOT
BRANCH  10  12
ATOM     12  C   UNL     1      34.906 -18.476 -22.118  0.00  0.00    +0.006 C 
ATOM     13  C   UNL     1      34.527 -18.814 -23.420  0.00  0.00    +0.003 C 
ATOM     14  C   UNL     1      35.141 -17.138 -21.790  0.00  0.00    +0.003 C 
ATOM     15  C   UNL     1      34.384 -17.820 -24.387  0.00  0.00    +0.037 C 
ATOM     16  C   UNL     1      34.999 -16.145 -22.758  0.00  0.00    +0.037 C 
ATOM     17  C   UNL     1      34.621 -16.485 -24.057  0.00  0.00    +0.134 C 
BRANCH  17  18
ATOM     18  O   UNL     1      34.481 -15.515 -25.002  0.00  0.00    -0.506 OA
ATOM     19  H   UNL     1      33.640 -15.346 -25.378  0.00  0.00    +0.292 HD
ENDBRANCH  17  18
ENDBRANCH  10  12
BRANCH   3  20
ATOM     20  O   UNL     1      35.044 -24.069 -16.570  0.00  0.00    -0.450 OA
BRANCH  20  26
ATOM     21  O   UNL     1      36.120 -23.800 -14.517  0.00  0.00    -0.316 OA
ATOM     22  C   UNL     1      33.665 -24.199 -13.080  0.00  0.00    +0.173 C 
ATOM     23  C   UNL     1      35.031 -24.225 -12.393  0.00  0.00    +0.169 C 
ATOM     24  C   UNL     1      33.793 -24.492 -14.575  0.00  0.00    +0.210 C 
ATOM     25  C   UNL     1      36.039 -23.364 -13.159  0.00  0.00    +0.177 C 
ATOM     26  C   UNL     1      34.888 -23.640 -15.217  0.00  0.00    +0.318 C 
BRANCH  22  27
ATOM     27  O   UNL     1      32.845 -25.197 -12.469  0.00  0.00    -0.379 OA
ATOM     28  H   UNL     1      32.825 -25.056 -11.510  0.00  0.00    +0.211 HD
ENDBRANCH  22  27
BRANCH  23  29
ATOM     29  O   UNL     1      34.899 -23.726 -11.065  0.00  0.00    -0.379 OA
ATOM     30  H   UNL     1      34.803 -22.761 -11.090  0.00  0.00    +0.211 HD
ENDBRANCH  23  29
BRANCH  24  31
ATOM     31  O   UNL     1      32.557 -24.192 -15.223  0.00  0.00    -0.377 OA
ATOM     32  H   UNL     1      32.726 -23.960 -16.150  0.00  0.00    +0.211 HD
ENDBRANCH  24  31
BRANCH  25  33
ATOM     33  C   UNL     1      37.438 -23.466 -12.559  0.00  0.00    +0.169 C 
BRANCH  33  34
ATOM     34  O   UNL     1      37.568 -22.480 -11.551  0.00  0.00    -0.379 OA
ATOM     35  H   UNL     1      36.694 -22.117 -11.340  0.00  0.00    +0.211 HD
ENDBRANCH  33  34
ENDBRANCH  25  33
ENDBRANCH  20  26
ENDBRANCH   3  20
TORSDOF 9
ENDMDL
MODEL 5
REMARK VINA RESULT:     -11.3      1.719     10.240
REMARK  Name = 107971
REMARK  9 active torsions:
REMARK  status: ('A' for Active; 'I' for Inactive)
REMARK    1  A    between atoms: C_3  and  O_20
REMARK    2  A    between atoms: C_10  and  C_12
REMARK    3  A    between atoms: C_17  and  O_18
REMARK    4  A    between atoms: O_20  and  C_26
REMARK    5  A    between atoms: C_22  and  O_27
REMARK    6  A    between atoms: C_23  and  O_29
REMARK    7  A    between atoms: C_24  and  O_31
REMARK    8  A    between atoms: C_25  and  C_33
REMARK    9  A    between atoms: C_33  and  O_34
REMARK                            x       y       z     vdW  Elec       q    Type
REMARK                         _______ _______ _______ _____ _____    ______ ____
ROOT
ATOM      1  O   UNL     1      33.427 -23.094 -17.431  0.00  0.00    -0.450 OA
ATOM      2  O   UNL     1      37.332 -22.737 -16.306  0.00  0.00    -0.286 OA
ATOM      3  C   UNL     1      34.635 -21.014 -20.167  0.00  0.00    +0.144 C 
ATOM      4  C   UNL     1      33.794 -21.771 -19.352  0.00  0.00    +0.075 C 
ATOM      5  C   UNL     1      35.978 -20.848 -19.826  0.00  0.00    +0.037 C 
ATOM      6  C   UNL     1      34.300 -22.361 -18.193  0.00  0.00    +0.151 C 
ATOM      7  C   UNL     1      35.642 -22.196 -17.852  0.00  0.00    +0.074 C 
ATOM      8  C   UNL     1      36.486 -21.438 -18.668  0.00  0.00    +0.009 C 
ATOM      9  C   UNL     1      36.155 -22.833 -16.626  0.00  0.00    +0.202 C 
ATOM     10  C   UNL     1      35.169 -23.602 -15.817  0.00  0.00    +0.077 C 
ATOM     11  C   UNL     1      33.912 -23.666 -16.279  0.00  0.00    +0.183 C 
ENDROOT
BRANCH  10  12
ATOM     12  C   UNL     1      35.540 -24.255 -14.551  0.00  0.00    +0.006 C 
ATOM     13  C   UNL     1      36.404 -25.353 -14.555  0.00  0.00    +0.003 C 
ATOM     14  C   UNL     1      35.030 -23.779 -13.341  0.00  0.00    +0.003 C 
ATOM     15  C   UNL     1      36.755 -25.971 -13.355  0.00  0.00    +0.037 C 
ATOM     16  C   UNL     1      35.381 -24.398 -12.141  0.00  0.00    +0.037 C 
ATOM     17  C   UNL     1      36.244 -25.494 -12.148  0.00  0.00    +0.134 C 
BRANCH  17  18
ATOM     18  O   UNL     1      36.586 -26.097 -10.977  0.00  0.00    -0.506 OA
ATOM     19  H   UNL     1      37.463 -26.026 -10.653  0.00  0.00    +0.292 HD
ENDBRANCH  17  18
ENDBRANCH  10  12
BRANCH   3  20
ATOM     20  O   UNL     1      34.144 -20.434 -21.299  0.00  0.00    -0.450 OA
BRANCH  20  26
ATOM     21  O   UNL     1      34.483 -18.149 -20.968  0.00  0.00    -0.316 OA
ATOM     22  C   UNL     1      34.993 -17.732 -23.764  0.00  0.00    +0.173 C 
ATOM     23  C   UNL     1      34.737 -16.577 -22.796  0.00  0.00    +0.169 C 
ATOM     24  C   UNL     1      34.419 -19.042 -23.225  0.00  0.00    +0.210 C 
ATOM     25  C   UNL     1      35.157 -16.957 -21.374  0.00  0.00    +0.177 C 
ATOM     26  C   UNL     1      34.831 -19.274 -21.771  0.00  0.00    +0.318 C 
BRANCH  22  27
ATOM     27  O   UNL     1      34.366 -17.414 -25.007  0.00  0.00    -0.379 OA
ATOM     28  H   UNL     1      33.626 -16.807 -24.851  0.00  0.00    +0.211 HD
ENDBRANCH  22  27
BRANCH  23  29
ATOM     29  O   UNL     1      35.479 -15.435 -23.217  0.00  0.00    -0.379 OA
ATOM     30  H   UNL     1      34.922 -14.645 -23.150  0.00  0.00    +0.211 HD
ENDBRANCH  23  29
BRANCH  24  31
ATOM     31  O   UNL     1      34.909 -20.131 -24.007  0.00  0.00    -0.377 OA
ATOM     32  H   UNL     1      34.541 -20.077 -24.903  0.00  0.00    +0.211 HD
ENDBRANCH  24  31
BRANCH  25  33
ATOM     33  C   UNL     1      34.804 -15.863 -20.370  0.00  0.00    +0.169 C 
BRANCH  33  34
ATOM     34  O   UNL     1      33.998 -14.898 -21.021  0.00  0.00    -0.379 OA
ATOM     35  H   UNL     1      34.542 -14.389 -21.641  0.00  0.00    +0.211 HD
ENDBRANCH  33  34
ENDBRANCH  25  33
ENDBRANCH  20  26
ENDBRANCH   3  20
TORSDOF 9
ENDMDL
MODEL 6
REMARK VINA RESULT:     -11.0      1.437      1.910
REMARK  Name = 107971
REMARK  9 active torsions:
REMARK  status: ('A' for Active; 'I' for Inactive)
REMARK    1  A    between atoms: C_3  and  O_20
REMARK    2  A    between atoms: C_10  and  C_12
REMARK    3  A    between atoms: C_17  and  O_18
REMARK    4  A    between atoms: O_20  and  C_26
REMARK    5  A    between atoms: C_22  and  O_27
REMARK    6  A    between atoms: C_23  and  O_29
REMARK    7  A    between atoms: C_24  and  O_31
REMARK    8  A    between atoms: C_25  and  C_33
REMARK    9  A    between atoms: C_33  and  O_34
REMARK                            x       y       z     vdW  Elec       q    Type
REMARK                         _______ _______ _______ _____ _____    ______ ____
ROOT
ATOM      1  O   UNL     1      33.291 -21.396 -19.979  0.00  0.00    -0.450 OA
ATOM      2  O   UNL     1      36.825 -19.403 -20.410  0.00  0.00    -0.286 OA
ATOM      3  C   UNL     1      35.236 -23.095 -17.409  0.00  0.00    +0.144 C 
ATOM      4  C   UNL     1      34.181 -22.726 -18.243  0.00  0.00    +0.075 C 
ATOM      5  C   UNL     1      36.472 -22.455 -17.519  0.00  0.00    +0.037 C 
ATOM      6  C   UNL     1      34.364 -21.716 -19.188  0.00  0.00    +0.151 C 
ATOM      7  C   UNL     1      35.599 -21.077 -19.298  0.00  0.00    +0.074 C 
ATOM      8  C   UNL     1      36.658 -21.445 -18.464  0.00  0.00    +0.009 C 
ATOM      9  C   UNL     1      35.767 -20.010 -20.301  0.00  0.00    +0.202 C 
ATOM     10  C   UNL     1      34.584 -19.708 -21.153  0.00  0.00    +0.077 C 
ATOM     11  C   UNL     1      33.467 -20.414 -20.924  0.00  0.00    +0.183 C 
ENDROOT
BRANCH  10  12
ATOM     12  C   UNL     1      34.629 -18.692 -22.218  0.00  0.00    +0.006 C 
ATOM     13  C   UNL     1      34.243 -19.023 -23.519  0.00  0.00    +0.003 C 
ATOM     14  C   UNL     1      35.057 -17.394 -21.930  0.00  0.00    +0.003 C 
ATOM     15  C   UNL     1      34.286 -18.060 -24.527  0.00  0.00    +0.037 C 
ATOM     16  C   UNL     1      35.101 -16.432 -22.939  0.00  0.00    +0.037 C 
ATOM     17  C   UNL     1      34.715 -16.765 -24.237  0.00  0.00    +0.134 C 
BRANCH  17  18
ATOM     18  O   UNL     1      34.757 -15.826 -25.222  0.00  0.00    -0.506 OA
ATOM     19  H   UNL     1      35.423 -15.167 -25.211  0.00  0.00    +0.292 HD
ENDBRANCH  17  18
ENDBRANCH  10  12
BRANCH   3  20
ATOM     20  O   UNL     1      35.062 -24.082 -16.486  0.00  0.00    -0.450 OA
BRANCH  20  26
ATOM     21  O   UNL     1      36.175 -23.960 -14.439  0.00  0.00    -0.316 OA
ATOM     22  C   UNL     1      33.706 -24.161 -12.986  0.00  0.00    +0.173 C 
ATOM     23  C   UNL     1      35.068 -24.328 -12.314  0.00  0.00    +0.169 C 
ATOM     24  C   UNL     1      33.793 -24.431 -14.488  0.00  0.00    +0.210 C 
ATOM     25  C   UNL     1      36.147 -23.548 -13.071  0.00  0.00    +0.177 C 
ATOM     26  C   UNL     1      34.958 -23.670 -15.122  0.00  0.00    +0.318 C 
BRANCH  22  27
ATOM     27  O   UNL     1      32.801 -25.092 -12.388  0.00  0.00    -0.379 OA
ATOM     28  H   UNL     1      33.158 -25.387 -11.535  0.00  0.00    +0.211 HD
ENDBRANCH  22  27
BRANCH  23  29
ATOM     29  O   UNL     1      34.995 -23.849 -10.973  0.00  0.00    -0.379 OA
ATOM     30  H   UNL     1      35.068 -22.882 -10.972  0.00  0.00    +0.211 HD
ENDBRANCH  23  29
BRANCH  24  31
ATOM     31  O   UNL     1      32.585 -24.004 -15.117  0.00  0.00    -0.377 OA
ATOM     32  H   UNL     1      31.984 -23.641 -14.449  0.00  0.00    +0.211 HD
ENDBRANCH  24  31
BRANCH  25  33
ATOM     33  C   UNL     1      37.535 -23.793 -12.487  0.00  0.00    +0.169 C 
BRANCH  33  34
ATOM     34  O   UNL     1      37.832 -22.747 -11.580  0.00  0.00    -0.379 OA
ATOM     35  H   UNL     1      37.361 -21.943 -11.849  0.00  0.00    +0.211 HD
ENDBRANCH  33  34
ENDBRANCH  25  33
ENDBRANCH  20  26
ENDBRANCH   3  20
TORSDOF 9
ENDMDL
MODEL 7
REMARK VINA RESULT:     -10.5      1.245      2.396
REMARK  Name = 107971
REMARK  9 active torsions:
REMARK  status: ('A' for Active; 'I' for Inactive)
REMARK    1  A    between atoms: C_3  and  O_20
REMARK    2  A    between atoms: C_10  and  C_12
REMARK    3  A    between atoms: C_17  and  O_18
REMARK    4  A    between atoms: O_20  and  C_26
REMARK    5  A    between atoms: C_22  and  O_27
REMARK    6  A    between atoms: C_23  and  O_29
REMARK    7  A    between atoms: C_24  and  O_31
REMARK    8  A    between atoms: C_25  and  C_33
REMARK    9  A    between atoms: C_33  and  O_34
REMARK                            x       y       z     vdW  Elec       q    Type
REMARK                         _______ _______ _______ _____ _____    ______ ____
ROOT
ATOM      1  O   UNL     1      32.907 -22.088 -18.902  0.00  0.00    -0.450 OA
ATOM      2  O   UNL     1      36.653 -20.510 -19.261  0.00  0.00    -0.286 OA
ATOM      3  C   UNL     1      34.538 -23.820 -16.143  0.00  0.00    +0.144 C 
ATOM      4  C   UNL     1      33.568 -23.394 -17.049  0.00  0.00    +0.075 C 
ATOM      5  C   UNL     1      35.839 -23.323 -16.225  0.00  0.00    +0.037 C 
ATOM      6  C   UNL     1      33.902 -22.470 -18.039  0.00  0.00    +0.151 C 
ATOM      7  C   UNL     1      35.202 -21.973 -18.121  0.00  0.00    +0.074 C 
ATOM      8  C   UNL     1      36.176 -22.398 -17.214  0.00  0.00    +0.009 C 
ATOM      9  C   UNL     1      35.531 -20.994 -19.173  0.00  0.00    +0.202 C 
ATOM     10  C   UNL     1      34.427 -20.621 -20.100  0.00  0.00    +0.077 C 
ATOM     11  C   UNL     1      33.231 -21.190 -19.890  0.00  0.00    +0.183 C 
ENDROOT
BRANCH  10  12
ATOM     12  C   UNL     1      34.631 -19.684 -21.217  0.00  0.00    +0.006 C 
ATOM     13  C   UNL     1      34.273 -20.052 -22.516  0.00  0.00    +0.003 C 
ATOM     14  C   UNL     1      35.182 -18.422 -20.981  0.00  0.00    +0.003 C 
ATOM     15  C   UNL     1      34.466 -19.164 -23.573  0.00  0.00    +0.037 C 
ATOM     16  C   UNL     1      35.376 -17.534 -22.039  0.00  0.00    +0.037 C 
ATOM     17  C   UNL     1      35.018 -17.905 -23.335  0.00  0.00    +0.134 C 
BRANCH  17  18
ATOM     18  O   UNL     1      35.206 -17.038 -24.368  0.00  0.00    -0.506 OA
ATOM     19  H   UNL     1      34.702 -17.128 -25.152  0.00  0.00    +0.292 HD
ENDBRANCH  17  18
ENDBRANCH  10  12
BRANCH   3  20
ATOM     20  O   UNL     1      34.215 -24.725 -15.175  0.00  0.00    -0.450 OA
BRANCH  20  26
ATOM     21  O   UNL     1      35.741 -23.938 -13.595  0.00  0.00    -0.316 OA
ATOM     22  C   UNL     1      37.602 -26.035 -14.221  0.00  0.00    +0.173 C 
ATOM     23  C   UNL     1      37.992 -24.814 -13.388  0.00  0.00    +0.169 C 
ATOM     24  C   UNL     1      36.378 -25.743 -15.090  0.00  0.00    +0.210 C 
ATOM     25  C   UNL     1      36.774 -24.244 -12.656  0.00  0.00    +0.177 C 
ATOM     26  C   UNL     1      35.259 -25.095 -14.274  0.00  0.00    +0.318 C 
BRANCH  22  27
ATOM     27  O   UNL     1      38.709 -26.371 -15.059  0.00  0.00    -0.379 OA
ATOM     28  H   UNL     1      39.491 -26.540 -14.509  0.00  0.00    +0.211 HD
ENDBRANCH  22  27
BRANCH  23  29
ATOM     29  O   UNL     1      38.980 -25.192 -12.433  0.00  0.00    -0.379 OA
ATOM     30  H   UNL     1      39.689 -24.530 -12.421  0.00  0.00    +0.211 HD
ENDBRANCH  23  29
BRANCH  24  31
ATOM     31  O   UNL     1      35.883 -26.965 -15.636  0.00  0.00    -0.377 OA
ATOM     32  H   UNL     1      35.537 -27.522 -14.921  0.00  0.00    +0.211 HD
ENDBRANCH  24  31
BRANCH  25  33
ATOM     33  C   UNL     1      37.115 -22.958 -11.911  0.00  0.00    +0.169 C 
BRANCH  33  34
ATOM     34  O   UNL     1      37.468 -23.289 -10.580  0.00  0.00    -0.379 OA
ATOM     35  H   UNL     1      38.430 -23.392 -10.518  0.00  0.00    +0.211 HD
ENDBRANCH  33  34
ENDBRANCH  25  33
ENDBRANCH  20  26
ENDBRANCH   3  20
TORSDOF 9
ENDMDL
MODEL 8
REMARK VINA RESULT:     -10.4      1.850      3.543
REMARK  Name = 107971
REMARK  9 active torsions:
REMARK  status: ('A' for Active; 'I' for Inactive)
REMARK    1  A    between atoms: C_3  and  O_20
REMARK    2  A    between atoms: C_10  and  C_12
REMARK    3  A    between atoms: C_17  and  O_18
REMARK    4  A    between atoms: O_20  and  C_26
REMARK    5  A    between atoms: C_22  and  O_27
REMARK    6  A    between atoms: C_23  and  O_29
REMARK    7  A    between atoms: C_24  and  O_31
REMARK    8  A    between atoms: C_25  and  C_33
REMARK    9  A    between atoms: C_33  and  O_34
REMARK                            x       y       z     vdW  Elec       q    Type
REMARK                         _______ _______ _______ _____ _____    ______ ____
ROOT
ATOM      1  O   UNL     1      33.457 -21.429 -19.565  0.00  0.00    -0.450 OA
ATOM      2  O   UNL     1      36.970 -19.516 -20.364  0.00  0.00    -0.286 OA
ATOM      3  C   UNL     1      35.532 -22.907 -16.961  0.00  0.00    +0.144 C 
ATOM      4  C   UNL     1      34.434 -22.605 -17.766  0.00  0.00    +0.075 C 
ATOM      5  C   UNL     1      36.763 -22.292 -17.195  0.00  0.00    +0.037 C 
ATOM      6  C   UNL     1      34.570 -21.686 -18.807  0.00  0.00    +0.151 C 
ATOM      7  C   UNL     1      35.799 -21.071 -19.041  0.00  0.00    +0.074 C 
ATOM      8  C   UNL     1      36.901 -21.372 -18.235  0.00  0.00    +0.009 C 
ATOM      9  C   UNL     1      35.918 -20.100 -20.144  0.00  0.00    +0.202 C 
ATOM     10  C   UNL     1      34.691 -19.865 -20.954  0.00  0.00    +0.077 C 
ATOM     11  C   UNL     1      33.584 -20.537 -20.603  0.00  0.00    +0.183 C 
ENDROOT
BRANCH  10  12
ATOM     12  C   UNL     1      34.682 -18.950 -22.107  0.00  0.00    +0.006 C 
ATOM     13  C   UNL     1      34.256 -19.402 -23.358  0.00  0.00    +0.003 C 
ATOM     14  C   UNL     1      35.099 -17.625 -21.953  0.00  0.00    +0.003 C 
ATOM     15  C   UNL     1      34.248 -18.534 -24.450  0.00  0.00    +0.037 C 
ATOM     16  C   UNL     1      35.091 -16.758 -23.045  0.00  0.00    +0.037 C 
ATOM     17  C   UNL     1      34.666 -17.212 -24.294  0.00  0.00    +0.134 C 
BRANCH  17  18
ATOM     18  O   UNL     1      34.658 -16.365 -25.360  0.00  0.00    -0.506 OA
ATOM     19  H   UNL     1      34.453 -16.691 -26.214  0.00  0.00    +0.292 HD
ENDBRANCH  17  18
ENDBRANCH  10  12
BRANCH   3  20
ATOM     20  O   UNL     1      35.404 -23.806 -15.944  0.00  0.00    -0.450 OA
BRANCH  20  26
ATOM     21  O   UNL     1      33.118 -23.341 -15.981  0.00  0.00    -0.316 OA
ATOM     22  C   UNL     1      32.605 -25.269 -13.915  0.00  0.00    +0.173 C 
ATOM     23  C   UNL     1      31.566 -24.235 -14.347  0.00  0.00    +0.169 C 
ATOM     24  C   UNL     1      34.019 -24.816 -14.275  0.00  0.00    +0.210 C 
ATOM     25  C   UNL     1      31.784 -23.822 -15.806  0.00  0.00    +0.177 C 
ATOM     26  C   UNL     1      34.099 -24.344 -15.727  0.00  0.00    +0.318 C 
BRANCH  22  27
ATOM     27  O   UNL     1      32.504 -25.431 -12.499  0.00  0.00    -0.379 OA
ATOM     28  H   UNL     1      31.837 -26.106 -12.297  0.00  0.00    +0.211 HD
ENDBRANCH  22  27
BRANCH  23  29
ATOM     29  O   UNL     1      30.260 -24.790 -14.206  0.00  0.00    -0.379 OA
ATOM     30  H   UNL     1      30.130 -25.482 -14.873  0.00  0.00    +0.211 HD
ENDBRANCH  23  29
BRANCH  24  31
ATOM     31  O   UNL     1      34.923 -25.908 -14.110  0.00  0.00    -0.377 OA
ATOM     32  H   UNL     1      35.828 -25.569 -14.028  0.00  0.00    +0.211 HD
ENDBRANCH  24  31
BRANCH  25  33
ATOM     33  C   UNL     1      30.833 -22.706 -16.225  0.00  0.00    +0.169 C 
BRANCH  33  34
ATOM     34  O   UNL     1      29.579 -23.281 -16.546  0.00  0.00    -0.379 OA
ATOM     35  H   UNL     1      29.006 -23.261 -15.764  0.00  0.00    +0.211 HD
ENDBRANCH  33  34
ENDBRANCH  25  33
ENDBRANCH  20  26
ENDBRANCH   3  20
TORSDOF 9
ENDMDL
MODEL 9
REMARK VINA RESULT:     -10.3      2.182     10.355
REMARK  Name = 107971
REMARK  9 active torsions:
REMARK  status: ('A' for Active; 'I' for Inactive)
REMARK    1  A    between atoms: C_3  and  O_20
REMARK    2  A    between atoms: C_10  and  C_12
REMARK    3  A    between atoms: C_17  and  O_18
REMARK    4  A    between atoms: O_20  and  C_26
REMARK    5  A    between atoms: C_22  and  O_27
REMARK    6  A    between atoms: C_23  and  O_29
REMARK    7  A    between atoms: C_24  and  O_31
REMARK    8  A    between atoms: C_25  and  C_33
REMARK    9  A    between atoms: C_33  and  O_34
REMARK                            x       y       z     vdW  Elec       q    Type
REMARK                         _______ _______ _______ _____ _____    ______ ____
ROOT
ATOM      1  O   UNL     1      33.320 -21.101 -20.209  0.00  0.00    -0.450 OA
ATOM      2  O   UNL     1      36.841 -21.537 -18.195  0.00  0.00    -0.286 OA
ATOM      3  C   UNL     1      35.444 -18.987 -22.282  0.00  0.00    +0.144 C 
ATOM      4  C   UNL     1      34.331 -19.669 -21.792  0.00  0.00    +0.075 C 
ATOM      5  C   UNL     1      36.672 -19.090 -21.627  0.00  0.00    +0.037 C 
ATOM      6  C   UNL     1      34.448 -20.454 -20.645  0.00  0.00    +0.151 C 
ATOM      7  C   UNL     1      35.675 -20.557 -19.990  0.00  0.00    +0.074 C 
ATOM      8  C   UNL     1      36.792 -19.875 -20.480  0.00  0.00    +0.009 C 
ATOM      9  C   UNL     1      35.776 -21.396 -18.782  0.00  0.00    +0.202 C 
ATOM     10  C   UNL     1      34.524 -22.064 -18.333  0.00  0.00    +0.077 C 
ATOM     11  C   UNL     1      33.422 -21.864 -19.071  0.00  0.00    +0.183 C 
ENDROOT
BRANCH  10  12
ATOM     12  C   UNL     1      34.477 -22.899 -17.121  0.00  0.00    +0.006 C 
ATOM     13  C   UNL     1      35.631 -23.089 -16.355  0.00  0.00    +0.003 C 
ATOM     14  C   UNL     1      33.279 -23.503 -16.732  0.00  0.00    +0.003 C 
ATOM     15  C   UNL     1      35.585 -23.879 -15.207  0.00  0.00    +0.037 C 
ATOM     16  C   UNL     1      33.235 -24.294 -15.584  0.00  0.00    +0.037 C 
ATOM     17  C   UNL     1      34.388 -24.483 -14.822  0.00  0.00    +0.134 C 
BRANCH  17  18
ATOM     18  O   UNL     1      34.345 -25.254 -13.702  0.00  0.00    -0.506 OA
ATOM     19  H   UNL     1      35.141 -25.542 -13.300  0.00  0.00    +0.292 HD
ENDBRANCH  17  18
ENDBRANCH  10  12
BRANCH   3  20
ATOM     20  O   UNL     1      35.333 -18.218 -23.402  0.00  0.00    -0.450 OA
BRANCH  20  26
ATOM     21  O   UNL     1      34.766 -16.555 -21.866  0.00  0.00    -0.316 OA
ATOM     22  C   UNL     1      33.867 -14.807 -23.960  0.00  0.00    +0.173 C 
ATOM     23  C   UNL     1      33.559 -14.546 -22.486  0.00  0.00    +0.169 C 
ATOM     24  C   UNL     1      34.180 -16.282 -24.207  0.00  0.00    +0.210 C 
ATOM     25  C   UNL     1      34.638 -15.160 -21.589  0.00  0.00    +0.177 C 
ATOM     26  C   UNL     1      35.201 -16.810 -23.199  0.00  0.00    +0.318 C 
BRANCH  22  27
ATOM     27  O   UNL     1      32.721 -14.430 -24.724  0.00  0.00    -0.379 OA
ATOM     28  H   UNL     1      31.972 -14.273 -24.128  0.00  0.00    +0.211 HD
ENDBRANCH  22  27
BRANCH  23  29
ATOM     29  O   UNL     1      33.502 -13.140 -22.258  0.00  0.00    -0.379 OA
ATOM     30  H   UNL     1      34.043 -12.915 -21.485  0.00  0.00    +0.211 HD
ENDBRANCH  23  29
BRANCH  24  31
ATOM     31  O   UNL     1      34.724 -16.439 -25.517  0.00  0.00    -0.377 OA
ATOM     32  H   UNL     1      34.295 -17.189 -25.958  0.00  0.00    +0.211 HD
ENDBRANCH  24  31
BRANCH  25  33
ATOM     33  C   UNL     1      34.293 -15.013 -20.110  0.00  0.00    +0.169 C 
BRANCH  33  34
ATOM     34  O   UNL     1      32.958 -14.553 -20.003  0.00  0.00    -0.379 OA
ATOM     35  H   UNL     1      32.403 -15.257 -19.631  0.00  0.00    +0.211 HD
ENDBRANCH  33  34
ENDBRANCH  25  33
ENDBRANCH  20  26
ENDBRANCH   3  20
TORSDOF 9
ENDMDL
