MODEL 1
REMARK VINA RESULT:     -12.1      0.000      0.000
REMARK  Name = 24812719
REMARK  3 active torsions:
REMARK  status: ('A' for Active; 'I' for Inactive)
REMARK    1  A    between atoms: N_2  and  C_22
REMARK    2  A    between atoms: C_3  and  C_12
REMARK    3  A    between atoms: C_25  and  C_31
REMARK                            x       y       z     vdW  Elec       q    Type
REMARK                         _______ _______ _______ _____ _____    ______ ____
ROOT
ATOM      1  O   UNL     1      34.612 -15.950 -20.815  0.00  0.00    -0.269 OA
ATOM      2  N   UNL     1      34.987 -17.532 -22.519  0.00  0.00    -0.233 N 
ATOM      3  C   UNL     1      33.947 -15.307 -22.981  0.00  0.00    +0.046 C 
ATOM      4  C   UNL     1      33.941 -15.592 -24.300  0.00  0.00    -0.016 C 
ATOM      5  C   UNL     1      34.532 -16.298 -21.994  0.00  0.00    +0.256 C 
ATOM      6  C   UNL     1      34.960 -17.748 -23.892  0.00  0.00    +0.072 C 
ATOM      7  C   UNL     1      34.480 -16.851 -24.757  0.00  0.00    +0.012 C 
ATOM      8  C   UNL     1      33.405 -14.711 -25.396  0.00  0.00    +0.031 C 
ENDROOT
BRANCH   3  12
ATOM      9  N   UNL     1      31.878 -10.457 -20.972  0.00  0.00    -0.342 NA
ATOM     10  N   UNL     1      32.884  -9.237 -22.790  0.00  0.00    -0.170 NA
ATOM     11  N   UNL     1      31.632  -8.130 -21.148  0.00  0.00    -0.293 N 
ATOM     12  C   UNL     1      33.410 -14.036 -22.461  0.00  0.00    -0.017 C 
ATOM     13  C   UNL     1      33.665 -12.842 -23.129  0.00  0.00    +0.056 C 
ATOM     14  C   UNL     1      32.645 -14.023 -21.300  0.00  0.00    -0.022 C 
ATOM     15  C   UNL     1      33.149 -11.634 -22.630  0.00  0.00    +0.029 C 
ATOM     16  C   UNL     1      32.375 -11.608 -21.458  0.00  0.00    +0.124 C 
ATOM     17  C   UNL     1      32.137 -12.817 -20.810  0.00  0.00    +0.085 C 
ATOM     18  C   UNL     1      33.367 -10.406 -23.250  0.00  0.00    +0.110 C 
ATOM     19  C   UNL     1      32.160  -9.335 -21.664  0.00  0.00    +0.141 C 
ATOM     20  H   UNL     1      31.093  -8.142 -20.325  0.00  0.00    +0.155 HD
ATOM     21  H   UNL     1      31.805  -7.279 -21.612  0.00  0.00    +0.155 HD
ENDBRANCH   3  12
BRANCH   2  22
ATOM     22  C   UNL     1      35.504 -18.551 -21.625  0.00  0.00    +0.058 C 
ATOM     23  C   UNL     1      34.647 -19.519 -21.102  0.00  0.00    +0.019 C 
ATOM     24  C   UNL     1      36.857 -18.562 -21.289  0.00  0.00    +0.015 C 
ATOM     25  C   UNL     1      35.144 -20.498 -20.243  0.00  0.00    +0.073 C 
ATOM     26  C   UNL     1      37.354 -19.542 -20.429  0.00  0.00    +0.001 C 
ATOM     27  C   UNL     1      36.497 -20.510 -19.905  0.00  0.00    +0.004 C 
BRANCH  25  31
ATOM     28  F   UNL     1      34.626 -22.814 -19.936  0.00  0.00    -0.166 F 
ATOM     29  F   UNL     1      34.094 -21.465 -18.323  0.00  0.00    -0.166 F 
ATOM     30  F   UNL     1      32.960 -21.437 -20.178  0.00  0.00    -0.166 F 
ATOM     31  C   UNL     1      34.227 -21.533 -19.681  0.00  0.00    +0.419 C 
ENDBRANCH  25  31
ENDBRANCH   2  22
TORSDOF 3
ENDMDL
MODEL 2
REMARK VINA RESULT:     -11.7      2.936      5.149
REMARK  Name = 24812719
REMARK  3 active torsions:
REMARK  status: ('A' for Active; 'I' for Inactive)
REMARK    1  A    between atoms: N_2  and  C_22
REMARK    2  A    between atoms: C_3  and  C_12
REMARK    3  A    between atoms: C_25  and  C_31
REMARK                            x       y       z     vdW  Elec       q    Type
REMARK                         _______ _______ _______ _____ _____    ______ ____
ROOT
ATOM      1  O   UNL     1      33.410 -12.149 -24.085  0.00  0.00    -0.269 OA
ATOM      2  N   UNL     1      33.047 -13.581 -22.251  0.00  0.00    -0.233 N 
ATOM      3  C   UNL     1      32.458 -11.154 -22.174  0.00  0.00    +0.046 C 
ATOM      4  C   UNL     1      31.927 -11.329 -20.947  0.00  0.00    -0.016 C 
ATOM      5  C   UNL     1      33.034 -12.337 -22.927  0.00  0.00    +0.256 C 
ATOM      6  C   UNL     1      32.469 -13.687 -20.991  0.00  0.00    +0.072 C 
ATOM      7  C   UNL     1      31.928 -12.645 -20.354  0.00  0.00    +0.012 C 
ATOM      8  C   UNL     1      31.315 -10.258 -20.083  0.00  0.00    +0.031 C 
ENDROOT
BRANCH   3  12
ATOM      9  N   UNL     1      32.524  -6.096 -24.675  0.00  0.00    -0.342 NA
ATOM     10  N   UNL     1      34.899  -5.912 -24.314  0.00  0.00    -0.170 NA
ATOM     11  N   UNL     1      33.712  -4.203 -25.391  0.00  0.00    -0.293 N 
ATOM     12  C   UNL     1      32.482  -9.831 -22.826  0.00  0.00    -0.017 C 
ATOM     13  C   UNL     1      33.679  -9.131 -22.946  0.00  0.00    +0.056 C 
ATOM     14  C   UNL     1      31.309  -9.276 -23.326  0.00  0.00    -0.022 C 
ATOM     15  C   UNL     1      33.696  -7.872 -23.569  0.00  0.00    +0.029 C 
ATOM     16  C   UNL     1      32.518  -7.300 -24.078  0.00  0.00    +0.124 C 
ATOM     17  C   UNL     1      31.335  -8.023 -23.944  0.00  0.00    +0.085 C 
ATOM     18  C   UNL     1      34.858  -7.120 -23.721  0.00  0.00    +0.110 C 
ATOM     19  C   UNL     1      33.714  -5.468 -24.760  0.00  0.00    +0.141 C 
ATOM     20  H   UNL     1      32.871  -3.828 -25.738  0.00  0.00    +0.155 HD
ATOM     21  H   UNL     1      34.552  -3.698 -25.483  0.00  0.00    +0.155 HD
ENDBRANCH   3  12
BRANCH   2  22
ATOM     22  C   UNL     1      33.637 -14.744 -22.887  0.00  0.00    +0.058 C 
ATOM     23  C   UNL     1      34.278 -15.711 -22.114  0.00  0.00    +0.019 C 
ATOM     24  C   UNL     1      33.565 -14.892 -24.272  0.00  0.00    +0.015 C 
ATOM     25  C   UNL     1      34.846 -16.828 -22.725  0.00  0.00    +0.073 C 
ATOM     26  C   UNL     1      34.133 -16.010 -24.884  0.00  0.00    +0.001 C 
ATOM     27  C   UNL     1      34.775 -16.978 -24.110  0.00  0.00    +0.004 C 
BRANCH  25  31
ATOM     28  F   UNL     1      34.847 -19.041 -21.815  0.00  0.00    -0.166 F 
ATOM     29  F   UNL     1      36.770 -18.204 -22.368  0.00  0.00    -0.166 F 
ATOM     30  F   UNL     1      35.730 -17.460 -20.610  0.00  0.00    -0.166 F 
ATOM     31  C   UNL     1      35.533 -17.863 -21.899  0.00  0.00    +0.419 C 
ENDBRANCH  25  31
ENDBRANCH   2  22
TORSDOF 3
ENDMDL
MODEL 3
REMARK VINA RESULT:     -11.5      3.901      8.597
REMARK  Name = 24812719
REMARK  3 active torsions:
REMARK  status: ('A' for Active; 'I' for Inactive)
REMARK    1  A    between atoms: N_2  and  C_22
REMARK    2  A    between atoms: C_3  and  C_12
REMARK    3  A    between atoms: C_25  and  C_31
REMARK                            x       y       z     vdW  Elec       q    Type
REMARK                         _______ _______ _______ _____ _____    ______ ____
ROOT
ATOM      1  O   UNL     1      34.614 -16.125 -21.257  0.00  0.00    -0.269 OA
ATOM      2  N   UNL     1      33.973 -15.697 -23.482  0.00  0.00    -0.233 N 
ATOM      3  C   UNL     1      34.770 -17.946 -22.742  0.00  0.00    +0.046 C 
ATOM      4  C   UNL     1      34.512 -18.435 -23.972  0.00  0.00    -0.016 C 
ATOM      5  C   UNL     1      34.461 -16.498 -22.421  0.00  0.00    +0.256 C 
ATOM      6  C   UNL     1      33.720 -16.274 -24.721  0.00  0.00    +0.072 C 
ATOM      7  C   UNL     1      33.958 -17.562 -24.981  0.00  0.00    +0.012 C 
ATOM      8  C   UNL     1      34.757 -19.846 -24.437  0.00  0.00    +0.031 C 
ENDROOT
BRANCH   3  12
ATOM      9  N   UNL     1      36.959 -21.177 -18.666  0.00  0.00    -0.342 NA
ATOM     10  N   UNL     1      34.841 -22.284 -18.361  0.00  0.00    -0.170 NA
ATOM     11  N   UNL     1      36.702 -22.873 -17.065  0.00  0.00    -0.293 N 
ATOM     12  C   UNL     1      35.336 -18.793 -21.675  0.00  0.00    -0.017 C 
ATOM     13  C   UNL     1      34.539 -19.736 -21.033  0.00  0.00    +0.056 C 
ATOM     14  C   UNL     1      36.669 -18.656 -21.306  0.00  0.00    -0.022 C 
ATOM     15  C   UNL     1      35.084 -20.541 -20.018  0.00  0.00    +0.029 C 
ATOM     16  C   UNL     1      36.429 -20.412 -19.636  0.00  0.00    +0.124 C 
ATOM     17  C   UNL     1      37.203 -19.461 -20.296  0.00  0.00    +0.085 C 
ATOM     18  C   UNL     1      34.341 -21.502 -19.336  0.00  0.00    +0.110 C 
ATOM     19  C   UNL     1      36.137 -22.071 -18.082  0.00  0.00    +0.141 C 
ATOM     20  H   UNL     1      37.648 -22.760 -16.818  0.00  0.00    +0.155 HD
ATOM     21  H   UNL     1      36.149 -23.544 -16.603  0.00  0.00    +0.155 HD
ENDBRANCH   3  12
BRANCH   2  22
ATOM     22  C   UNL     1      33.712 -14.286 -23.264  0.00  0.00    +0.058 C 
ATOM     23  C   UNL     1      32.945 -13.879 -22.173  0.00  0.00    +0.019 C 
ATOM     24  C   UNL     1      34.228 -13.338 -24.147  0.00  0.00    +0.015 C 
ATOM     25  C   UNL     1      32.694 -12.524 -21.964  0.00  0.00    +0.073 C 
ATOM     26  C   UNL     1      33.977 -11.982 -23.938  0.00  0.00    +0.001 C 
ATOM     27  C   UNL     1      33.209 -11.574 -22.847  0.00  0.00    +0.004 C 
BRANCH  25  31
ATOM     28  F   UNL     1      32.283 -10.906 -20.250  0.00  0.00    -0.166 F 
ATOM     29  F   UNL     1      30.553 -11.901 -21.099  0.00  0.00    -0.166 F 
ATOM     30  F   UNL     1      31.890 -12.992 -19.776  0.00  0.00    -0.166 F 
ATOM     31  C   UNL     1      31.872 -12.087 -20.798  0.00  0.00    +0.419 C 
ENDBRANCH  25  31
ENDBRANCH   2  22
TORSDOF 3
ENDMDL
MODEL 4
REMARK VINA RESULT:     -11.2      3.546      5.757
REMARK  Name = 24812719
REMARK  3 active torsions:
REMARK  status: ('A' for Active; 'I' for Inactive)
REMARK    1  A    between atoms: N_2  and  C_22
REMARK    2  A    between atoms: C_3  and  C_12
REMARK    3  A    between atoms: C_25  and  C_31
REMARK                            x       y       z     vdW  Elec       q    Type
REMARK                         _______ _______ _______ _____ _____    ______ ____
ROOT
ATOM      1  O   UNL     1      33.574 -20.102 -20.407  0.00  0.00    -0.269 OA
ATOM      2  N   UNL     1      35.370 -21.105 -19.260  0.00  0.00    -0.233 N 
ATOM      3  C   UNL     1      35.730 -19.477 -21.121  0.00  0.00    +0.046 C 
ATOM      4  C   UNL     1      37.060 -19.534 -20.906  0.00  0.00    -0.016 C 
ATOM      5  C   UNL     1      34.784 -20.269 -20.241  0.00  0.00    +0.256 C 
ATOM      6  C   UNL     1      36.750 -21.102 -19.089  0.00  0.00    +0.072 C 
ATOM      7  C   UNL     1      37.571 -20.369 -19.844  0.00  0.00    +0.012 C 
ATOM      8  C   UNL     1      38.119 -18.804 -21.687  0.00  0.00    +0.031 C 
ENDROOT
BRANCH   3  12
ATOM      9  N   UNL     1      33.525 -16.300 -25.232  0.00  0.00    -0.342 NA
ATOM     10  N   UNL     1      33.991 -14.297 -23.978  0.00  0.00    -0.170 NA
ATOM     11  N   UNL     1      32.969 -14.185 -26.083  0.00  0.00    -0.293 N 
ATOM     12  C   UNL     1      35.154 -18.640 -22.191  0.00  0.00    -0.017 C 
ATOM     13  C   UNL     1      35.123 -17.256 -22.058  0.00  0.00    +0.056 C 
ATOM     14  C   UNL     1      34.641 -19.231 -23.341  0.00  0.00    -0.022 C 
ATOM     15  C   UNL     1      34.575 -16.464 -23.082  0.00  0.00    +0.029 C 
ATOM     16  C   UNL     1      34.052 -17.049 -24.247  0.00  0.00    +0.124 C 
ATOM     17  C   UNL     1      34.097 -18.437 -24.354  0.00  0.00    +0.085 C 
ATOM     18  C   UNL     1      34.512 -15.075 -23.011  0.00  0.00    +0.110 C 
ATOM     19  C   UNL     1      33.524 -14.965 -25.043  0.00  0.00    +0.141 C 
ATOM     20  H   UNL     1      32.611 -14.623 -26.889  0.00  0.00    +0.155 HD
ATOM     21  H   UNL     1      32.942 -13.205 -26.002  0.00  0.00    +0.155 HD
ENDBRANCH   3  12
BRANCH   2  22
ATOM     22  C   UNL     1      34.529 -21.938 -18.422  0.00  0.00    +0.058 C 
ATOM     23  C   UNL     1      35.064 -22.557 -17.294  0.00  0.00    +0.019 C 
ATOM     24  C   UNL     1      33.185 -22.121 -18.747  0.00  0.00    +0.015 C 
ATOM     25  C   UNL     1      34.255 -23.358 -16.489  0.00  0.00    +0.073 C 
ATOM     26  C   UNL     1      32.376 -22.923 -17.942  0.00  0.00    +0.001 C 
ATOM     27  C   UNL     1      32.911 -23.542 -16.813  0.00  0.00    +0.004 C 
BRANCH  25  31
ATOM     28  F   UNL     1      34.782 -25.387 -15.333  0.00  0.00    -0.166 F 
ATOM     29  F   UNL     1      36.141 -23.719 -15.061  0.00  0.00    -0.166 F 
ATOM     30  F   UNL     1      34.175 -23.677 -14.133  0.00  0.00    -0.166 F 
ATOM     31  C   UNL     1      34.828 -24.023 -15.281  0.00  0.00    +0.419 C 
ENDBRANCH  25  31
ENDBRANCH   2  22
TORSDOF 3
ENDMDL
MODEL 5
REMARK VINA RESULT:     -11.0      6.167     10.510
REMARK  Name = 24812719
REMARK  3 active torsions:
REMARK  status: ('A' for Active; 'I' for Inactive)
REMARK    1  A    between atoms: N_2  and  C_22
REMARK    2  A    between atoms: C_3  and  C_12
REMARK    3  A    between atoms: C_25  and  C_31
REMARK                            x       y       z     vdW  Elec       q    Type
REMARK                         _______ _______ _______ _____ _____    ______ ____
ROOT
ATOM      1  O   UNL     1      34.480 -10.773 -23.715  0.00  0.00    -0.269 OA
ATOM      2  N   UNL     1      33.042  -9.282 -22.594  0.00  0.00    -0.233 N 
ATOM      3  C   UNL     1      32.884 -11.756 -22.288  0.00  0.00    +0.046 C 
ATOM      4  C   UNL     1      31.927 -11.573 -21.356  0.00  0.00    -0.016 C 
ATOM      5  C   UNL     1      33.538 -10.560 -22.949  0.00  0.00    +0.256 C 
ATOM      6  C   UNL     1      32.061  -9.171 -21.615  0.00  0.00    +0.072 C 
ATOM      7  C   UNL     1      31.521 -10.231 -21.009  0.00  0.00    +0.012 C 
ATOM      8  C   UNL     1      31.194 -12.657 -20.610  0.00  0.00    +0.031 C 
ENDROOT
BRANCH   3  12
ATOM      9  N   UNL     1      34.603 -16.912 -23.809  0.00  0.00    -0.342 NA
ATOM     10  N   UNL     1      35.362 -17.356 -21.566  0.00  0.00    -0.170 NA
ATOM     11  N   UNL     1      35.586 -18.968 -23.251  0.00  0.00    -0.293 N 
ATOM     12  C   UNL     1      33.336 -13.105 -22.679  0.00  0.00    -0.017 C 
ATOM     13  C   UNL     1      33.923 -13.947 -21.739  0.00  0.00    +0.056 C 
ATOM     14  C   UNL     1      33.179 -13.543 -23.989  0.00  0.00    -0.022 C 
ATOM     15  C   UNL     1      34.350 -15.231 -22.117  0.00  0.00    +0.029 C 
ATOM     16  C   UNL     1      34.197 -15.685 -23.437  0.00  0.00    +0.124 C 
ATOM     17  C   UNL     1      33.607 -14.822 -24.357  0.00  0.00    +0.085 C 
ATOM     18  C   UNL     1      34.944 -16.122 -21.227  0.00  0.00    +0.110 C 
ATOM     19  C   UNL     1      35.163 -17.680 -22.853  0.00  0.00    +0.141 C 
ATOM     20  H   UNL     1      35.465 -19.259 -24.183  0.00  0.00    +0.155 HD
ATOM     21  H   UNL     1      36.002 -19.574 -22.596  0.00  0.00    +0.155 HD
ENDBRANCH   3  12
BRANCH   2  22
ATOM     22  C   UNL     1      33.579  -8.094 -23.232  0.00  0.00    +0.058 C 
ATOM     23  C   UNL     1      32.718  -7.090 -23.672  0.00  0.00    +0.019 C 
ATOM     24  C   UNL     1      34.956  -7.959 -23.406  0.00  0.00    +0.015 C 
ATOM     25  C   UNL     1      33.234  -5.949 -24.286  0.00  0.00    +0.073 C 
ATOM     26  C   UNL     1      35.472  -6.818 -24.020  0.00  0.00    +0.001 C 
ATOM     27  C   UNL     1      34.611  -5.813 -24.461  0.00  0.00    +0.004 C 
BRANCH  25  31
ATOM     28  F   UNL     1      31.011  -5.071 -24.398  0.00  0.00    -0.166 F 
ATOM     29  F   UNL     1      32.631  -3.634 -24.282  0.00  0.00    -0.166 F 
ATOM     30  F   UNL     1      32.303  -4.752 -26.118  0.00  0.00    -0.166 F 
ATOM     31  C   UNL     1      32.313  -4.874 -24.759  0.00  0.00    +0.419 C 
ENDBRANCH  25  31
ENDBRANCH   2  22
TORSDOF 3
ENDMDL
MODEL 6
REMARK VINA RESULT:     -10.7      6.299     10.537
REMARK  Name = 24812719
REMARK  3 active torsions:
REMARK  status: ('A' for Active; 'I' for Inactive)
REMARK    1  A    between atoms: N_2  and  C_22
REMARK    2  A    between atoms: C_3  and  C_12
REMARK    3  A    between atoms: C_25  and  C_31
REMARK                            x       y       z     vdW  Elec       q    Type
REMARK                         _______ _______ _______ _____ _____    ______ ____
ROOT
ATOM      1  O   UNL     1      34.858 -10.413 -23.917  0.00  0.00    -0.269 OA
ATOM      2  N   UNL     1      33.213  -8.753 -23.631  0.00  0.00    -0.233 N 
ATOM      3  C   UNL     1      32.854 -11.113 -22.896  0.00  0.00    +0.046 C 
ATOM      4  C   UNL     1      31.663 -10.761 -22.370  0.00  0.00    -0.016 C 
ATOM      5  C   UNL     1      33.736 -10.066 -23.546  0.00  0.00    +0.256 C 
ATOM      6  C   UNL     1      31.982  -8.462 -23.055  0.00  0.00    +0.072 C 
ATOM      7  C   UNL     1      31.232  -9.385 -22.448  0.00  0.00    +0.012 C 
ATOM      8  C   UNL     1      30.686 -11.682 -21.690  0.00  0.00    +0.031 C 
ENDROOT
BRANCH   3  12
ATOM      9  N   UNL     1      34.735 -16.429 -22.668  0.00  0.00    -0.342 NA
ATOM     10  N   UNL     1      34.163 -16.765 -24.984  0.00  0.00    -0.170 NA
ATOM     11  N   UNL     1      35.127 -18.488 -23.723  0.00  0.00    -0.293 N 
ATOM     12  C   UNL     1      33.343 -12.504 -22.843  0.00  0.00    -0.017 C 
ATOM     13  C   UNL     1      33.283 -13.311 -23.975  0.00  0.00    +0.056 C 
ATOM     14  C   UNL     1      33.869 -13.016 -21.662  0.00  0.00    -0.022 C 
ATOM     15  C   UNL     1      33.752 -14.635 -23.919  0.00  0.00    +0.029 C 
ATOM     16  C   UNL     1      34.285 -15.164 -22.732  0.00  0.00    +0.124 C 
ATOM     17  C   UNL     1      34.332 -14.334 -21.615  0.00  0.00    +0.085 C 
ATOM     18  C   UNL     1      33.721 -15.494 -25.014  0.00  0.00    +0.110 C 
ATOM     19  C   UNL     1      34.650 -17.160 -23.797  0.00  0.00    +0.141 C 
ATOM     20  H   UNL     1      35.495 -18.831 -22.877  0.00  0.00    +0.155 HD
ATOM     21  H   UNL     1      35.091 -19.069 -24.517  0.00  0.00    +0.155 HD
ENDBRANCH   3  12
BRANCH   2  22
ATOM     22  C   UNL     1      33.976  -7.712 -24.294  0.00  0.00    +0.058 C 
ATOM     23  C   UNL     1      33.727  -7.410 -25.632  0.00  0.00    +0.019 C 
ATOM     24  C   UNL     1      34.959  -7.015 -23.593  0.00  0.00    +0.015 C 
ATOM     25  C   UNL     1      34.460  -6.410 -26.270  0.00  0.00    +0.073 C 
ATOM     26  C   UNL     1      35.693  -6.014 -24.231  0.00  0.00    +0.001 C 
ATOM     27  C   UNL     1      35.445  -5.712 -25.570  0.00  0.00    +0.004 C 
BRANCH  25  31
ATOM     28  F   UNL     1      33.797  -7.164 -28.442  0.00  0.00    -0.166 F 
ATOM     29  F   UNL     1      33.216  -5.152 -27.880  0.00  0.00    -0.166 F 
ATOM     30  F   UNL     1      35.295  -5.590 -28.340  0.00  0.00    -0.166 F 
ATOM     31  C   UNL     1      34.196  -6.087 -27.702  0.00  0.00    +0.419 C 
ENDBRANCH  25  31
ENDBRANCH   2  22
TORSDOF 3
ENDMDL
MODEL 7
REMARK VINA RESULT:     -10.6      5.578     10.081
REMARK  Name = 24812719
REMARK  3 active torsions:
REMARK  status: ('A' for Active; 'I' for Inactive)
REMARK    1  A    between atoms: N_2  and  C_22
REMARK    2  A    between atoms: C_3  and  C_12
REMARK    3  A    between atoms: C_25  and  C_31
REMARK                            x       y       z     vdW  Elec       q    Type
REMARK                         _______ _______ _______ _____ _____    ______ ____
ROOT
ATOM      1  O   UNL     1      33.596 -11.414 -23.869  0.00  0.00    -0.269 OA
ATOM      2  N   UNL     1      32.273 -10.093 -22.436  0.00  0.00    -0.233 N 
ATOM      3  C   UNL     1      32.719 -12.508 -21.976  0.00  0.00    +0.046 C 
ATOM      4  C   UNL     1      32.057 -12.400 -20.806  0.00  0.00    -0.016 C 
ATOM      5  C   UNL     1      32.894 -11.292 -22.863  0.00  0.00    +0.256 C 
ATOM      6  C   UNL     1      31.617 -10.056 -21.211  0.00  0.00    +0.072 C 
ATOM      7  C   UNL     1      31.504 -11.124 -20.418  0.00  0.00    +0.012 C 
ATOM      8  C   UNL     1      31.809 -13.511 -19.820  0.00  0.00    +0.031 C 
ENDROOT
BRANCH   3  12
ATOM      9  N   UNL     1      34.942 -17.400 -23.700  0.00  0.00    -0.342 NA
ATOM     10  N   UNL     1      35.693 -17.885 -21.463  0.00  0.00    -0.170 NA
ATOM     11  N   UNL     1      36.101 -19.382 -23.218  0.00  0.00    -0.293 N 
ATOM     12  C   UNL     1      33.303 -13.788 -22.420  0.00  0.00    -0.017 C 
ATOM     13  C   UNL     1      33.945 -14.619 -21.508  0.00  0.00    +0.056 C 
ATOM     14  C   UNL     1      33.213 -14.172 -23.753  0.00  0.00    -0.022 C 
ATOM     15  C   UNL     1      34.499 -15.837 -21.936  0.00  0.00    +0.029 C 
ATOM     16  C   UNL     1      34.415 -16.236 -23.280  0.00  0.00    +0.124 C 
ATOM     17  C   UNL     1      33.766 -15.386 -24.171  0.00  0.00    +0.085 C 
ATOM     18  C   UNL     1      35.155 -16.713 -21.075  0.00  0.00    +0.110 C 
ATOM     19  C   UNL     1      35.551 -18.160 -22.769  0.00  0.00    +0.141 C 
ATOM     20  H   UNL     1      36.027 -19.636 -24.166  0.00  0.00    +0.155 HD
ATOM     21  H   UNL     1      36.558 -19.979 -22.582  0.00  0.00    +0.155 HD
ENDBRANCH   3  12
BRANCH   2  22
ATOM     22  C   UNL     1      32.348  -8.905 -23.265  0.00  0.00    +0.058 C 
ATOM     23  C   UNL     1      33.583  -8.314 -23.528  0.00  0.00    +0.019 C 
ATOM     24  C   UNL     1      31.183  -8.351 -23.795  0.00  0.00    +0.015 C 
ATOM     25  C   UNL     1      33.654  -7.171 -24.323  0.00  0.00    +0.073 C 
ATOM     26  C   UNL     1      31.254  -7.208 -24.591  0.00  0.00    +0.001 C 
ATOM     27  C   UNL     1      32.490  -6.617 -24.855  0.00  0.00    +0.004 C 
BRANCH  25  31
ATOM     28  F   UNL     1      34.909  -5.186 -24.780  0.00  0.00    -0.166 F 
ATOM     29  F   UNL     1      35.893  -6.723 -23.609  0.00  0.00    -0.166 F 
ATOM     30  F   UNL     1      35.562  -7.027 -25.736  0.00  0.00    -0.166 F 
ATOM     31  C   UNL     1      34.976  -6.538 -24.604  0.00  0.00    +0.419 C 
ENDBRANCH  25  31
ENDBRANCH   2  22
TORSDOF 3
ENDMDL
MODEL 8
REMARK VINA RESULT:     -10.6      4.215      6.812
REMARK  Name = 24812719
REMARK  3 active torsions:
REMARK  status: ('A' for Active; 'I' for Inactive)
REMARK    1  A    between atoms: N_2  and  C_22
REMARK    2  A    between atoms: C_3  and  C_12
REMARK    3  A    between atoms: C_25  and  C_31
REMARK                            x       y       z     vdW  Elec       q    Type
REMARK                         _______ _______ _______ _____ _____    ______ ____
ROOT
ATOM      1  O   UNL     1      34.585 -10.941 -23.810  0.00  0.00    -0.269 OA
ATOM      2  N   UNL     1      32.834 -11.817 -22.502  0.00  0.00    -0.233 N 
ATOM      3  C   UNL     1      32.926  -9.405 -23.147  0.00  0.00    +0.046 C 
ATOM      4  C   UNL     1      31.727  -9.209 -22.563  0.00  0.00    -0.016 C 
ATOM      5  C   UNL     1      33.541 -10.790 -23.174  0.00  0.00    +0.256 C 
ATOM      6  C   UNL     1      31.595 -11.542 -21.932  0.00  0.00    +0.072 C 
ATOM      7  C   UNL     1      31.045 -10.326 -21.951  0.00  0.00    +0.012 C 
ATOM      8  C   UNL     1      30.990  -7.900 -22.464  0.00  0.00    +0.031 C 
ENDROOT
BRANCH   3  12
ATOM      9  N   UNL     1      35.768  -5.176 -25.573  0.00  0.00    -0.342 NA
ATOM     10  N   UNL     1      34.350  -5.295 -27.517  0.00  0.00    -0.170 NA
ATOM     11  N   UNL     1      36.085  -3.725 -27.390  0.00  0.00    -0.293 N 
ATOM     12  C   UNL     1      33.665  -8.301 -23.787  0.00  0.00    -0.017 C 
ATOM     13  C   UNL     1      33.297  -7.852 -25.052  0.00  0.00    +0.056 C 
ATOM     14  C   UNL     1      34.734  -7.701 -23.130  0.00  0.00    -0.022 C 
ATOM     15  C   UNL     1      34.004  -6.798 -25.656  0.00  0.00    +0.029 C 
ATOM     16  C   UNL     1      35.085  -6.184 -25.003  0.00  0.00    +0.124 C 
ATOM     17  C   UNL     1      35.431  -6.653 -23.739  0.00  0.00    +0.085 C 
ATOM     18  C   UNL     1      33.687  -6.302 -26.918  0.00  0.00    +0.110 C 
ATOM     19  C   UNL     1      35.363  -4.786 -26.799  0.00  0.00    +0.141 C 
ATOM     20  H   UNL     1      36.837  -3.314 -26.908  0.00  0.00    +0.155 HD
ATOM     21  H   UNL     1      35.834  -3.398 -28.284  0.00  0.00    +0.155 HD
ENDBRANCH   3  12
BRANCH   2  22
ATOM     22  C   UNL     1      33.391 -13.155 -22.434  0.00  0.00    +0.058 C 
ATOM     23  C   UNL     1      33.455 -13.943 -23.582  0.00  0.00    +0.019 C 
ATOM     24  C   UNL     1      33.859 -13.654 -21.219  0.00  0.00    +0.015 C 
ATOM     25  C   UNL     1      33.990 -15.229 -23.517  0.00  0.00    +0.073 C 
ATOM     26  C   UNL     1      34.394 -14.941 -21.153  0.00  0.00    +0.001 C 
ATOM     27  C   UNL     1      34.459 -15.729 -22.302  0.00  0.00    +0.004 C 
BRANCH  25  31
ATOM     28  F   UNL     1      35.310 -16.544 -25.017  0.00  0.00    -0.166 F 
ATOM     29  F   UNL     1      33.264 -17.183 -24.690  0.00  0.00    -0.166 F 
ATOM     30  F   UNL     1      33.667 -15.400 -25.867  0.00  0.00    -0.166 F 
ATOM     31  C   UNL     1      34.058 -16.073 -24.745  0.00  0.00    +0.419 C 
ENDBRANCH  25  31
ENDBRANCH   2  22
TORSDOF 3
ENDMDL
MODEL 9
REMARK VINA RESULT:     -10.5      2.797      5.296
REMARK  Name = 24812719
REMARK  3 active torsions:
REMARK  status: ('A' for Active; 'I' for Inactive)
REMARK    1  A    between atoms: N_2  and  C_22
REMARK    2  A    between atoms: C_3  and  C_12
REMARK    3  A    between atoms: C_25  and  C_31
REMARK                            x       y       z     vdW  Elec       q    Type
REMARK                         _______ _______ _______ _____ _____    ______ ____
ROOT
ATOM      1  O   UNL     1      32.964 -11.974 -23.818  0.00  0.00    -0.269 OA
ATOM      2  N   UNL     1      32.987 -13.458 -21.990  0.00  0.00    -0.233 N 
ATOM      3  C   UNL     1      32.167 -11.108 -21.778  0.00  0.00    +0.046 C 
ATOM      4  C   UNL     1      31.818 -11.352 -20.498  0.00  0.00    -0.016 C 
ATOM      5  C   UNL     1      32.760 -12.214 -22.627  0.00  0.00    +0.256 C 
ATOM      6  C   UNL     1      32.590 -13.639 -20.670  0.00  0.00    +0.072 C 
ATOM      7  C   UNL     1      32.031 -12.668 -19.943  0.00  0.00    +0.012 C 
ATOM      8  C   UNL     1      31.216 -10.362 -19.537  0.00  0.00    +0.031 C 
ENDROOT
BRANCH   3  12
ATOM      9  N   UNL     1      31.429  -6.045 -24.160  0.00  0.00    -0.342 NA
ATOM     10  N   UNL     1      30.901  -5.078 -22.018  0.00  0.00    -0.170 NA
ATOM     11  N   UNL     1      30.908  -3.766 -23.959  0.00  0.00    -0.293 N 
ATOM     12  C   UNL     1      31.972  -9.782 -22.394  0.00  0.00    -0.017 C 
ATOM     13  C   UNL     1      31.619  -8.689 -21.609  0.00  0.00    +0.056 C 
ATOM     14  C   UNL     1      32.141  -9.616 -23.764  0.00  0.00    -0.022 C 
ATOM     15  C   UNL     1      31.436  -7.428 -22.201  0.00  0.00    +0.029 C 
ATOM     16  C   UNL     1      31.603  -7.248 -23.584  0.00  0.00    +0.124 C 
ATOM     17  C   UNL     1      31.956  -8.358 -24.346  0.00  0.00    +0.085 C 
ATOM     18  C   UNL     1      31.082  -6.295 -21.472  0.00  0.00    +0.110 C 
ATOM     19  C   UNL     1      31.088  -5.027 -23.346  0.00  0.00    +0.141 C 
ATOM     20  H   UNL     1      31.033  -3.670 -24.931  0.00  0.00    +0.155 HD
ATOM     21  H   UNL     1      30.659  -2.985 -23.414  0.00  0.00    +0.155 HD
ENDBRANCH   3  12
BRANCH   2  22
ATOM     22  C   UNL     1      33.607 -14.545 -22.724  0.00  0.00    +0.058 C 
ATOM     23  C   UNL     1      34.188 -15.610 -22.036  0.00  0.00    +0.019 C 
ATOM     24  C   UNL     1      33.625 -14.523 -24.118  0.00  0.00    +0.015 C 
ATOM     25  C   UNL     1      34.785 -16.653 -22.741  0.00  0.00    +0.073 C 
ATOM     26  C   UNL     1      34.222 -15.567 -24.824  0.00  0.00    +0.001 C 
ATOM     27  C   UNL     1      34.803 -16.633 -24.136  0.00  0.00    +0.004 C 
BRANCH  25  31
ATOM     28  F   UNL     1      35.675 -17.517 -20.695  0.00  0.00    -0.166 F 
ATOM     29  F   UNL     1      34.631 -18.917 -21.982  0.00  0.00    -0.166 F 
ATOM     30  F   UNL     1      36.597 -18.181 -22.550  0.00  0.00    -0.166 F 
ATOM     31  C   UNL     1      35.407 -17.793 -22.006  0.00  0.00    +0.419 C 
ENDBRANCH  25  31
ENDBRANCH   2  22
TORSDOF 3
ENDMDL
