MODEL 1
REMARK VINA RESULT:     -12.9      0.000      0.000
REMARK  Name = 11952989
REMARK  5 active torsions:
REMARK  status: ('A' for Active; 'I' for Inactive)
REMARK    1  A    between atoms: C_4  and  C_21
REMARK    2  A    between atoms: C_6  and  C_11
REMARK    3  A    between atoms: C_24  and  C_27
REMARK    4  A    between atoms: C_27  and  C_29
REMARK    5  A    between atoms: C_29  and  O_30
REMARK                            x       y       z     vdW  Elec       q    Type
REMARK                         _______ _______ _______ _____ _____    ______ ____
ROOT
ATOM      1  N   UNL     1      33.623 -14.600 -25.609  0.00  0.00    -0.297 N 
ATOM      2  N   UNL     1      34.635 -16.762 -25.284  0.00  0.00    -0.229 NA
ATOM      3  C   UNL     1      33.824 -15.293 -23.496  0.00  0.00    +0.033 C 
ATOM      4  C   UNL     1      33.211 -14.012 -23.503  0.00  0.00    +0.017 C 
ATOM      5  C   UNL     1      34.067 -15.632 -24.824  0.00  0.00    +0.132 C 
ATOM      6  C   UNL     1      34.799 -17.407 -22.936  0.00  0.00    +0.019 C 
ATOM      7  C   UNL     1      34.205 -16.220 -22.513  0.00  0.00    +0.004 C 
ATOM      8  C   UNL     1      33.100 -13.611 -24.817  0.00  0.00    +0.063 C 
ATOM      9  C   UNL     1      34.982 -17.618 -24.295  0.00  0.00    +0.100 C 
ATOM     10  H   UNL     1      33.670 -14.574 -26.593  0.00  0.00    +0.154 HD
ENDROOT
BRANCH   6  11
ATOM     11  C   UNL     1      35.215 -18.404 -21.973  0.00  0.00    +0.001 C 
ATOM     12  C   UNL     1      34.661 -20.242 -20.479  0.00  0.00    +0.000 C 
ATOM     13  C   UNL     1      34.274 -19.270 -21.415  0.00  0.00    +0.000 C 
ATOM     14  C   UNL     1      36.023 -20.338 -20.104  0.00  0.00    +0.000 C 
ATOM     15  C   UNL     1      36.554 -18.498 -21.604  0.00  0.00    +0.000 C 
ATOM     16  C   UNL     1      36.957 -19.458 -20.676  0.00  0.00    +0.000 C 
ATOM     17  C   UNL     1      33.728 -21.122 -19.907  0.00  0.00    +0.000 C 
ATOM     18  C   UNL     1      36.410 -21.311 -19.168  0.00  0.00    +0.000 C 
ATOM     19  C   UNL     1      34.132 -22.082 -18.978  0.00  0.00    +0.000 C 
ATOM     20  C   UNL     1      35.470 -22.176 -18.609  0.00  0.00    +0.000 C 
ENDBRANCH   6  11
BRANCH   4  21
ATOM     21  C   UNL     1      32.757 -13.201 -22.411  0.00  0.00    +0.001 C 
ATOM     22  C   UNL     1      32.367 -11.880 -22.635  0.00  0.00    -0.000 C 
ATOM     23  C   UNL     1      32.703 -13.732 -21.121  0.00  0.00    -0.000 C 
ATOM     24  C   UNL     1      31.872 -11.625 -20.284  0.00  0.00    -0.011 C 
ATOM     25  C   UNL     1      31.925 -11.093 -21.573  0.00  0.00    -0.004 C 
ATOM     26  C   UNL     1      32.262 -12.945 -20.059  0.00  0.00    -0.004 C 
BRANCH  24  27
ATOM     27  C   UNL     1      31.397 -10.782 -19.149  0.00  0.00    +0.136 C 
BRANCH  27  29
ATOM     28  O   UNL     1      31.163  -8.397 -19.585  0.00  0.00    -0.250 OA
ATOM     29  C   UNL     1      31.858  -9.340 -19.232  0.00  0.00    +0.318 C 
BRANCH  29  30
ATOM     30  O   UNL     1      33.159  -9.202 -18.863  0.00  0.00    -0.480 OA
ATOM     31  H   UNL     1      33.687  -9.963 -18.713  0.00  0.00    +0.295 HD
ENDBRANCH  29  30
ENDBRANCH  27  29
ENDBRANCH  24  27
ENDBRANCH   4  21
TORSDOF 5
ENDMDL
MODEL 2
REMARK VINA RESULT:     -12.8      7.242     10.890
REMARK  Name = 11952989
REMARK  5 active torsions:
REMARK  status: ('A' for Active; 'I' for Inactive)
REMARK    1  A    between atoms: C_4  and  C_21
REMARK    2  A    between atoms: C_6  and  C_11
REMARK    3  A    between atoms: C_24  and  C_27
REMARK    4  A    between atoms: C_27  and  C_29
REMARK    5  A    between atoms: C_29  and  O_30
REMARK                            x       y       z     vdW  Elec       q    Type
REMARK                         _______ _______ _______ _____ _____    ______ ____
ROOT
ATOM      1  N   UNL     1      33.137 -25.457 -13.486  0.00  0.00    -0.297 N 
ATOM      2  N   UNL     1      35.101 -24.764 -14.696  0.00  0.00    -0.229 NA
ATOM      3  C   UNL     1      32.811 -24.025 -15.167  0.00  0.00    +0.033 C 
ATOM      4  C   UNL     1      31.558 -24.323 -14.569  0.00  0.00    +0.017 C 
ATOM      5  C   UNL     1      33.775 -24.747 -14.469  0.00  0.00    +0.132 C 
ATOM      6  C   UNL     1      34.616 -23.200 -16.507  0.00  0.00    +0.019 C 
ATOM      7  C   UNL     1      33.252 -23.218 -16.229  0.00  0.00    +0.004 C 
ATOM      8  C   UNL     1      31.791 -25.207 -13.537  0.00  0.00    +0.063 C 
ATOM      9  C   UNL     1      35.469 -23.970 -15.729  0.00  0.00    +0.100 C 
ATOM     10  H   UNL     1      33.579 -26.056 -12.840  0.00  0.00    +0.154 HD
ENDROOT
BRANCH   6  11
ATOM     11  C   UNL     1      35.135 -22.391 -17.588  0.00  0.00    +0.001 C 
ATOM     12  C   UNL     1      34.753 -21.086 -19.606  0.00  0.00    +0.000 C 
ATOM     13  C   UNL     1      34.266 -21.873 -18.550  0.00  0.00    +0.000 C 
ATOM     14  C   UNL     1      36.141 -20.820 -19.688  0.00  0.00    +0.000 C 
ATOM     15  C   UNL     1      36.500 -22.129 -17.669  0.00  0.00    +0.000 C 
ATOM     16  C   UNL     1      37.001 -21.349 -18.711  0.00  0.00    +0.000 C 
ATOM     17  C   UNL     1      33.893 -20.558 -20.583  0.00  0.00    +0.000 C 
ATOM     18  C   UNL     1      36.628 -20.033 -20.745  0.00  0.00    +0.000 C 
ATOM     19  C   UNL     1      34.396 -19.778 -21.626  0.00  0.00    +0.000 C 
ATOM     20  C   UNL     1      35.760 -19.516 -21.707  0.00  0.00    +0.000 C 
ENDBRANCH   6  11
BRANCH   4  21
ATOM     21  C   UNL     1      30.244 -23.852 -14.897  0.00  0.00    +0.001 C 
ATOM     22  C   UNL     1      29.826 -22.592 -14.466  0.00  0.00    -0.000 C 
ATOM     23  C   UNL     1      29.382 -24.652 -15.648  0.00  0.00    -0.000 C 
ATOM     24  C   UNL     1      27.687 -22.935 -15.537  0.00  0.00    -0.011 C 
ATOM     25  C   UNL     1      28.548 -22.135 -14.786  0.00  0.00    -0.004 C 
ATOM     26  C   UNL     1      28.104 -24.194 -15.968  0.00  0.00    -0.004 C 
BRANCH  24  27
ATOM     27  C   UNL     1      26.321 -22.443 -15.881  0.00  0.00    +0.136 C 
BRANCH  27  29
ATOM     28  O   UNL     1      26.233 -22.602 -18.309  0.00  0.00    -0.250 OA
ATOM     29  C   UNL     1      26.208 -21.914 -17.297  0.00  0.00    +0.318 C 
BRANCH  29  30
ATOM     30  O   UNL     1      26.072 -20.562 -17.324  0.00  0.00    -0.480 OA
ATOM     31  H   UNL     1      26.129 -20.102 -18.139  0.00  0.00    +0.295 HD
ENDBRANCH  29  30
ENDBRANCH  27  29
ENDBRANCH  24  27
ENDBRANCH   4  21
TORSDOF 5
ENDMDL
MODEL 3
REMARK VINA RESULT:     -12.0      6.847     10.655
REMARK  Name = 11952989
REMARK  5 active torsions:
REMARK  status: ('A' for Active; 'I' for Inactive)
REMARK    1  A    between atoms: C_4  and  C_21
REMARK    2  A    between atoms: C_6  and  C_11
REMARK    3  A    between atoms: C_24  and  C_27
REMARK    4  A    between atoms: C_27  and  C_29
REMARK    5  A    between atoms: C_29  and  O_30
REMARK                            x       y       z     vdW  Elec       q    Type
REMARK                         _______ _______ _______ _____ _____    ______ ____
ROOT
ATOM      1  N   UNL     1      35.964 -24.333 -14.188  0.00  0.00    -0.297 N 
ATOM      2  N   UNL     1      37.361 -23.179 -15.774  0.00  0.00    -0.229 NA
ATOM      3  C   UNL     1      34.911 -23.247 -15.830  0.00  0.00    +0.033 C 
ATOM      4  C   UNL     1      33.943 -23.865 -14.994  0.00  0.00    +0.017 C 
ATOM      5  C   UNL     1      36.160 -23.558 -15.300  0.00  0.00    +0.132 C 
ATOM      6  C   UNL     1      36.096 -22.032 -17.519  0.00  0.00    +0.019 C 
ATOM      7  C   UNL     1      34.879 -22.451 -16.986  0.00  0.00    +0.004 C 
ATOM      8  C   UNL     1      34.621 -24.526 -13.992  0.00  0.00    +0.063 C 
ATOM      9  C   UNL     1      37.271 -22.415 -16.888  0.00  0.00    +0.100 C 
ATOM     10  H   UNL     1      36.679 -24.696 -13.615  0.00  0.00    +0.154 HD
ENDROOT
BRANCH   6  11
ATOM     11  C   UNL     1      36.133 -21.210 -18.709  0.00  0.00    +0.001 C 
ATOM     12  C   UNL     1      35.037 -20.355 -20.706  0.00  0.00    +0.000 C 
ATOM     13  C   UNL     1      35.019 -21.147 -19.547  0.00  0.00    +0.000 C 
ATOM     14  C   UNL     1      36.203 -19.616 -21.020  0.00  0.00    +0.000 C 
ATOM     15  C   UNL     1      37.279 -20.484 -19.018  0.00  0.00    +0.000 C 
ATOM     16  C   UNL     1      37.315 -19.691 -20.165  0.00  0.00    +0.000 C 
ATOM     17  C   UNL     1      33.925 -20.280 -21.561  0.00  0.00    +0.000 C 
ATOM     18  C   UNL     1      36.222 -18.824 -22.180  0.00  0.00    +0.000 C 
ATOM     19  C   UNL     1      33.963 -19.487 -22.709  0.00  0.00    +0.000 C 
ATOM     20  C   UNL     1      35.109 -18.761 -23.018  0.00  0.00    +0.000 C 
ENDBRANCH   6  11
BRANCH   4  21
ATOM     21  C   UNL     1      32.512 -23.866 -15.084  0.00  0.00    +0.001 C 
ATOM     22  C   UNL     1      31.754 -24.592 -14.165  0.00  0.00    -0.000 C 
ATOM     23  C   UNL     1      31.875 -23.140 -16.092  0.00  0.00    -0.000 C 
ATOM     24  C   UNL     1      29.727 -23.866 -15.261  0.00  0.00    -0.011 C 
ATOM     25  C   UNL     1      30.362 -24.592 -14.253  0.00  0.00    -0.004 C 
ATOM     26  C   UNL     1      30.483 -23.140 -16.180  0.00  0.00    -0.004 C 
BRANCH  24  27
ATOM     27  C   UNL     1      28.238 -23.865 -15.353  0.00  0.00    +0.136 C 
BRANCH  27  29
ATOM     28  O   UNL     1      27.496 -21.861 -16.520  0.00  0.00    -0.250 OA
ATOM     29  C   UNL     1      27.705 -23.067 -16.525  0.00  0.00    +0.318 C 
BRANCH  29  30
ATOM     30  O   UNL     1      27.479 -23.852 -17.612  0.00  0.00    -0.480 OA
ATOM     31  H   UNL     1      27.348 -24.774 -17.505  0.00  0.00    +0.295 HD
ENDBRANCH  29  30
ENDBRANCH  27  29
ENDBRANCH  24  27
ENDBRANCH   4  21
TORSDOF 5
ENDMDL
MODEL 4
REMARK VINA RESULT:     -11.9      7.867     12.435
REMARK  Name = 11952989
REMARK  5 active torsions:
REMARK  status: ('A' for Active; 'I' for Inactive)
REMARK    1  A    between atoms: C_4  and  C_21
REMARK    2  A    between atoms: C_6  and  C_11
REMARK    3  A    between atoms: C_24  and  C_27
REMARK    4  A    between atoms: C_27  and  C_29
REMARK    5  A    between atoms: C_29  and  O_30
REMARK                            x       y       z     vdW  Elec       q    Type
REMARK                         _______ _______ _______ _____ _____    ______ ____
ROOT
ATOM      1  N   UNL     1      32.077 -24.815 -14.330  0.00  0.00    -0.297 N 
ATOM      2  N   UNL     1      31.348 -23.500 -16.212  0.00  0.00    -0.229 NA
ATOM      3  C   UNL     1      33.684 -23.907 -15.586  0.00  0.00    +0.033 C 
ATOM      4  C   UNL     1      34.286 -24.643 -14.531  0.00  0.00    +0.017 C 
ATOM      5  C   UNL     1      32.306 -24.035 -15.432  0.00  0.00    +0.132 C 
ATOM      6  C   UNL     1      33.193 -22.561 -17.506  0.00  0.00    +0.019 C 
ATOM      7  C   UNL     1      34.145 -23.139 -16.668  0.00  0.00    +0.004 C 
ATOM      8  C   UNL     1      33.273 -25.191 -13.775  0.00  0.00    +0.063 C 
ATOM      9  C   UNL     1      31.848 -22.771 -17.236  0.00  0.00    +0.100 C 
ATOM     10  H   UNL     1      31.188 -25.069 -13.989  0.00  0.00    +0.154 HD
ENDROOT
BRANCH   6  11
ATOM     11  C   UNL     1      33.602 -21.758 -18.637  0.00  0.00    +0.001 C 
ATOM     12  C   UNL     1      35.365 -20.679 -19.920  0.00  0.00    +0.000 C 
ATOM     13  C   UNL     1      34.951 -21.458 -18.827  0.00  0.00    +0.000 C 
ATOM     14  C   UNL     1      34.396 -20.197 -20.833  0.00  0.00    +0.000 C 
ATOM     15  C   UNL     1      32.649 -21.285 -19.534  0.00  0.00    +0.000 C 
ATOM     16  C   UNL     1      33.042 -20.510 -20.626  0.00  0.00    +0.000 C 
ATOM     17  C   UNL     1      36.719 -20.367 -20.127  0.00  0.00    +0.000 C 
ATOM     18  C   UNL     1      34.810 -19.418 -21.926  0.00  0.00    +0.000 C 
ATOM     19  C   UNL     1      37.111 -19.591 -21.219  0.00  0.00    +0.000 C 
ATOM     20  C   UNL     1      36.159 -19.118 -22.116  0.00  0.00    +0.000 C 
ENDBRANCH   6  11
BRANCH   4  21
ATOM     21  C   UNL     1      35.672 -24.841 -14.220  0.00  0.00    +0.001 C 
ATOM     22  C   UNL     1      36.388 -23.847 -13.553  0.00  0.00    -0.000 C 
ATOM     23  C   UNL     1      36.307 -26.030 -14.583  0.00  0.00    -0.000 C 
ATOM     24  C   UNL     1      38.369 -25.229 -13.614  0.00  0.00    -0.011 C 
ATOM     25  C   UNL     1      37.735 -24.040 -13.251  0.00  0.00    -0.004 C 
ATOM     26  C   UNL     1      37.654 -26.224 -14.281  0.00  0.00    -0.004 C 
BRANCH  24  27
ATOM     27  C   UNL     1      39.810 -25.436 -13.287  0.00  0.00    +0.136 C 
BRANCH  27  29
ATOM     28  O   UNL     1      40.472 -26.158 -15.517  0.00  0.00    -0.250 OA
ATOM     29  C   UNL     1      40.543 -26.290 -14.302  0.00  0.00    +0.318 C 
BRANCH  29  30
ATOM     30  O   UNL     1      41.307 -27.243 -13.705  0.00  0.00    -0.480 OA
ATOM     31  H   UNL     1      40.898 -27.952 -13.247  0.00  0.00    +0.295 HD
ENDBRANCH  29  30
ENDBRANCH  27  29
ENDBRANCH  24  27
ENDBRANCH   4  21
TORSDOF 5
ENDMDL
MODEL 5
REMARK VINA RESULT:     -10.9      5.482     10.740
REMARK  Name = 11952989
REMARK  5 active torsions:
REMARK  status: ('A' for Active; 'I' for Inactive)
REMARK    1  A    between atoms: C_4  and  C_21
REMARK    2  A    between atoms: C_6  and  C_11
REMARK    3  A    between atoms: C_24  and  C_27
REMARK    4  A    between atoms: C_27  and  C_29
REMARK    5  A    between atoms: C_29  and  O_30
REMARK                            x       y       z     vdW  Elec       q    Type
REMARK                         _______ _______ _______ _____ _____    ______ ____
ROOT
ATOM      1  N   UNL     1      31.067 -11.101 -20.645  0.00  0.00    -0.297 N 
ATOM      2  N   UNL     1      31.510  -8.826 -21.300  0.00  0.00    -0.229 NA
ATOM      3  C   UNL     1      32.540 -10.815 -22.298  0.00  0.00    +0.033 C 
ATOM      4  C   UNL     1      32.400 -12.205 -22.044  0.00  0.00    +0.017 C 
ATOM      5  C   UNL     1      31.696 -10.155 -21.410  0.00  0.00    +0.132 C 
ATOM      6  C   UNL     1      33.134  -8.643 -23.114  0.00  0.00    +0.019 C 
ATOM      7  C   UNL     1      33.289 -10.025 -23.186  0.00  0.00    +0.004 C 
ATOM      8  C   UNL     1      31.487 -12.351 -21.021  0.00  0.00    +0.063 C 
ATOM      9  C   UNL     1      32.255  -8.115 -22.178  0.00  0.00    +0.100 C 
ATOM     10  H   UNL     1      30.413 -10.913 -19.933  0.00  0.00    +0.154 HD
ENDROOT
BRANCH   6  11
ATOM     11  C   UNL     1      33.877  -7.773 -24.000  0.00  0.00    +0.001 C 
ATOM     12  C   UNL     1      34.198  -6.803 -26.208  0.00  0.00    +0.000 C 
ATOM     13  C   UNL     1      33.488  -7.643 -25.334  0.00  0.00    +0.000 C 
ATOM     14  C   UNL     1      35.318  -6.086 -25.722  0.00  0.00    +0.000 C 
ATOM     15  C   UNL     1      34.977  -7.069 -23.522  0.00  0.00    +0.000 C 
ATOM     16  C   UNL     1      35.694  -6.230 -24.376  0.00  0.00    +0.000 C 
ATOM     17  C   UNL     1      33.822  -6.660 -27.554  0.00  0.00    +0.000 C 
ATOM     18  C   UNL     1      36.028  -5.247 -26.595  0.00  0.00    +0.000 C 
ATOM     19  C   UNL     1      34.540  -5.821 -28.407  0.00  0.00    +0.000 C 
ATOM     20  C   UNL     1      35.641  -5.116 -27.929  0.00  0.00    +0.000 C 
ENDBRANCH   6  11
BRANCH   4  21
ATOM     21  C   UNL     1      33.039 -13.326 -22.670  0.00  0.00    +0.001 C 
ATOM     22  C   UNL     1      33.873 -14.161 -21.925  0.00  0.00    -0.000 C 
ATOM     23  C   UNL     1      32.827 -13.584 -24.025  0.00  0.00    -0.000 C 
ATOM     24  C   UNL     1      34.281 -15.508 -23.889  0.00  0.00    -0.011 C 
ATOM     25  C   UNL     1      34.493 -15.251 -22.534  0.00  0.00    -0.004 C 
ATOM     26  C   UNL     1      33.448 -14.674 -24.635  0.00  0.00    -0.004 C 
BRANCH  24  27
ATOM     27  C   UNL     1      34.943 -16.676 -24.539  0.00  0.00    +0.136 C 
BRANCH  27  29
ATOM     28  O   UNL     1      34.530 -18.880 -23.589  0.00  0.00    -0.250 OA
ATOM     29  C   UNL     1      34.194 -17.980 -24.347  0.00  0.00    +0.318 C 
BRANCH  29  30
ATOM     30  O   UNL     1      33.082 -18.044 -25.125  0.00  0.00    -0.480 OA
ATOM     31  H   UNL     1      32.647 -18.865 -25.253  0.00  0.00    +0.295 HD
ENDBRANCH  29  30
ENDBRANCH  27  29
ENDBRANCH  24  27
ENDBRANCH   4  21
TORSDOF 5
ENDMDL
MODEL 6
REMARK VINA RESULT:     -10.8      4.950      7.282
REMARK  Name = 11952989
REMARK  5 active torsions:
REMARK  status: ('A' for Active; 'I' for Inactive)
REMARK    1  A    between atoms: C_4  and  C_21
REMARK    2  A    between atoms: C_6  and  C_11
REMARK    3  A    between atoms: C_24  and  C_27
REMARK    4  A    between atoms: C_27  and  C_29
REMARK    5  A    between atoms: C_29  and  O_30
REMARK                            x       y       z     vdW  Elec       q    Type
REMARK                         _______ _______ _______ _____ _____    ______ ____
ROOT
ATOM      1  N   UNL     1      31.520  -8.383 -20.849  0.00  0.00    -0.297 N 
ATOM      2  N   UNL     1      31.472 -10.783 -20.650  0.00  0.00    -0.229 NA
ATOM      3  C   UNL     1      32.654  -9.528 -22.394  0.00  0.00    +0.033 C 
ATOM      4  C   UNL     1      32.789  -8.139 -22.660  0.00  0.00    +0.017 C 
ATOM      5  C   UNL     1      31.858  -9.645 -21.258  0.00  0.00    +0.132 C 
ATOM      6  C   UNL     1      32.746 -11.920 -22.394  0.00  0.00    +0.019 C 
ATOM      7  C   UNL     1      33.117 -10.715 -22.985  0.00  0.00    +0.004 C 
ATOM      8  C   UNL     1      32.081  -7.459 -21.693  0.00  0.00    +0.063 C 
ATOM      9  C   UNL     1      31.946 -11.894 -21.261  0.00  0.00    +0.100 C 
ATOM     10  H   UNL     1      30.961  -8.170 -20.066  0.00  0.00    +0.154 HD
ENDROOT
BRANCH   6  11
ATOM     11  C   UNL     1      33.189 -13.179 -22.954  0.00  0.00    +0.001 C 
ATOM     12  C   UNL     1      34.265 -15.342 -22.669  0.00  0.00    +0.000 C 
ATOM     13  C   UNL     1      33.828 -14.116 -22.142  0.00  0.00    +0.000 C 
ATOM     14  C   UNL     1      34.050 -15.622 -24.040  0.00  0.00    +0.000 C 
ATOM     15  C   UNL     1      32.978 -13.453 -24.302  0.00  0.00    +0.000 C 
ATOM     16  C   UNL     1      33.404 -14.667 -24.843  0.00  0.00    +0.000 C 
ATOM     17  C   UNL     1      34.910 -16.297 -21.866  0.00  0.00    +0.000 C 
ATOM     18  C   UNL     1      34.486 -16.848 -24.567  0.00  0.00    +0.000 C 
ATOM     19  C   UNL     1      35.337 -17.510 -22.408  0.00  0.00    +0.000 C 
ATOM     20  C   UNL     1      35.126 -17.786 -23.755  0.00  0.00    +0.000 C 
ENDBRANCH   6  11
BRANCH   4  21
ATOM     21  C   UNL     1      33.501  -7.466 -23.708  0.00  0.00    +0.001 C 
ATOM     22  C   UNL     1      32.880  -7.231 -24.935  0.00  0.00    -0.000 C 
ATOM     23  C   UNL     1      34.815  -7.044 -23.501  0.00  0.00    -0.000 C 
ATOM     24  C   UNL     1      34.886  -6.155 -25.746  0.00  0.00    -0.011 C 
ATOM     25  C   UNL     1      33.572  -6.577 -25.953  0.00  0.00    -0.004 C 
ATOM     26  C   UNL     1      35.507  -6.390 -24.519  0.00  0.00    -0.004 C 
BRANCH  24  27
ATOM     27  C   UNL     1      35.624  -5.453 -26.835  0.00  0.00    +0.136 C 
BRANCH  27  29
ATOM     28  O   UNL     1      34.776  -6.487 -28.869  0.00  0.00    -0.250 OA
ATOM     29  C   UNL     1      35.713  -6.253 -28.119  0.00  0.00    +0.318 C 
BRANCH  29  30
ATOM     30  O   UNL     1      36.977  -6.695 -28.354  0.00  0.00    -0.480 OA
ATOM     31  H   UNL     1      37.661  -6.080 -28.541  0.00  0.00    +0.295 HD
ENDBRANCH  29  30
ENDBRANCH  27  29
ENDBRANCH  24  27
ENDBRANCH   4  21
TORSDOF 5
ENDMDL
MODEL 7
REMARK VINA RESULT:     -10.8      5.504     10.968
REMARK  Name = 11952989
REMARK  5 active torsions:
REMARK  status: ('A' for Active; 'I' for Inactive)
REMARK    1  A    between atoms: C_4  and  C_21
REMARK    2  A    between atoms: C_6  and  C_11
REMARK    3  A    between atoms: C_24  and  C_27
REMARK    4  A    between atoms: C_27  and  C_29
REMARK    5  A    between atoms: C_29  and  O_30
REMARK                            x       y       z     vdW  Elec       q    Type
REMARK                         _______ _______ _______ _____ _____    ______ ____
ROOT
ATOM      1  N   UNL     1      31.135 -11.133 -20.190  0.00  0.00    -0.297 N 
ATOM      2  N   UNL     1      31.454  -8.824 -20.797  0.00  0.00    -0.229 NA
ATOM      3  C   UNL     1      32.461 -10.743 -21.944  0.00  0.00    +0.033 C 
ATOM      4  C   UNL     1      32.384 -12.145 -21.728  0.00  0.00    +0.017 C 
ATOM      5  C   UNL     1      31.671 -10.141 -20.968  0.00  0.00    +0.132 C 
ATOM      6  C   UNL     1      32.920  -8.527 -22.726  0.00  0.00    +0.019 C 
ATOM      7  C   UNL     1      33.111  -9.900 -22.860  0.00  0.00    +0.004 C 
ATOM      8  C   UNL     1      31.562 -12.355 -20.642  0.00  0.00    +0.063 C 
ATOM      9  C   UNL     1      32.103  -8.060 -21.706  0.00  0.00    +0.100 C 
ATOM     10  H   UNL     1      30.535 -10.991 -19.422  0.00  0.00    +0.154 HD
ENDROOT
BRANCH   6  11
ATOM     11  C   UNL     1      33.561  -7.604 -23.637  0.00  0.00    +0.001 C 
ATOM     12  C   UNL     1      33.587  -5.456 -24.779  0.00  0.00    +0.000 C 
ATOM     13  C   UNL     1      32.978  -6.364 -23.897  0.00  0.00    +0.000 C 
ATOM     14  C   UNL     1      34.806  -5.812 -25.406  0.00  0.00    +0.000 C 
ATOM     15  C   UNL     1      34.759  -7.955 -24.253  0.00  0.00    +0.000 C 
ATOM     16  C   UNL     1      35.379  -7.065 -25.132  0.00  0.00    +0.000 C 
ATOM     17  C   UNL     1      33.015  -4.203 -25.053  0.00  0.00    +0.000 C 
ATOM     18  C   UNL     1      35.415  -4.905 -26.288  0.00  0.00    +0.000 C 
ATOM     19  C   UNL     1      33.635  -3.315 -25.932  0.00  0.00    +0.000 C 
ATOM     20  C   UNL     1      34.833  -3.664 -26.548  0.00  0.00    +0.000 C 
ENDBRANCH   6  11
BRANCH   4  21
ATOM     21  C   UNL     1      33.005 -13.223 -22.443  0.00  0.00    +0.001 C 
ATOM     22  C   UNL     1      32.784 -13.371 -23.813  0.00  0.00    -0.000 C 
ATOM     23  C   UNL     1      33.831 -14.124 -21.770  0.00  0.00    -0.000 C 
ATOM     24  C   UNL     1      34.214 -15.319 -23.833  0.00  0.00    -0.011 C 
ATOM     25  C   UNL     1      33.388 -14.419 -24.507  0.00  0.00    -0.004 C 
ATOM     26  C   UNL     1      34.434 -15.172 -22.464  0.00  0.00    -0.004 C 
BRANCH  24  27
ATOM     27  C   UNL     1      34.861 -16.438 -24.578  0.00  0.00    +0.136 C 
BRANCH  27  29
ATOM     28  O   UNL     1      34.486 -18.677 -23.697  0.00  0.00    -0.250 OA
ATOM     29  C   UNL     1      34.137 -17.761 -24.430  0.00  0.00    +0.318 C 
BRANCH  29  30
ATOM     30  O   UNL     1      33.031 -17.824 -25.218  0.00  0.00    -0.480 OA
ATOM     31  H   UNL     1      32.186 -17.638 -24.855  0.00  0.00    +0.295 HD
ENDBRANCH  29  30
ENDBRANCH  27  29
ENDBRANCH  24  27
ENDBRANCH   4  21
TORSDOF 5
ENDMDL
MODEL 8
REMARK VINA RESULT:     -10.4      5.521     11.307
REMARK  Name = 11952989
REMARK  5 active torsions:
REMARK  status: ('A' for Active; 'I' for Inactive)
REMARK    1  A    between atoms: C_4  and  C_21
REMARK    2  A    between atoms: C_6  and  C_11
REMARK    3  A    between atoms: C_24  and  C_27
REMARK    4  A    between atoms: C_27  and  C_29
REMARK    5  A    between atoms: C_29  and  O_30
REMARK                            x       y       z     vdW  Elec       q    Type
REMARK                         _______ _______ _______ _____ _____    ______ ____
ROOT
ATOM      1  N   UNL     1      31.585 -10.141 -19.040  0.00  0.00    -0.297 N 
ATOM      2  N   UNL     1      31.692  -7.803 -19.611  0.00  0.00    -0.229 NA
ATOM      3  C   UNL     1      32.281  -9.657 -21.105  0.00  0.00    +0.033 C 
ATOM      4  C   UNL     1      32.277 -11.068 -20.940  0.00  0.00    +0.017 C 
ATOM      5  C   UNL     1      31.844  -9.109 -19.902  0.00  0.00    +0.132 C 
ATOM      6  C   UNL     1      32.466  -7.403 -21.892  0.00  0.00    +0.019 C 
ATOM      7  C   UNL     1      32.605  -8.766 -22.141  0.00  0.00    +0.004 C 
ATOM      8  C   UNL     1      31.844 -11.335 -19.659  0.00  0.00    +0.063 C 
ATOM      9  C   UNL     1      32.018  -6.992 -20.644  0.00  0.00    +0.100 C 
ATOM     10  H   UNL     1      31.260 -10.040 -18.115  0.00  0.00    +0.154 HD
ENDROOT
BRANCH   6  11
ATOM     11  C   UNL     1      32.784  -6.432 -22.917  0.00  0.00    +0.001 C 
ATOM     12  C   UNL     1      34.279  -5.634 -24.662  0.00  0.00    +0.000 C 
ATOM     13  C   UNL     1      33.955  -6.567 -23.663  0.00  0.00    +0.000 C 
ATOM     14  C   UNL     1      33.402  -4.549 -24.906  0.00  0.00    +0.000 C 
ATOM     15  C   UNL     1      31.922  -5.367 -23.157  0.00  0.00    +0.000 C 
ATOM     16  C   UNL     1      32.228  -4.430 -24.145  0.00  0.00    +0.000 C 
ATOM     17  C   UNL     1      35.454  -5.752 -25.423  0.00  0.00    +0.000 C 
ATOM     18  C   UNL     1      33.726  -3.616 -25.905  0.00  0.00    +0.000 C 
ATOM     19  C   UNL     1      35.758  -4.815 -26.411  0.00  0.00    +0.000 C 
ATOM     20  C   UNL     1      34.897  -3.749 -26.652  0.00  0.00    +0.000 C 
ENDBRANCH   6  11
BRANCH   4  21
ATOM     21  C   UNL     1      32.638 -12.104 -21.863  0.00  0.00    +0.001 C 
ATOM     22  C   UNL     1      32.639 -13.438 -21.451  0.00  0.00    -0.000 C 
ATOM     23  C   UNL     1      32.987 -11.782 -23.175  0.00  0.00    -0.000 C 
ATOM     24  C   UNL     1      33.337 -14.122 -23.660  0.00  0.00    -0.011 C 
ATOM     25  C   UNL     1      32.988 -14.445 -22.349  0.00  0.00    -0.004 C 
ATOM     26  C   UNL     1      33.337 -12.790 -24.073  0.00  0.00    -0.004 C 
BRANCH  24  27
ATOM     27  C   UNL     1      33.709 -15.201 -24.620  0.00  0.00    +0.136 C 
BRANCH  27  29
ATOM     28  O   UNL     1      34.386 -17.479 -24.090  0.00  0.00    -0.250 OA
ATOM     29  C   UNL     1      34.589 -16.275 -24.012  0.00  0.00    +0.318 C 
BRANCH  29  30
ATOM     30  O   UNL     1      35.654 -15.745 -23.354  0.00  0.00    -0.480 OA
ATOM     31  H   UNL     1      36.366 -16.297 -23.095  0.00  0.00    +0.295 HD
ENDBRANCH  29  30
ENDBRANCH  27  29
ENDBRANCH  24  27
ENDBRANCH   4  21
TORSDOF 5
ENDMDL
MODEL 9
REMARK VINA RESULT:     -10.3      5.834     10.021
REMARK  Name = 11952989
REMARK  5 active torsions:
REMARK  status: ('A' for Active; 'I' for Inactive)
REMARK    1  A    between atoms: C_4  and  C_21
REMARK    2  A    between atoms: C_6  and  C_11
REMARK    3  A    between atoms: C_24  and  C_27
REMARK    4  A    between atoms: C_27  and  C_29
REMARK    5  A    between atoms: C_29  and  O_30
REMARK                            x       y       z     vdW  Elec       q    Type
REMARK                         _______ _______ _______ _____ _____    ______ ____
ROOT
ATOM      1  N   UNL     1      38.031 -22.972 -15.728  0.00  0.00    -0.297 N 
ATOM      2  N   UNL     1      36.387 -24.084 -14.363  0.00  0.00    -0.229 NA
ATOM      3  C   UNL     1      35.909 -22.813 -16.405  0.00  0.00    +0.033 C 
ATOM      4  C   UNL     1      36.737 -22.107 -17.318  0.00  0.00    +0.017 C 
ATOM      5  C   UNL     1      36.747 -23.341 -15.426  0.00  0.00    +0.132 C 
ATOM      6  C   UNL     1      34.109 -23.839 -15.205  0.00  0.00    +0.019 C 
ATOM      7  C   UNL     1      34.534 -23.074 -16.289  0.00  0.00    +0.004 C 
ATOM      8  C   UNL     1      38.037 -22.222 -16.875  0.00  0.00    +0.063 C 
ATOM      9  C   UNL     1      35.053 -24.304 -14.301  0.00  0.00    +0.100 C 
ATOM     10  H   UNL     1      38.829 -23.209 -15.201  0.00  0.00    +0.154 HD
ENDROOT
BRANCH   6  11
ATOM     11  C   UNL     1      32.705 -24.143 -15.027  0.00  0.00    +0.001 C 
ATOM     12  C   UNL     1      30.378 -23.742 -15.613  0.00  0.00    +0.000 C 
ATOM     13  C   UNL     1      31.745 -23.460 -15.773  0.00  0.00    +0.000 C 
ATOM     14  C   UNL     1      29.981 -24.732 -14.682  0.00  0.00    +0.000 C 
ATOM     15  C   UNL     1      32.315 -25.116 -14.113  0.00  0.00    +0.000 C 
ATOM     16  C   UNL     1      30.962 -25.410 -13.940  0.00  0.00    +0.000 C 
ATOM     17  C   UNL     1      29.397 -23.064 -16.355  0.00  0.00    +0.000 C 
ATOM     18  C   UNL     1      28.615 -25.015 -14.522  0.00  0.00    +0.000 C 
ATOM     19  C   UNL     1      28.044 -23.358 -16.181  0.00  0.00    +0.000 C 
ATOM     20  C   UNL     1      27.654 -24.332 -15.267  0.00  0.00    +0.000 C 
ENDBRANCH   6  11
BRANCH   4  21
ATOM     21  C   UNL     1      36.390 -21.378 -18.503  0.00  0.00    +0.001 C 
ATOM     22  C   UNL     1      35.150 -21.582 -19.111  0.00  0.00    -0.000 C 
ATOM     23  C   UNL     1      37.290 -20.463 -19.050  0.00  0.00    -0.000 C 
ATOM     24  C   UNL     1      35.714 -19.958 -20.809  0.00  0.00    -0.011 C 
ATOM     25  C   UNL     1      34.813 -20.873 -20.263  0.00  0.00    -0.004 C 
ATOM     26  C   UNL     1      36.953 -19.753 -20.202  0.00  0.00    -0.004 C 
BRANCH  24  27
ATOM     27  C   UNL     1      35.350 -19.198 -22.040  0.00  0.00    +0.136 C 
BRANCH  27  29
ATOM     28  O   UNL     1      35.122 -17.113 -20.804  0.00  0.00    -0.250 OA
ATOM     29  C   UNL     1      35.373 -17.695 -21.851  0.00  0.00    +0.318 C 
BRANCH  29  30
ATOM     30  O   UNL     1      35.709 -17.045 -22.997  0.00  0.00    -0.480 OA
ATOM     31  H   UNL     1      36.598 -16.789 -23.146  0.00  0.00    +0.295 HD
ENDBRANCH  29  30
ENDBRANCH  27  29
ENDBRANCH  24  27
ENDBRANCH   4  21
TORSDOF 5
ENDMDL
