MODEL 1
REMARK VINA RESULT:     -12.2      0.000      0.000
REMARK  Name = 118161062
REMARK  4 active torsions:
REMARK  status: ('A' for Active; 'I' for Inactive)
REMARK    1  A    between atoms: N_1  and  C_26
REMARK    2  A    between atoms: C_7  and  C_15
REMARK    3  A    between atoms: C_21  and  N_28
REMARK    4  A    between atoms: N_27  and  C_35
REMARK                            x       y       z     vdW  Elec       q    Type
REMARK                         _______ _______ _______ _____ _____    ______ ____
ROOT
ATOM      1  N   UNL     1      36.211 -23.267 -16.078  0.00  0.00    -0.286 N 
ATOM      2  N   UNL     1      34.806 -24.115 -12.761  0.00  0.00    -0.260 N 
ATOM      3  N   UNL     1      34.022 -23.692 -15.382  0.00  0.00    -0.384 NA
ATOM      4  N   UNL     1      36.950 -23.743 -13.248  0.00  0.00    -0.224 NA
ATOM      5  C   UNL     1      35.304 -23.583 -15.095  0.00  0.00    +0.216 C 
ATOM      6  C   UNL     1      35.729 -23.805 -13.725  0.00  0.00    +0.180 C 
ATOM      7  C   UNL     1      33.112 -24.015 -14.377  0.00  0.00    +0.162 C 
ATOM      8  C   UNL     1      33.470 -24.220 -13.090  0.00  0.00    +0.159 C 
ATOM      9  C   UNL     1      35.484 -24.260 -11.584  0.00  0.00    +0.088 C 
ATOM     10  C   UNL     1      36.804 -24.026 -11.910  0.00  0.00    +0.117 C 
ATOM     11  H   UNL     1      37.120 -23.625 -15.963  0.00  0.00    +0.155 HD
ENDROOT
BRANCH   7  15
ATOM     12  N   UNL     1      30.952 -25.064 -14.160  0.00  0.00    -0.386 NA
ATOM     13  N   UNL     1      29.848 -23.324 -16.063  0.00  0.00    -0.257 NA
ATOM     14  N   UNL     1      28.816 -26.109 -13.941  0.00  0.00    -0.335 N 
ATOM     15  C   UNL     1      31.685 -24.108 -14.763  0.00  0.00    +0.178 C 
ATOM     16  C   UNL     1      31.143 -23.253 -15.697  0.00  0.00    +0.128 C 
ATOM     17  C   UNL     1      29.656 -25.135 -14.525  0.00  0.00    +0.179 C 
ATOM     18  C   UNL     1      29.114 -24.280 -15.459  0.00  0.00    +0.199 C 
ATOM     19  H   UNL     1      29.177 -26.733 -13.270  0.00  0.00    +0.144 HD
ATOM     20  H   UNL     1      27.869 -26.164 -14.204  0.00  0.00    +0.144 HD
ENDBRANCH   7  15
BRANCH   1  26
ATOM     21  C   UNL     1      35.561 -20.949 -19.521  0.00  0.00    +0.048 C 
ATOM     22  C   UNL     1      34.590 -21.858 -19.098  0.00  0.00    +0.016 C 
ATOM     23  C   UNL     1      36.747 -20.811 -18.800  0.00  0.00    +0.016 C 
ATOM     24  C   UNL     1      34.805 -22.626 -17.954  0.00  0.00    +0.016 C 
ATOM     25  C   UNL     1      36.962 -21.580 -17.657  0.00  0.00    +0.016 C 
ATOM     26  C   UNL     1      35.992 -22.488 -17.233  0.00  0.00    +0.050 C 
BRANCH  21  28
ATOM     27  N   UNL     1      34.847 -18.405 -22.847  0.00  0.00    +0.394 N 
ATOM     28  N   UNL     1      35.344 -20.179 -20.668  0.00  0.00    -0.312 N 
ATOM     29  C   UNL     1      36.223 -18.676 -22.414  0.00  0.00    -0.055 C 
ATOM     30  C   UNL     1      34.020 -19.604 -22.665  0.00  0.00    -0.055 C 
ATOM     31  C   UNL     1      36.261 -19.062 -20.934  0.00  0.00    +0.068 C 
ATOM     32  C   UNL     1      33.984 -20.022 -21.194  0.00  0.00    +0.068 C 
ATOM     33  H   UNL     1      34.463 -17.644 -22.288  0.00  0.00    -0.079 HD
BRANCH  27  35
ATOM     34  O   UNL     1      33.348 -16.787 -25.143  0.00  0.00    -0.358 OA
ATOM     35  C   UNL     1      34.850 -18.028 -24.271  0.00  0.00    +0.002 C 
ATOM     36  C   UNL     1      33.442 -18.202 -24.840  0.00  0.00    +0.124 C 
ATOM     37  C   UNL     1      34.561 -16.530 -24.389  0.00  0.00    +0.124 C 
ENDBRANCH  27  35
ENDBRANCH  21  28
ENDBRANCH   1  26
TORSDOF 4
ENDMDL
MODEL 2
REMARK VINA RESULT:     -11.0      1.201      1.770
REMARK  Name = 118161062
REMARK  4 active torsions:
REMARK  status: ('A' for Active; 'I' for Inactive)
REMARK    1  A    between atoms: N_1  and  C_26
REMARK    2  A    between atoms: C_7  and  C_15
REMARK    3  A    between atoms: C_21  and  N_28
REMARK    4  A    between atoms: N_27  and  C_35
REMARK                            x       y       z     vdW  Elec       q    Type
REMARK                         _______ _______ _______ _____ _____    ______ ____
ROOT
ATOM      1  N   UNL     1      36.353 -22.785 -17.267  0.00  0.00    -0.286 N 
ATOM      2  N   UNL     1      35.241 -23.879 -13.911  0.00  0.00    -0.260 N 
ATOM      3  N   UNL     1      34.226 -23.213 -16.399  0.00  0.00    -0.384 NA
ATOM      4  N   UNL     1      37.340 -23.521 -14.572  0.00  0.00    -0.224 NA
ATOM      5  C   UNL     1      35.533 -23.161 -16.229  0.00  0.00    +0.216 C 
ATOM      6  C   UNL     1      36.078 -23.511 -14.931  0.00  0.00    +0.180 C 
ATOM      7  C   UNL     1      33.405 -23.598 -15.340  0.00  0.00    +0.162 C 
ATOM      8  C   UNL     1      33.878 -23.921 -14.115  0.00  0.00    +0.159 C 
ATOM      9  C   UNL     1      36.023 -24.141 -12.821  0.00  0.00    +0.088 C 
ATOM     10  C   UNL     1      37.313 -23.914 -13.254  0.00  0.00    +0.117 C 
ATOM     11  H   UNL     1      37.256 -23.175 -17.271  0.00  0.00    +0.155 HD
ENDROOT
BRANCH   7  15
ATOM     12  N   UNL     1      31.218 -24.500 -14.875  0.00  0.00    -0.386 NA
ATOM     13  N   UNL     1      30.044 -22.789 -16.762  0.00  0.00    -0.257 NA
ATOM     14  N   UNL     1      29.056 -25.400 -14.410  0.00  0.00    -0.335 N 
ATOM     15  C   UNL     1      31.946 -23.622 -15.592  0.00  0.00    +0.178 C 
ATOM     16  C   UNL     1      31.370 -22.781 -16.518  0.00  0.00    +0.128 C 
ATOM     17  C   UNL     1      29.893 -24.509 -15.118  0.00  0.00    +0.179 C 
ATOM     18  C   UNL     1      29.316 -23.668 -16.044  0.00  0.00    +0.199 C 
ATOM     19  H   UNL     1      29.442 -26.012 -13.742  0.00  0.00    +0.144 HD
ATOM     20  H   UNL     1      28.087 -25.409 -14.585  0.00  0.00    +0.144 HD
ENDBRANCH   7  15
BRANCH   1  26
ATOM     21  C   UNL     1      35.453 -20.159 -20.420  0.00  0.00    +0.048 C 
ATOM     22  C   UNL     1      36.734 -20.174 -19.869  0.00  0.00    +0.016 C 
ATOM     23  C   UNL     1      34.470 -21.016 -19.924  0.00  0.00    +0.016 C 
ATOM     24  C   UNL     1      37.034 -21.046 -18.823  0.00  0.00    +0.016 C 
ATOM     25  C   UNL     1      34.770 -21.889 -18.878  0.00  0.00    +0.016 C 
ATOM     26  C   UNL     1      36.051 -21.904 -18.327  0.00  0.00    +0.050 C 
BRANCH  21  28
ATOM     27  N   UNL     1      34.769 -17.573 -23.721  0.00  0.00    +0.394 N 
ATOM     28  N   UNL     1      35.153 -19.284 -21.469  0.00  0.00    -0.312 N 
ATOM     29  C   UNL     1      34.094 -18.875 -23.658  0.00  0.00    -0.055 C 
ATOM     30  C   UNL     1      34.888 -17.007 -22.372  0.00  0.00    -0.055 C 
ATOM     31  C   UNL     1      34.888 -19.858 -22.795  0.00  0.00    +0.068 C 
ATOM     32  C   UNL     1      35.708 -17.926 -21.465  0.00  0.00    +0.068 C 
ATOM     33  H   UNL     1      35.700 -17.697 -24.117  0.00  0.00    -0.079 HD
BRANCH  27  35
ATOM     34  O   UNL     1      34.220 -14.537 -24.506  0.00  0.00    -0.358 OA
ATOM     35  C   UNL     1      33.984 -16.657 -24.566  0.00  0.00    +0.002 C 
ATOM     36  C   UNL     1      33.476 -15.496 -23.711  0.00  0.00    +0.124 C 
ATOM     37  C   UNL     1      34.923 -15.615 -25.176  0.00  0.00    +0.124 C 
ENDBRANCH  27  35
ENDBRANCH  21  28
ENDBRANCH   1  26
TORSDOF 4
ENDMDL
MODEL 3
REMARK VINA RESULT:      -9.6      9.443     16.830
REMARK  Name = 118161062
REMARK  4 active torsions:
REMARK  status: ('A' for Active; 'I' for Inactive)
REMARK    1  A    between atoms: N_1  and  C_26
REMARK    2  A    between atoms: C_7  and  C_15
REMARK    3  A    between atoms: C_21  and  N_28
REMARK    4  A    between atoms: N_27  and  C_35
REMARK                            x       y       z     vdW  Elec       q    Type
REMARK                         _______ _______ _______ _____ _____    ______ ____
ROOT
ATOM      1  N   UNL     1      31.150  -8.039 -22.628  0.00  0.00    -0.286 N 
ATOM      2  N   UNL     1      31.918  -4.464 -23.198  0.00  0.00    -0.260 N 
ATOM      3  N   UNL     1      32.397  -6.964 -24.286  0.00  0.00    -0.384 NA
ATOM      4  N   UNL     1      30.691  -5.319 -21.544  0.00  0.00    -0.224 NA
ATOM      5  C   UNL     1      31.658  -6.895 -23.196  0.00  0.00    +0.216 C 
ATOM      6  C   UNL     1      31.397  -5.590 -22.617  0.00  0.00    +0.180 C 
ATOM      7  C   UNL     1      32.905  -5.796 -24.854  0.00  0.00    +0.162 C 
ATOM      8  C   UNL     1      32.690  -4.566 -24.337  0.00  0.00    +0.159 C 
ATOM      9  C   UNL     1      31.518  -3.398 -22.443  0.00  0.00    +0.088 C 
ATOM     10  C   UNL     1      30.762  -3.951 -21.430  0.00  0.00    +0.117 C 
ATOM     11  H   UNL     1      30.296  -7.944 -22.149  0.00  0.00    +0.155 HD
ENDROOT
BRANCH   7  15
ATOM     12  N   UNL     1      33.415  -5.175 -27.127  0.00  0.00    -0.386 NA
ATOM     13  N   UNL     1      35.560  -6.981 -27.203  0.00  0.00    -0.257 NA
ATOM     14  N   UNL     1      33.914  -4.555 -29.378  0.00  0.00    -0.335 N 
ATOM     15  C   UNL     1      33.738  -5.944 -26.069  0.00  0.00    +0.178 C 
ATOM     16  C   UNL     1      34.792  -6.831 -26.106  0.00  0.00    +0.128 C 
ATOM     17  C   UNL     1      34.184  -5.324 -28.224  0.00  0.00    +0.179 C 
ATOM     18  C   UNL     1      35.238  -6.211 -28.262  0.00  0.00    +0.199 C 
ATOM     19  H   UNL     1      33.167  -3.914 -29.379  0.00  0.00    +0.144 HD
ATOM     20  H   UNL     1      34.473  -4.661 -30.182  0.00  0.00    +0.144 HD
ENDBRANCH   7  15
BRANCH   1  26
ATOM     21  C   UNL     1      32.815 -11.895 -22.701  0.00  0.00    +0.048 C 
ATOM     22  C   UNL     1      33.499 -10.829 -23.285  0.00  0.00    +0.016 C 
ATOM     23  C   UNL     1      31.578 -11.680 -22.093  0.00  0.00    +0.016 C 
ATOM     24  C   UNL     1      32.947  -9.548 -23.260  0.00  0.00    +0.016 C 
ATOM     25  C   UNL     1      31.026 -10.400 -22.068  0.00  0.00    +0.016 C 
ATOM     26  C   UNL     1      31.710  -9.333 -22.651  0.00  0.00    +0.050 C 
BRANCH  21  28
ATOM     27  N   UNL     1      34.251 -15.892 -22.777  0.00  0.00    +0.394 N 
ATOM     28  N   UNL     1      33.369 -13.179 -22.726  0.00  0.00    -0.312 N 
ATOM     29  C   UNL     1      34.204 -15.106 -24.017  0.00  0.00    -0.055 C 
ATOM     30  C   UNL     1      34.597 -15.023 -21.648  0.00  0.00    -0.055 C 
ATOM     31  C   UNL     1      33.147 -14.004 -23.922  0.00  0.00    +0.068 C 
ATOM     32  C   UNL     1      33.555 -13.916 -21.472  0.00  0.00    +0.068 C 
ATOM     33  H   UNL     1      33.337 -16.312 -22.611  0.00  0.00    -0.079 HD
BRANCH  27  35
ATOM     34  O   UNL     1      34.955 -18.949 -22.238  0.00  0.00    -0.358 OA
ATOM     35  C   UNL     1      35.270 -16.948 -22.909  0.00  0.00    +0.002 C 
ATOM     36  C   UNL     1      35.368 -17.718 -21.592  0.00  0.00    +0.124 C 
ATOM     37  C   UNL     1      34.603 -18.218 -23.440  0.00  0.00    +0.124 C 
ENDBRANCH  27  35
ENDBRANCH  21  28
ENDBRANCH   1  26
TORSDOF 4
ENDMDL
