MODEL 1
REMARK VINA RESULT:     -11.5      0.000      0.000
REMARK  Name = 10430040
REMARK  12 active torsions:
REMARK  status: ('A' for Active; 'I' for Inactive)
REMARK    1  A    between atoms: C_1  and  N_3
REMARK    2  A    between atoms: C_1  and  C_12
REMARK    3  A    between atoms: C_1  and  C_19
REMARK    4  A    between atoms: C_4  and  C_6
REMARK    5  A    between atoms: C_6  and  C_7
REMARK    6  A    between atoms: C_7  and  C_9
REMARK    7  A    between atoms: C_9  and  O_10
REMARK    8  A    between atoms: C_12  and  C_13
REMARK    9  A    between atoms: C_13  and  C_16
REMARK   10  A    between atoms: C_16  and  O_17
REMARK   11  A    between atoms: C_19  and  C_20
REMARK   12  A    between atoms: C_23  and  C_26
REMARK                            x       y       z     vdW  Elec       q    Type
REMARK                         _______ _______ _______ _____ _____    ______ ____
ROOT
ATOM      1  C   UNL     1      33.459 -23.101 -16.203  0.00  0.00    +0.076 C 
ENDROOT
BRANCH   1   3
ATOM      2  O   UNL     1      30.710 -22.469 -16.845  0.00  0.00    -0.275 OA
ATOM      3  N   UNL     1      32.273 -23.826 -15.791  0.00  0.00    -0.306 N 
ATOM      4  C   UNL     1      30.993 -23.443 -16.152  0.00  0.00    +0.223 C 
ATOM      5  H   UNL     1      32.383 -24.628 -15.230  0.00  0.00    +0.149 HD
BRANCH   4   6
ATOM      6  C   UNL     1      29.950 -24.384 -15.578  0.00  0.00    +0.097 C 
BRANCH   6   7
ATOM      7  C   UNL     1      28.626 -23.684 -15.290  0.00  0.00    +0.119 C 
BRANCH   7   9
ATOM      8  O   UNL     1      27.455 -24.164 -17.368  0.00  0.00    -0.250 OA
ATOM      9  C   UNL     1      27.876 -23.350 -16.559  0.00  0.00    +0.314 C 
BRANCH   9  10
ATOM     10  O   UNL     1      27.715 -22.009 -16.702  0.00  0.00    -0.480 OA
ATOM     11  H   UNL     1      27.048 -21.674 -17.267  0.00  0.00    +0.295 HD
ENDBRANCH   9  10
ENDBRANCH   7   9
ENDBRANCH   6   7
ENDBRANCH   4   6
ENDBRANCH   1   3
BRANCH   1  12
ATOM     12  C   UNL     1      34.525 -23.234 -15.096  0.00  0.00    +0.031 C 
BRANCH  12  13
ATOM     13  C   UNL     1      34.507 -24.569 -14.329  0.00  0.00    +0.101 C 
ATOM     14  C   UNL     1      35.883 -25.231 -14.373  0.00  0.00    +0.012 C 
BRANCH  13  16
ATOM     15  O   UNL     1      34.710 -24.864 -11.920  0.00  0.00    -0.250 OA
ATOM     16  C   UNL     1      34.118 -24.375 -12.873  0.00  0.00    +0.313 C 
BRANCH  16  17
ATOM     17  O   UNL     1      33.004 -23.611 -12.735  0.00  0.00    -0.480 OA
ATOM     18  H   UNL     1      32.165 -24.018 -12.644  0.00  0.00    +0.295 HD
ENDBRANCH  16  17
ENDBRANCH  13  16
ENDBRANCH  12  13
ENDBRANCH   1  12
BRANCH   1  19
ATOM     19  C   UNL     1      33.952 -23.614 -17.567  0.00  0.00    +0.046 C 
BRANCH  19  20
ATOM     20  C   UNL     1      34.151 -22.507 -18.577  0.00  0.00    -0.021 C 
ATOM     21  C   UNL     1      35.439 -22.154 -18.981  0.00  0.00    -0.004 C 
ATOM     22  C   UNL     1      33.046 -21.837 -19.105  0.00  0.00    -0.004 C 
ATOM     23  C   UNL     1      34.519 -20.464 -20.442  0.00  0.00    -0.000 C 
ATOM     24  C   UNL     1      35.622 -21.133 -19.913  0.00  0.00    -0.000 C 
ATOM     25  C   UNL     1      33.230 -20.817 -20.038  0.00  0.00    -0.000 C 
BRANCH  23  26
ATOM     26  C   UNL     1      34.708 -19.405 -21.408  0.00  0.00    -0.000 C 
ATOM     27  C   UNL     1      34.363 -19.611 -22.744  0.00  0.00    -0.000 C 
ATOM     28  C   UNL     1      35.235 -18.178 -21.004  0.00  0.00    -0.000 C 
ATOM     29  C   UNL     1      34.545 -18.589 -23.677  0.00  0.00    +0.000 C 
ATOM     30  C   UNL     1      35.417 -17.156 -21.937  0.00  0.00    +0.000 C 
ATOM     31  C   UNL     1      35.072 -17.362 -23.273  0.00  0.00    +0.000 C 
ENDBRANCH  23  26
ENDBRANCH  19  20
ENDBRANCH   1  19
TORSDOF 12
ENDMDL
MODEL 2
REMARK VINA RESULT:     -11.3      1.029      1.577
REMARK  Name = 10430040
REMARK  12 active torsions:
REMARK  status: ('A' for Active; 'I' for Inactive)
REMARK    1  A    between atoms: C_1  and  N_3
REMARK    2  A    between atoms: C_1  and  C_12
REMARK    3  A    between atoms: C_1  and  C_19
REMARK    4  A    between atoms: C_4  and  C_6
REMARK    5  A    between atoms: C_6  and  C_7
REMARK    6  A    between atoms: C_7  and  C_9
REMARK    7  A    between atoms: C_9  and  O_10
REMARK    8  A    between atoms: C_12  and  C_13
REMARK    9  A    between atoms: C_13  and  C_16
REMARK   10  A    between atoms: C_16  and  O_17
REMARK   11  A    between atoms: C_19  and  C_20
REMARK   12  A    between atoms: C_23  and  C_26
REMARK                            x       y       z     vdW  Elec       q    Type
REMARK                         _______ _______ _______ _____ _____    ______ ____
ROOT
ATOM      1  C   UNL     1      33.497 -23.026 -16.159  0.00  0.00    +0.076 C 
ENDROOT
BRANCH   1   3
ATOM      2  O   UNL     1      30.760 -22.455 -16.901  0.00  0.00    -0.275 OA
ATOM      3  N   UNL     1      32.305 -23.723 -15.717  0.00  0.00    -0.306 N 
ATOM      4  C   UNL     1      31.031 -23.373 -16.131  0.00  0.00    +0.223 C 
ATOM      5  H   UNL     1      32.406 -24.480 -15.095  0.00  0.00    +0.149 HD
BRANCH   4   6
ATOM      6  C   UNL     1      29.980 -24.272 -15.508  0.00  0.00    +0.097 C 
BRANCH   6   7
ATOM      7  C   UNL     1      28.659 -23.548 -15.267  0.00  0.00    +0.119 C 
BRANCH   7   9
ATOM      8  O   UNL     1      27.504 -24.312 -17.268  0.00  0.00    -0.250 OA
ATOM      9  C   UNL     1      27.858 -23.396 -16.539  0.00  0.00    +0.314 C 
BRANCH   9  10
ATOM     10  O   UNL     1      27.564 -22.093 -16.788  0.00  0.00    -0.480 OA
ATOM     11  H   UNL     1      27.664 -21.453 -16.112  0.00  0.00    +0.295 HD
ENDBRANCH   9  10
ENDBRANCH   7   9
ENDBRANCH   6   7
ENDBRANCH   4   6
ENDBRANCH   1   3
BRANCH   1  12
ATOM     12  C   UNL     1      34.580 -23.167 -15.069  0.00  0.00    +0.031 C 
BRANCH  12  13
ATOM     13  C   UNL     1      35.900 -23.806 -15.539  0.00  0.00    +0.101 C 
ATOM     14  C   UNL     1      37.037 -22.787 -15.489  0.00  0.00    +0.012 C 
BRANCH  13  16
ATOM     15  O   UNL     1      37.435 -25.350 -14.449  0.00  0.00    -0.250 OA
ATOM     16  C   UNL     1      36.286 -24.994 -14.675  0.00  0.00    +0.313 C 
BRANCH  16  17
ATOM     17  O   UNL     1      35.202 -25.655 -14.192  0.00  0.00    -0.480 OA
ATOM     18  H   UNL     1      35.294 -26.528 -13.865  0.00  0.00    +0.295 HD
ENDBRANCH  16  17
ENDBRANCH  13  16
ENDBRANCH  12  13
ENDBRANCH   1  12
BRANCH   1  19
ATOM     19  C   UNL     1      33.955 -23.565 -17.526  0.00  0.00    +0.046 C 
BRANCH  19  20
ATOM     20  C   UNL     1      34.151 -22.476 -18.555  0.00  0.00    -0.021 C 
ATOM     21  C   UNL     1      35.439 -22.121 -18.959  0.00  0.00    -0.004 C 
ATOM     22  C   UNL     1      33.044 -21.824 -19.100  0.00  0.00    -0.004 C 
ATOM     23  C   UNL     1      34.512 -20.464 -20.455  0.00  0.00    -0.000 C 
ATOM     24  C   UNL     1      35.619 -21.116 -19.909  0.00  0.00    -0.000 C 
ATOM     25  C   UNL     1      33.225 -20.819 -20.050  0.00  0.00    -0.000 C 
BRANCH  23  26
ATOM     26  C   UNL     1      34.699 -19.423 -21.439  0.00  0.00    -0.000 C 
ATOM     27  C   UNL     1      35.252 -18.199 -21.063  0.00  0.00    -0.000 C 
ATOM     28  C   UNL     1      34.328 -19.642 -22.766  0.00  0.00    -0.000 C 
ATOM     29  C   UNL     1      35.434 -17.193 -22.013  0.00  0.00    +0.000 C 
ATOM     30  C   UNL     1      34.509 -18.636 -23.716  0.00  0.00    +0.000 C 
ATOM     31  C   UNL     1      35.062 -17.412 -23.340  0.00  0.00    +0.000 C 
ENDBRANCH  23  26
ENDBRANCH  19  20
ENDBRANCH   1  19
TORSDOF 12
ENDMDL
MODEL 3
REMARK VINA RESULT:     -10.7      1.153      2.132
REMARK  Name = 10430040
REMARK  12 active torsions:
REMARK  status: ('A' for Active; 'I' for Inactive)
REMARK    1  A    between atoms: C_1  and  N_3
REMARK    2  A    between atoms: C_1  and  C_12
REMARK    3  A    between atoms: C_1  and  C_19
REMARK    4  A    between atoms: C_4  and  C_6
REMARK    5  A    between atoms: C_6  and  C_7
REMARK    6  A    between atoms: C_7  and  C_9
REMARK    7  A    between atoms: C_9  and  O_10
REMARK    8  A    between atoms: C_12  and  C_13
REMARK    9  A    between atoms: C_13  and  C_16
REMARK   10  A    between atoms: C_16  and  O_17
REMARK   11  A    between atoms: C_19  and  C_20
REMARK   12  A    between atoms: C_23  and  C_26
REMARK                            x       y       z     vdW  Elec       q    Type
REMARK                         _______ _______ _______ _____ _____    ______ ____
ROOT
ATOM      1  C   UNL     1      33.574 -23.157 -16.236  0.00  0.00    +0.076 C 
ENDROOT
BRANCH   1   3
ATOM      2  O   UNL     1      30.759 -22.665 -16.688  0.00  0.00    -0.275 OA
ATOM      3  N   UNL     1      32.465 -24.022 -15.884  0.00  0.00    -0.306 N 
ATOM      4  C   UNL     1      31.144 -23.697 -16.144  0.00  0.00    +0.223 C 
ATOM      5  H   UNL     1      32.659 -24.880 -15.442  0.00  0.00    +0.149 HD
BRANCH   4   6
ATOM      6  C   UNL     1      30.202 -24.787 -15.667  0.00  0.00    +0.097 C 
BRANCH   6   7
ATOM      7  C   UNL     1      29.664 -24.520 -14.265  0.00  0.00    +0.119 C 
BRANCH   7   9
ATOM      8  O   UNL     1      30.862 -24.005 -12.211  0.00  0.00    -0.250 OA
ATOM      9  C   UNL     1      30.727 -24.701 -13.207  0.00  0.00    +0.314 C 
BRANCH   9  10
ATOM     10  O   UNL     1      31.537 -25.754 -13.493  0.00  0.00    -0.480 OA
ATOM     11  H   UNL     1      32.458 -25.621 -13.600  0.00  0.00    +0.295 HD
ENDBRANCH   9  10
ENDBRANCH   7   9
ENDBRANCH   6   7
ENDBRANCH   4   6
ENDBRANCH   1   3
BRANCH   1  12
ATOM     12  C   UNL     1      34.574 -23.139 -15.062  0.00  0.00    +0.031 C 
BRANCH  12  13
ATOM     13  C   UNL     1      34.793 -24.498 -14.370  0.00  0.00    +0.101 C 
ATOM     14  C   UNL     1      36.144 -25.090 -14.767  0.00  0.00    +0.012 C 
BRANCH  13  16
ATOM     15  O   UNL     1      35.566 -24.874 -12.092  0.00  0.00    -0.250 OA
ATOM     16  C   UNL     1      34.755 -24.369 -12.857  0.00  0.00    +0.313 C 
BRANCH  16  17
ATOM     17  O   UNL     1      33.688 -23.646 -12.428  0.00  0.00    -0.480 OA
ATOM     18  H   UNL     1      33.080 -24.023 -11.823  0.00  0.00    +0.295 HD
ENDBRANCH  16  17
ENDBRANCH  13  16
ENDBRANCH  12  13
ENDBRANCH   1  12
BRANCH   1  19
ATOM     19  C   UNL     1      34.215 -23.618 -17.556  0.00  0.00    +0.046 C 
BRANCH  19  20
ATOM     20  C   UNL     1      34.353 -22.504 -18.568  0.00  0.00    -0.021 C 
ATOM     21  C   UNL     1      35.620 -22.094 -18.987  0.00  0.00    -0.004 C 
ATOM     22  C   UNL     1      33.214 -21.883 -19.082  0.00  0.00    -0.004 C 
ATOM     23  C   UNL     1      34.608 -20.446 -20.435  0.00  0.00    -0.000 C 
ATOM     24  C   UNL     1      35.746 -21.066 -19.920  0.00  0.00    -0.000 C 
ATOM     25  C   UNL     1      33.341 -20.855 -20.016  0.00  0.00    -0.000 C 
BRANCH  23  26
ATOM     26  C   UNL     1      34.739 -19.380 -21.402  0.00  0.00    -0.000 C 
ATOM     27  C   UNL     1      35.243 -18.140 -21.010  0.00  0.00    -0.000 C 
ATOM     28  C   UNL     1      34.364 -19.591 -22.729  0.00  0.00    -0.000 C 
ATOM     29  C   UNL     1      35.372 -17.111 -21.943  0.00  0.00    +0.000 C 
ATOM     30  C   UNL     1      34.493 -18.563 -23.663  0.00  0.00    +0.000 C 
ATOM     31  C   UNL     1      34.996 -17.322 -23.270  0.00  0.00    +0.000 C 
ENDBRANCH  23  26
ENDBRANCH  19  20
ENDBRANCH   1  19
TORSDOF 12
ENDMDL
MODEL 4
REMARK VINA RESULT:     -10.4      1.804      2.483
REMARK  Name = 10430040
REMARK  12 active torsions:
REMARK  status: ('A' for Active; 'I' for Inactive)
REMARK    1  A    between atoms: C_1  and  N_3
REMARK    2  A    between atoms: C_1  and  C_12
REMARK    3  A    between atoms: C_1  and  C_19
REMARK    4  A    between atoms: C_4  and  C_6
REMARK    5  A    between atoms: C_6  and  C_7
REMARK    6  A    between atoms: C_7  and  C_9
REMARK    7  A    between atoms: C_9  and  O_10
REMARK    8  A    between atoms: C_12  and  C_13
REMARK    9  A    between atoms: C_13  and  C_16
REMARK   10  A    between atoms: C_16  and  O_17
REMARK   11  A    between atoms: C_19  and  C_20
REMARK   12  A    between atoms: C_23  and  C_26
REMARK                            x       y       z     vdW  Elec       q    Type
REMARK                         _______ _______ _______ _____ _____    ______ ____
ROOT
ATOM      1  C   UNL     1      31.477 -22.855 -16.087  0.00  0.00    +0.076 C 
ENDROOT
BRANCH   1   3
ATOM      2  O   UNL     1      29.004 -22.050 -14.819  0.00  0.00    -0.275 OA
ATOM      3  N   UNL     1      30.130 -23.219 -16.482  0.00  0.00    -0.306 N 
ATOM      4  C   UNL     1      29.003 -22.779 -15.807  0.00  0.00    +0.223 C 
ATOM      5  H   UNL     1      30.011 -23.803 -17.266  0.00  0.00    +0.149 HD
BRANCH   4   6
ATOM      6  C   UNL     1      27.734 -23.317 -16.442  0.00  0.00    +0.097 C 
BRANCH   6   7
ATOM      7  C   UNL     1      26.539 -22.393 -16.229  0.00  0.00    +0.119 C 
BRANCH   7   9
ATOM      8  O   UNL     1      25.817 -22.298 -18.551  0.00  0.00    -0.250 OA
ATOM      9  C   UNL     1      26.107 -21.722 -17.512  0.00  0.00    +0.314 C 
BRANCH   9  10
ATOM     10  O   UNL     1      26.076 -20.371 -17.379  0.00  0.00    -0.480 OA
ATOM     11  H   UNL     1      26.874 -19.881 -17.370  0.00  0.00    +0.295 HD
ENDBRANCH   9  10
ENDBRANCH   7   9
ENDBRANCH   6   7
ENDBRANCH   4   6
ENDBRANCH   1   3
BRANCH   1  12
ATOM     12  C   UNL     1      31.639 -23.136 -14.579  0.00  0.00    +0.031 C 
BRANCH  12  13
ATOM     13  C   UNL     1      32.218 -24.520 -14.231  0.00  0.00    +0.101 C 
ATOM     14  C   UNL     1      33.392 -24.382 -13.264  0.00  0.00    +0.012 C 
BRANCH  13  16
ATOM     15  O   UNL     1      30.020 -25.538 -13.975  0.00  0.00    -0.250 OA
ATOM     16  C   UNL     1      31.175 -25.419 -13.588  0.00  0.00    +0.313 C 
BRANCH  16  17
ATOM     17  O   UNL     1      31.657 -26.068 -12.497  0.00  0.00    -0.480 OA
ATOM     18  H   UNL     1      32.334 -26.708 -12.593  0.00  0.00    +0.295 HD
ENDBRANCH  16  17
ENDBRANCH  13  16
ENDBRANCH  12  13
ENDBRANCH   1  12
BRANCH   1  19
ATOM     19  C   UNL     1      32.508 -23.609 -16.946  0.00  0.00    +0.046 C 
BRANCH  19  20
ATOM     20  C   UNL     1      33.230 -22.711 -17.924  0.00  0.00    -0.021 C 
ATOM     21  C   UNL     1      32.505 -21.846 -18.744  0.00  0.00    -0.004 C 
ATOM     22  C   UNL     1      34.623 -22.749 -18.008  0.00  0.00    -0.004 C 
ATOM     23  C   UNL     1      34.564 -21.055 -19.730  0.00  0.00    -0.000 C 
ATOM     24  C   UNL     1      33.172 -21.018 -19.646  0.00  0.00    -0.000 C 
ATOM     25  C   UNL     1      35.290 -21.920 -18.910  0.00  0.00    -0.000 C 
BRANCH  23  26
ATOM     26  C   UNL     1      35.256 -20.196 -20.665  0.00  0.00    -0.000 C 
ATOM     27  C   UNL     1      34.608 -19.758 -21.820  0.00  0.00    -0.000 C 
ATOM     28  C   UNL     1      36.571 -19.804 -20.412  0.00  0.00    -0.000 C 
ATOM     29  C   UNL     1      35.274 -18.929 -22.723  0.00  0.00    +0.000 C 
ATOM     30  C   UNL     1      37.237 -18.975 -21.315  0.00  0.00    +0.000 C 
ATOM     31  C   UNL     1      36.589 -18.537 -22.470  0.00  0.00    +0.000 C 
ENDBRANCH  23  26
ENDBRANCH  19  20
ENDBRANCH   1  19
TORSDOF 12
ENDMDL
MODEL 5
REMARK VINA RESULT:      -9.9      1.520      2.213
REMARK  Name = 10430040
REMARK  12 active torsions:
REMARK  status: ('A' for Active; 'I' for Inactive)
REMARK    1  A    between atoms: C_1  and  N_3
REMARK    2  A    between atoms: C_1  and  C_12
REMARK    3  A    between atoms: C_1  and  C_19
REMARK    4  A    between atoms: C_4  and  C_6
REMARK    5  A    between atoms: C_6  and  C_7
REMARK    6  A    between atoms: C_7  and  C_9
REMARK    7  A    between atoms: C_9  and  O_10
REMARK    8  A    between atoms: C_12  and  C_13
REMARK    9  A    between atoms: C_13  and  C_16
REMARK   10  A    between atoms: C_16  and  O_17
REMARK   11  A    between atoms: C_19  and  C_20
REMARK   12  A    between atoms: C_23  and  C_26
REMARK                            x       y       z     vdW  Elec       q    Type
REMARK                         _______ _______ _______ _____ _____    ______ ____
ROOT
ATOM      1  C   UNL     1      33.988 -23.425 -14.510  0.00  0.00    +0.076 C 
ENDROOT
BRANCH   1   3
ATOM      2  O   UNL     1      31.685 -25.127 -14.103  0.00  0.00    -0.275 OA
ATOM      3  N   UNL     1      32.595 -23.026 -14.495  0.00  0.00    -0.306 N 
ATOM      4  C   UNL     1      31.558 -23.920 -14.291  0.00  0.00    +0.223 C 
ATOM      5  H   UNL     1      32.376 -22.076 -14.635  0.00  0.00    +0.149 HD
BRANCH   4   6
ATOM      6  C   UNL     1      30.210 -23.223 -14.327  0.00  0.00    +0.097 C 
BRANCH   6   7
ATOM      7  C   UNL     1      29.767 -22.884 -15.747  0.00  0.00    +0.119 C 
BRANCH   7   9
ATOM      8  O   UNL     1      27.579 -23.903 -15.436  0.00  0.00    -0.250 OA
ATOM      9  C   UNL     1      28.272 -23.019 -15.920  0.00  0.00    +0.314 C 
BRANCH   9  10
ATOM     10  O   UNL     1      27.770 -22.022 -16.694  0.00  0.00    -0.480 OA
ATOM     11  H   UNL     1      28.214 -21.769 -17.479  0.00  0.00    +0.295 HD
ENDBRANCH   9  10
ENDBRANCH   7   9
ENDBRANCH   6   7
ENDBRANCH   4   6
ENDBRANCH   1   3
BRANCH   1  12
ATOM     12  C   UNL     1      34.264 -24.291 -13.264  0.00  0.00    +0.031 C 
BRANCH  12  13
ATOM     13  C   UNL     1      35.738 -24.682 -13.054  0.00  0.00    +0.101 C 
ATOM     14  C   UNL     1      36.628 -23.440 -13.049  0.00  0.00    +0.012 C 
BRANCH  13  16
ATOM     15  O   UNL     1      36.866 -26.186 -11.505  0.00  0.00    -0.250 OA
ATOM     16  C   UNL     1      35.942 -25.419 -11.741  0.00  0.00    +0.313 C 
BRANCH  16  17
ATOM     17  O   UNL     1      34.955 -25.157 -10.845  0.00  0.00    -0.480 OA
ATOM     18  H   UNL     1      35.151 -25.123  -9.929  0.00  0.00    +0.295 HD
ENDBRANCH  16  17
ENDBRANCH  13  16
ENDBRANCH  12  13
ENDBRANCH   1  12
BRANCH   1  19
ATOM     19  C   UNL     1      34.322 -24.152 -15.825  0.00  0.00    +0.046 C 
BRANCH  19  20
ATOM     20  C   UNL     1      34.635 -23.205 -16.961  0.00  0.00    -0.021 C 
ATOM     21  C   UNL     1      35.890 -22.600 -17.040  0.00  0.00    -0.004 C 
ATOM     22  C   UNL     1      33.668 -22.935 -17.930  0.00  0.00    -0.004 C 
ATOM     23  C   UNL     1      35.212 -21.457 -19.058  0.00  0.00    -0.000 C 
ATOM     24  C   UNL     1      36.178 -21.727 -18.088  0.00  0.00    -0.000 C 
ATOM     25  C   UNL     1      33.957 -22.062 -18.979  0.00  0.00    -0.000 C 
BRANCH  23  26
ATOM     26  C   UNL     1      35.510 -20.552 -20.145  0.00  0.00    -0.000 C 
ATOM     27  C   UNL     1      36.769 -19.957 -20.231  0.00  0.00    -0.000 C 
ATOM     28  C   UNL     1      34.541 -20.275 -21.109  0.00  0.00    -0.000 C 
ATOM     29  C   UNL     1      37.058 -19.084 -21.280  0.00  0.00    +0.000 C 
ATOM     30  C   UNL     1      34.830 -19.402 -22.158  0.00  0.00    +0.000 C 
ATOM     31  C   UNL     1      36.088 -18.806 -22.243  0.00  0.00    +0.000 C 
ENDBRANCH  23  26
ENDBRANCH  19  20
ENDBRANCH   1  19
TORSDOF 12
ENDMDL
MODEL 6
REMARK VINA RESULT:      -9.8      2.212      5.269
REMARK  Name = 10430040
REMARK  12 active torsions:
REMARK  status: ('A' for Active; 'I' for Inactive)
REMARK    1  A    between atoms: C_1  and  N_3
REMARK    2  A    between atoms: C_1  and  C_12
REMARK    3  A    between atoms: C_1  and  C_19
REMARK    4  A    between atoms: C_4  and  C_6
REMARK    5  A    between atoms: C_6  and  C_7
REMARK    6  A    between atoms: C_7  and  C_9
REMARK    7  A    between atoms: C_9  and  O_10
REMARK    8  A    between atoms: C_12  and  C_13
REMARK    9  A    between atoms: C_13  and  C_16
REMARK   10  A    between atoms: C_16  and  O_17
REMARK   11  A    between atoms: C_19  and  C_20
REMARK   12  A    between atoms: C_23  and  C_26
REMARK                            x       y       z     vdW  Elec       q    Type
REMARK                         _______ _______ _______ _____ _____    ______ ____
ROOT
ATOM      1  C   UNL     1      33.170 -23.783 -15.241  0.00  0.00    +0.076 C 
ENDROOT
BRANCH   1   3
ATOM      2  O   UNL     1      34.701 -24.858 -13.035  0.00  0.00    -0.275 OA
ATOM      3  N   UNL     1      34.497 -23.382 -14.817  0.00  0.00    -0.306 N 
ATOM      4  C   UNL     1      35.151 -23.961 -13.742  0.00  0.00    +0.223 C 
ATOM      5  H   UNL     1      34.955 -22.667 -15.316  0.00  0.00    +0.149 HD
BRANCH   4   6
ATOM      6  C   UNL     1      36.520 -23.343 -13.530  0.00  0.00    +0.097 C 
BRANCH   6   7
ATOM      7  C   UNL     1      37.523 -24.333 -12.946  0.00  0.00    +0.119 C 
BRANCH   7   9
ATOM      8  O   UNL     1      37.181 -24.615 -10.554  0.00  0.00    -0.250 OA
ATOM      9  C   UNL     1      37.777 -24.082 -11.478  0.00  0.00    +0.314 C 
BRANCH   9  10
ATOM     10  O   UNL     1      38.770 -23.173 -11.296  0.00  0.00    -0.480 OA
ATOM     11  H   UNL     1      39.018 -22.602 -11.996  0.00  0.00    +0.295 HD
ENDBRANCH   9  10
ENDBRANCH   7   9
ENDBRANCH   6   7
ENDBRANCH   4   6
ENDBRANCH   1   3
BRANCH   1  12
ATOM     12  C   UNL     1      32.206 -22.597 -15.025  0.00  0.00    +0.031 C 
BRANCH  12  13
ATOM     13  C   UNL     1      30.947 -22.921 -14.200  0.00  0.00    +0.101 C 
ATOM     14  C   UNL     1      29.962 -23.746 -15.025  0.00  0.00    +0.012 C 
BRANCH  13  16
ATOM     15  O   UNL     1      30.724 -24.729 -12.583  0.00  0.00    -0.250 OA
ATOM     16  C   UNL     1      31.287 -23.702 -12.942  0.00  0.00    +0.313 C 
BRANCH  16  17
ATOM     17  O   UNL     1      32.280 -23.118 -12.224  0.00  0.00    -0.480 OA
ATOM     18  H   UNL     1      32.325 -22.184 -12.160  0.00  0.00    +0.295 HD
ENDBRANCH  16  17
ENDBRANCH  13  16
ENDBRANCH  12  13
ENDBRANCH   1  12
BRANCH   1  19
ATOM     19  C   UNL     1      33.198 -24.267 -16.701  0.00  0.00    +0.046 C 
BRANCH  19  20
ATOM     20  C   UNL     1      33.765 -23.239 -17.654  0.00  0.00    -0.021 C 
ATOM     21  C   UNL     1      32.915 -22.541 -18.513  0.00  0.00    -0.004 C 
ATOM     22  C   UNL     1      35.138 -22.989 -17.674  0.00  0.00    -0.004 C 
ATOM     23  C   UNL     1      34.811 -21.342 -19.412  0.00  0.00    -0.000 C 
ATOM     24  C   UNL     1      33.439 -21.593 -19.391  0.00  0.00    -0.000 C 
ATOM     25  C   UNL     1      35.660 -22.040 -18.552  0.00  0.00    -0.000 C 
BRANCH  23  26
ATOM     26  C   UNL     1      35.353 -20.359 -20.322  0.00  0.00    -0.000 C 
ATOM     27  C   UNL     1      36.693 -19.982 -20.225  0.00  0.00    -0.000 C 
ATOM     28  C   UNL     1      34.538 -19.788 -21.300  0.00  0.00    -0.000 C 
ATOM     29  C   UNL     1      37.217 -19.034 -21.104  0.00  0.00    +0.000 C 
ATOM     30  C   UNL     1      35.062 -18.840 -22.179  0.00  0.00    +0.000 C 
ATOM     31  C   UNL     1      36.401 -18.462 -22.081  0.00  0.00    +0.000 C 
ENDBRANCH  23  26
ENDBRANCH  19  20
ENDBRANCH   1  19
TORSDOF 12
ENDMDL
MODEL 7
REMARK VINA RESULT:      -9.5      2.344      5.297
REMARK  Name = 10430040
REMARK  12 active torsions:
REMARK  status: ('A' for Active; 'I' for Inactive)
REMARK    1  A    between atoms: C_1  and  N_3
REMARK    2  A    between atoms: C_1  and  C_12
REMARK    3  A    between atoms: C_1  and  C_19
REMARK    4  A    between atoms: C_4  and  C_6
REMARK    5  A    between atoms: C_6  and  C_7
REMARK    6  A    between atoms: C_7  and  C_9
REMARK    7  A    between atoms: C_9  and  O_10
REMARK    8  A    between atoms: C_12  and  C_13
REMARK    9  A    between atoms: C_13  and  C_16
REMARK   10  A    between atoms: C_16  and  O_17
REMARK   11  A    between atoms: C_19  and  C_20
REMARK   12  A    between atoms: C_23  and  C_26
REMARK                            x       y       z     vdW  Elec       q    Type
REMARK                         _______ _______ _______ _____ _____    ______ ____
ROOT
ATOM      1  C   UNL     1      33.522 -23.805 -15.635  0.00  0.00    +0.076 C 
ENDROOT
BRANCH   1   3
ATOM      2  O   UNL     1      35.450 -25.395 -14.177  0.00  0.00    -0.275 OA
ATOM      3  N   UNL     1      34.949 -23.572 -15.527  0.00  0.00    -0.306 N 
ATOM      4  C   UNL     1      35.794 -24.395 -14.802  0.00  0.00    +0.223 C 
ATOM      5  H   UNL     1      35.335 -22.794 -15.992  0.00  0.00    +0.149 HD
BRANCH   4   6
ATOM      6  C   UNL     1      37.230 -23.908 -14.866  0.00  0.00    +0.097 C 
BRANCH   6   7
ATOM      7  C   UNL     1      38.110 -24.546 -13.796  0.00  0.00    +0.119 C 
BRANCH   7   9
ATOM      8  O   UNL     1      40.446 -25.029 -14.276  0.00  0.00    -0.250 OA
ATOM      9  C   UNL     1      39.264 -25.314 -14.398  0.00  0.00    +0.314 C 
BRANCH   9  10
ATOM     10  O   UNL     1      38.828 -26.388 -15.108  0.00  0.00    -0.480 OA
ATOM     11  H   UNL     1      38.032 -26.818 -14.866  0.00  0.00    +0.295 HD
ENDBRANCH   9  10
ENDBRANCH   7   9
ENDBRANCH   6   7
ENDBRANCH   4   6
ENDBRANCH   1   3
BRANCH   1  12
ATOM     12  C   UNL     1      32.780 -22.593 -15.035  0.00  0.00    +0.031 C 
BRANCH  12  13
ATOM     13  C   UNL     1      31.744 -22.934 -13.948  0.00  0.00    +0.101 C 
ATOM     14  C   UNL     1      30.418 -23.351 -14.582  0.00  0.00    +0.012 C 
BRANCH  13  16
ATOM     15  O   UNL     1      31.607 -25.107 -12.855  0.00  0.00    -0.250 OA
ATOM     16  C   UNL     1      32.221 -24.067 -13.055  0.00  0.00    +0.313 C 
BRANCH  16  17
ATOM     17  O   UNL     1      33.412 -23.790 -12.463  0.00  0.00    -0.480 OA
ATOM     18  H   UNL     1      33.909 -23.044 -12.737  0.00  0.00    +0.295 HD
ENDBRANCH  16  17
ENDBRANCH  13  16
ENDBRANCH  12  13
ENDBRANCH   1  12
BRANCH   1  19
ATOM     19  C   UNL     1      33.133 -24.075 -17.100  0.00  0.00    +0.046 C 
BRANCH  19  20
ATOM     20  C   UNL     1      33.664 -23.031 -18.054  0.00  0.00    -0.021 C 
ATOM     21  C   UNL     1      32.781 -22.172 -18.710  0.00  0.00    -0.004 C 
ATOM     22  C   UNL     1      35.037 -22.925 -18.280  0.00  0.00    -0.004 C 
ATOM     23  C   UNL     1      34.644 -21.102 -19.816  0.00  0.00    -0.000 C 
ATOM     24  C   UNL     1      33.272 -21.208 -19.590  0.00  0.00    -0.000 C 
ATOM     25  C   UNL     1      35.527 -21.961 -19.160  0.00  0.00    -0.000 C 
BRANCH  23  26
ATOM     26  C   UNL     1      35.152 -20.103 -20.729  0.00  0.00    -0.000 C 
ATOM     27  C   UNL     1      34.366 -19.667 -21.795  0.00  0.00    -0.000 C 
ATOM     28  C   UNL     1      36.429 -19.572 -20.542  0.00  0.00    -0.000 C 
ATOM     29  C   UNL     1      34.855 -18.702 -22.676  0.00  0.00    +0.000 C 
ATOM     30  C   UNL     1      36.919 -18.606 -21.423  0.00  0.00    +0.000 C 
ATOM     31  C   UNL     1      36.132 -18.172 -22.490  0.00  0.00    +0.000 C 
ENDBRANCH  23  26
ENDBRANCH  19  20
ENDBRANCH   1  19
TORSDOF 12
ENDMDL
MODEL 8
REMARK VINA RESULT:      -9.4      2.771      5.886
REMARK  Name = 10430040
REMARK  12 active torsions:
REMARK  status: ('A' for Active; 'I' for Inactive)
REMARK    1  A    between atoms: C_1  and  N_3
REMARK    2  A    between atoms: C_1  and  C_12
REMARK    3  A    between atoms: C_1  and  C_19
REMARK    4  A    between atoms: C_4  and  C_6
REMARK    5  A    between atoms: C_6  and  C_7
REMARK    6  A    between atoms: C_7  and  C_9
REMARK    7  A    between atoms: C_9  and  O_10
REMARK    8  A    between atoms: C_12  and  C_13
REMARK    9  A    between atoms: C_13  and  C_16
REMARK   10  A    between atoms: C_16  and  O_17
REMARK   11  A    between atoms: C_19  and  C_20
REMARK   12  A    between atoms: C_23  and  C_26
REMARK                            x       y       z     vdW  Elec       q    Type
REMARK                         _______ _______ _______ _____ _____    ______ ____
ROOT
ATOM      1  C   UNL     1      35.669 -24.682 -15.435  0.00  0.00    +0.076 C 
ENDROOT
BRANCH   1   3
ATOM      2  O   UNL     1      36.523 -27.406 -15.907  0.00  0.00    -0.275 OA
ATOM      3  N   UNL     1      36.566 -25.474 -14.617  0.00  0.00    -0.306 N 
ATOM      4  C   UNL     1      36.917 -26.777 -14.928  0.00  0.00    +0.223 C 
ATOM      5  H   UNL     1      36.945 -25.067 -13.804  0.00  0.00    +0.149 HD
BRANCH   4   6
ATOM      6  C   UNL     1      37.867 -27.356 -13.897  0.00  0.00    +0.097 C 
BRANCH   6   7
ATOM      7  C   UNL     1      38.686 -26.282 -13.189  0.00  0.00    +0.119 C 
BRANCH   7   9
ATOM      8  O   UNL     1      40.990 -26.632 -13.889  0.00  0.00    -0.250 OA
ATOM      9  C   UNL     1      39.965 -25.966 -13.929  0.00  0.00    +0.314 C 
BRANCH   9  10
ATOM     10  O   UNL     1      39.845 -24.831 -14.665  0.00  0.00    -0.480 OA
ATOM     11  H   UNL     1      39.320 -24.122 -14.351  0.00  0.00    +0.295 HD
ENDBRANCH   9  10
ENDBRANCH   7   9
ENDBRANCH   6   7
ENDBRANCH   4   6
ENDBRANCH   1   3
BRANCH   1  12
ATOM     12  C   UNL     1      34.216 -25.030 -15.047  0.00  0.00    +0.031 C 
BRANCH  12  13
ATOM     13  C   UNL     1      33.416 -23.876 -14.414  0.00  0.00    +0.101 C 
ATOM     14  C   UNL     1      32.229 -23.500 -15.299  0.00  0.00    +0.012 C 
BRANCH  13  16
ATOM     15  O   UNL     1      31.808 -23.891 -12.585  0.00  0.00    -0.250 OA
ATOM     16  C   UNL     1      32.887 -24.248 -13.040  0.00  0.00    +0.313 C 
BRANCH  16  17
ATOM     17  O   UNL     1      33.765 -25.011 -12.338  0.00  0.00    -0.480 OA
ATOM     18  H   UNL     1      33.452 -25.717 -11.808  0.00  0.00    +0.295 HD
ENDBRANCH  16  17
ENDBRANCH  13  16
ENDBRANCH  12  13
ENDBRANCH   1  12
BRANCH   1  19
ATOM     19  C   UNL     1      35.984 -23.184 -15.278  0.00  0.00    +0.046 C 
BRANCH  19  20
ATOM     20  C   UNL     1      35.967 -22.437 -16.592  0.00  0.00    -0.021 C 
ATOM     21  C   UNL     1      34.924 -22.639 -17.497  0.00  0.00    -0.004 C 
ATOM     22  C   UNL     1      36.995 -21.545 -16.900  0.00  0.00    -0.004 C 
ATOM     23  C   UNL     1      35.936 -21.057 -19.017  0.00  0.00    -0.000 C 
ATOM     24  C   UNL     1      34.909 -21.949 -18.708  0.00  0.00    -0.000 C 
ATOM     25  C   UNL     1      36.979 -20.855 -18.112  0.00  0.00    -0.000 C 
BRANCH  23  26
ATOM     26  C   UNL     1      35.920 -20.342 -20.273  0.00  0.00    -0.000 C 
ATOM     27  C   UNL     1      34.810 -20.432 -21.113  0.00  0.00    -0.000 C 
ATOM     28  C   UNL     1      37.014 -19.560 -20.645  0.00  0.00    -0.000 C 
ATOM     29  C   UNL     1      34.794 -19.741 -22.325  0.00  0.00    +0.000 C 
ATOM     30  C   UNL     1      36.997 -18.869 -21.857  0.00  0.00    +0.000 C 
ATOM     31  C   UNL     1      35.887 -18.960 -22.697  0.00  0.00    +0.000 C 
ENDBRANCH  23  26
ENDBRANCH  19  20
ENDBRANCH   1  19
TORSDOF 12
ENDMDL
MODEL 9
REMARK VINA RESULT:      -9.2      1.891      4.810
REMARK  Name = 10430040
REMARK  12 active torsions:
REMARK  status: ('A' for Active; 'I' for Inactive)
REMARK    1  A    between atoms: C_1  and  N_3
REMARK    2  A    between atoms: C_1  and  C_12
REMARK    3  A    between atoms: C_1  and  C_19
REMARK    4  A    between atoms: C_4  and  C_6
REMARK    5  A    between atoms: C_6  and  C_7
REMARK    6  A    between atoms: C_7  and  C_9
REMARK    7  A    between atoms: C_9  and  O_10
REMARK    8  A    between atoms: C_12  and  C_13
REMARK    9  A    between atoms: C_13  and  C_16
REMARK   10  A    between atoms: C_16  and  O_17
REMARK   11  A    between atoms: C_19  and  C_20
REMARK   12  A    between atoms: C_23  and  C_26
REMARK                            x       y       z     vdW  Elec       q    Type
REMARK                         _______ _______ _______ _____ _____    ______ ____
ROOT
ATOM      1  C   UNL     1      33.801 -23.544 -17.250  0.00  0.00    +0.076 C 
ENDROOT
BRANCH   1   3
ATOM      2  O   UNL     1      35.474 -23.345 -14.898  0.00  0.00    -0.275 OA
ATOM      3  N   UNL     1      34.101 -24.594 -16.296  0.00  0.00    -0.306 N 
ATOM      4  C   UNL     1      34.918 -24.399 -15.195  0.00  0.00    +0.223 C 
ATOM      5  H   UNL     1      33.706 -25.485 -16.436  0.00  0.00    +0.149 HD
BRANCH   4   6
ATOM      6  C   UNL     1      35.054 -25.670 -14.375  0.00  0.00    +0.097 C 
BRANCH   6   7
ATOM      7  C   UNL     1      36.502 -25.973 -14.005  0.00  0.00    +0.119 C 
BRANCH   7   9
ATOM      8  O   UNL     1      36.574 -27.520 -15.881  0.00  0.00    -0.250 OA
ATOM      9  C   UNL     1      37.095 -27.053 -14.879  0.00  0.00    +0.314 C 
BRANCH   9  10
ATOM     10  O   UNL     1      38.307 -27.456 -14.415  0.00  0.00    -0.480 OA
ATOM     11  H   UNL     1      39.039 -26.871 -14.445  0.00  0.00    +0.295 HD
ENDBRANCH   9  10
ENDBRANCH   7   9
ENDBRANCH   6   7
ENDBRANCH   4   6
ENDBRANCH   1   3
BRANCH   1  12
ATOM     12  C   UNL     1      32.545 -22.788 -16.768  0.00  0.00    +0.031 C 
BRANCH  12  13
ATOM     13  C   UNL     1      31.696 -23.533 -15.721  0.00  0.00    +0.101 C 
ATOM     14  C   UNL     1      31.795 -22.844 -14.362  0.00  0.00    +0.012 C 
BRANCH  13  16
ATOM     15  O   UNL     1      29.644 -22.711 -16.743  0.00  0.00    -0.250 OA
ATOM     16  C   UNL     1      30.232 -23.587 -16.122  0.00  0.00    +0.313 C 
BRANCH  16  17
ATOM     17  O   UNL     1      29.620 -24.718 -15.687  0.00  0.00    -0.480 OA
ATOM     18  H   UNL     1      29.102 -25.228 -16.279  0.00  0.00    +0.295 HD
ENDBRANCH  16  17
ENDBRANCH  13  16
ENDBRANCH  12  13
ENDBRANCH   1  12
BRANCH   1  19
ATOM     19  C   UNL     1      35.019 -22.620 -17.430  0.00  0.00    +0.046 C 
BRANCH  19  20
ATOM     20  C   UNL     1      34.919 -21.745 -18.658  0.00  0.00    -0.021 C 
ATOM     21  C   UNL     1      36.079 -21.269 -19.271  0.00  0.00    -0.004 C 
ATOM     22  C   UNL     1      33.668 -21.411 -19.177  0.00  0.00    -0.004 C 
ATOM     23  C   UNL     1      34.736 -20.128 -20.925  0.00  0.00    -0.000 C 
ATOM     24  C   UNL     1      35.987 -20.462 -20.404  0.00  0.00    -0.000 C 
ATOM     25  C   UNL     1      33.577 -20.604 -20.311  0.00  0.00    -0.000 C 
BRANCH  23  26
ATOM     26  C   UNL     1      34.641 -19.291 -22.099  0.00  0.00    -0.000 C 
ATOM     27  C   UNL     1      34.069 -19.793 -23.268  0.00  0.00    -0.000 C 
ATOM     28  C   UNL     1      35.119 -17.981 -22.063  0.00  0.00    -0.000 C 
ATOM     29  C   UNL     1      33.976 -18.985 -24.402  0.00  0.00    +0.000 C 
ATOM     30  C   UNL     1      35.026 -17.173 -23.197  0.00  0.00    +0.000 C 
ATOM     31  C   UNL     1      34.454 -17.675 -24.366  0.00  0.00    +0.000 C 
ENDBRANCH  23  26
ENDBRANCH  19  20
ENDBRANCH   1  19
TORSDOF 12
ENDMDL
