MODEL 1
REMARK VINA RESULT:     -11.5      0.000      0.000
REMARK  Name = 9887812
REMARK  11 active torsions:
REMARK  status: ('A' for Active; 'I' for Inactive)
REMARK    1  A    between atoms: N_1  and  C_3
REMARK    2  A    between atoms: N_1  and  C_19
REMARK    3  A    between atoms: C_4  and  C_9
REMARK    4  A    between atoms: C_12  and  C_16
REMARK    5  A    between atoms: C_16  and  O_17
REMARK    6  A    between atoms: C_19  and  C_20
REMARK    7  A    between atoms: C_20  and  N_21
REMARK    8  A    between atoms: N_21  and  C_24
REMARK    9  A    between atoms: C_24  and  C_25
REMARK   10  A    between atoms: C_25  and  C_27
REMARK   11  A    between atoms: C_25  and  O_33
REMARK                            x       y       z     vdW  Elec       q    Type
REMARK                         _______ _______ _______ _____ _____    ______ ____
ROOT
ATOM      1  N   UNL     1      35.317 -15.706 -22.804  0.00  0.00    -0.335 N 
ATOM      2  H   UNL     1      36.150 -15.372 -23.208  0.00  0.00    +0.147 HD
ENDROOT
BRANCH   1   3
ATOM      3  C   UNL     1      35.019 -17.080 -22.911  0.00  0.00    +0.045 C 
ATOM      4  C   UNL     1      34.978 -19.294 -21.946  0.00  0.00    +0.001 C 
ATOM      5  C   UNL     1      35.273 -17.935 -21.839  0.00  0.00    +0.014 C 
ATOM      6  C   UNL     1      34.471 -17.584 -24.091  0.00  0.00    +0.014 C 
ATOM      7  C   UNL     1      34.430 -19.799 -23.126  0.00  0.00    +0.000 C 
ATOM      8  C   UNL     1      34.177 -18.943 -24.198  0.00  0.00    +0.001 C 
BRANCH   4   9
ATOM      9  C   UNL     1      35.241 -20.181 -20.834  0.00  0.00    +0.000 C 
ATOM     10  C   UNL     1      34.212 -20.958 -20.301  0.00  0.00    +0.006 C 
ATOM     11  C   UNL     1      36.525 -20.259 -20.295  0.00  0.00    +0.000 C 
ATOM     12  C   UNL     1      34.467 -21.812 -19.229  0.00  0.00    +0.075 C 
ATOM     13  C   UNL     1      36.780 -21.114 -19.222  0.00  0.00    +0.000 C 
ATOM     14  C   UNL     1      35.751 -21.891 -18.689  0.00  0.00    +0.006 C 
BRANCH  12  16
ATOM     15  O   UNL     1      32.315 -22.193 -18.254  0.00  0.00    -0.245 OA
ATOM     16  C   UNL     1      33.395 -22.623 -18.674  0.00  0.00    +0.338 C 
BRANCH  16  17
ATOM     17  O   UNL     1      33.702 -23.950 -18.657  0.00  0.00    -0.477 OA
ATOM     18  H   UNL     1      34.300 -24.284 -18.018  0.00  0.00    +0.295 HD
ENDBRANCH  16  17
ENDBRANCH  12  16
ENDBRANCH   4   9
ENDBRANCH   1   3
BRANCH   1  19
ATOM     19  C   UNL     1      34.464 -14.775 -22.130  0.00  0.00    +0.064 C 
BRANCH  19  20
ATOM     20  C   UNL     1      34.160 -13.601 -23.051  0.00  0.00    -0.060 C 
BRANCH  20  21
ATOM     21  N   UNL     1      32.721 -13.390 -23.146  0.00  0.00    +0.387 N 
ATOM     22  H   UNL     1      32.522 -12.806 -23.958  0.00  0.00    -0.084 HD
ATOM     23  H   UNL     1      32.263 -14.296 -23.239  0.00  0.00    -0.084 HD
BRANCH  21  24
ATOM     24  C   UNL     1      32.213 -12.732 -21.950  0.00  0.00    -0.047 C 
BRANCH  24  25
ATOM     25  C   UNL     1      31.633 -11.353 -22.291  0.00  0.00    +0.112 C 
BRANCH  25  27
ATOM     26 CL   UNL     1      32.635  -6.618 -20.390  0.00  0.00    -0.082 Cl
ATOM     27  C   UNL     1      31.684 -10.422 -21.100  0.00  0.00    +0.003 C 
ATOM     28  C   UNL     1      32.089  -9.111 -21.284  0.00  0.00    +0.009 C 
ATOM     29  C   UNL     1      31.322 -10.900 -19.852  0.00  0.00    -0.002 C 
ATOM     30  C   UNL     1      32.135  -8.252 -20.185  0.00  0.00    +0.057 C 
ATOM     31  C   UNL     1      31.368 -10.041 -18.754  0.00  0.00    +0.001 C 
ATOM     32  C   UNL     1      31.774  -8.717 -18.921  0.00  0.00    +0.011 C 
ENDBRANCH  25  27
BRANCH  25  33
ATOM     33  O   UNL     1      32.371 -10.757 -23.355  0.00  0.00    -0.382 OA
ATOM     34  H   UNL     1      33.078 -10.202 -22.989  0.00  0.00    +0.211 HD
ENDBRANCH  25  33
ENDBRANCH  24  25
ENDBRANCH  21  24
ENDBRANCH  20  21
ENDBRANCH  19  20
ENDBRANCH   1  19
TORSDOF 11
ENDMDL
MODEL 2
REMARK VINA RESULT:     -11.5      4.472      7.765
REMARK  Name = 9887812
REMARK  11 active torsions:
REMARK  status: ('A' for Active; 'I' for Inactive)
REMARK    1  A    between atoms: N_1  and  C_3
REMARK    2  A    between atoms: N_1  and  C_19
REMARK    3  A    between atoms: C_4  and  C_9
REMARK    4  A    between atoms: C_12  and  C_16
REMARK    5  A    between atoms: C_16  and  O_17
REMARK    6  A    between atoms: C_19  and  C_20
REMARK    7  A    between atoms: C_20  and  N_21
REMARK    8  A    between atoms: N_21  and  C_24
REMARK    9  A    between atoms: C_24  and  C_25
REMARK   10  A    between atoms: C_25  and  C_27
REMARK   11  A    between atoms: C_25  and  O_33
REMARK                            x       y       z     vdW  Elec       q    Type
REMARK                         _______ _______ _______ _____ _____    ______ ____
ROOT
ATOM      1  N   UNL     1      34.766 -22.695 -18.992  0.00  0.00    -0.335 N 
ATOM      2  H   UNL     1      34.585 -23.411 -19.642  0.00  0.00    +0.147 HD
ENDROOT
BRANCH   1   3
ATOM      3  C   UNL     1      34.451 -22.921 -17.636  0.00  0.00    +0.045 C 
ATOM      4  C   UNL     1      32.839 -23.489 -15.929  0.00  0.00    +0.001 C 
ATOM      5  C   UNL     1      33.150 -23.266 -17.271  0.00  0.00    +0.014 C 
ATOM      6  C   UNL     1      35.440 -22.798 -16.660  0.00  0.00    +0.014 C 
ATOM      7  C   UNL     1      33.828 -23.367 -14.953  0.00  0.00    +0.000 C 
ATOM      8  C   UNL     1      35.129 -23.020 -15.319  0.00  0.00    +0.001 C 
BRANCH   4   9
ATOM      9  C   UNL     1      31.489 -23.847 -15.550  0.00  0.00    +0.000 C 
ATOM     10  C   UNL     1      30.404 -23.311 -16.244  0.00  0.00    +0.006 C 
ATOM     11  C   UNL     1      31.273 -24.728 -14.490  0.00  0.00    +0.000 C 
ATOM     12  C   UNL     1      29.103 -23.657 -15.878  0.00  0.00    +0.075 C 
ATOM     13  C   UNL     1      29.972 -25.073 -14.124  0.00  0.00    +0.000 C 
ATOM     14  C   UNL     1      28.887 -24.537 -14.818  0.00  0.00    +0.006 C 
BRANCH  12  16
ATOM     15  O   UNL     1      27.556 -21.940 -16.500  0.00  0.00    -0.245 OA
ATOM     16  C   UNL     1      27.971 -23.099 -16.602  0.00  0.00    +0.338 C 
BRANCH  16  17
ATOM     17  O   UNL     1      27.387 -24.006 -17.433  0.00  0.00    -0.477 OA
ATOM     18  H   UNL     1      27.800 -24.232 -18.243  0.00  0.00    +0.295 HD
ENDBRANCH  16  17
ENDBRANCH  12  16
ENDBRANCH   4   9
ENDBRANCH   1   3
BRANCH   1  19
ATOM     19  C   UNL     1      35.341 -21.472 -19.463  0.00  0.00    +0.064 C 
BRANCH  19  20
ATOM     20  C   UNL     1      34.284 -20.664 -20.204  0.00  0.00    -0.060 C 
BRANCH  20  21
ATOM     21  N   UNL     1      34.874 -19.456 -20.770  0.00  0.00    +0.387 N 
ATOM     22  H   UNL     1      34.527 -18.645 -20.259  0.00  0.00    -0.084 HD
ATOM     23  H   UNL     1      35.889 -19.521 -20.689  0.00  0.00    -0.084 HD
BRANCH  21  24
ATOM     24  C   UNL     1      34.526 -19.319 -22.178  0.00  0.00    -0.047 C 
BRANCH  24  25
ATOM     25  C   UNL     1      35.502 -18.374 -22.890  0.00  0.00    +0.112 C 
BRANCH  25  27
ATOM     26 CL   UNL     1      33.374 -14.562 -25.714  0.00  0.00    -0.082 Cl
ATOM     27  C   UNL     1      34.958 -16.964 -22.958  0.00  0.00    +0.003 C 
ATOM     28  C   UNL     1      34.478 -16.482 -24.164  0.00  0.00    +0.009 C 
ATOM     29  C   UNL     1      34.949 -16.187 -21.812  0.00  0.00    -0.002 C 
ATOM     30  C   UNL     1      33.976 -15.182 -24.226  0.00  0.00    +0.057 C 
ATOM     31  C   UNL     1      34.447 -14.888 -21.875  0.00  0.00    +0.001 C 
ATOM     32  C   UNL     1      33.960 -14.385 -23.081  0.00  0.00    +0.011 C 
ENDBRANCH  25  27
BRANCH  25  33
ATOM     33  O   UNL     1      36.749 -18.337 -22.198  0.00  0.00    -0.382 OA
ATOM     34  H   UNL     1      37.197 -19.193 -22.292  0.00  0.00    +0.211 HD
ENDBRANCH  25  33
ENDBRANCH  24  25
ENDBRANCH  21  24
ENDBRANCH  20  21
ENDBRANCH  19  20
ENDBRANCH   1  19
TORSDOF 11
ENDMDL
MODEL 3
REMARK VINA RESULT:     -11.4      1.699      2.360
REMARK  Name = 9887812
REMARK  11 active torsions:
REMARK  status: ('A' for Active; 'I' for Inactive)
REMARK    1  A    between atoms: N_1  and  C_3
REMARK    2  A    between atoms: N_1  and  C_19
REMARK    3  A    between atoms: C_4  and  C_9
REMARK    4  A    between atoms: C_12  and  C_16
REMARK    5  A    between atoms: C_16  and  O_17
REMARK    6  A    between atoms: C_19  and  C_20
REMARK    7  A    between atoms: C_20  and  N_21
REMARK    8  A    between atoms: N_21  and  C_24
REMARK    9  A    between atoms: C_24  and  C_25
REMARK   10  A    between atoms: C_25  and  C_27
REMARK   11  A    between atoms: C_25  and  O_33
REMARK                            x       y       z     vdW  Elec       q    Type
REMARK                         _______ _______ _______ _____ _____    ______ ____
ROOT
ATOM      1  N   UNL     1      34.590 -14.511 -22.087  0.00  0.00    -0.335 N 
ATOM      2  H   UNL     1      34.910 -13.784 -22.669  0.00  0.00    +0.147 HD
ENDROOT
BRANCH   1   3
ATOM      3  C   UNL     1      34.694 -15.839 -22.550  0.00  0.00    +0.045 C 
ATOM      4  C   UNL     1      35.067 -18.185 -22.111  0.00  0.00    +0.001 C 
ATOM      5  C   UNL     1      34.964 -16.871 -21.652  0.00  0.00    +0.014 C 
ATOM      6  C   UNL     1      34.526 -16.120 -23.906  0.00  0.00    +0.014 C 
ATOM      7  C   UNL     1      34.900 -18.466 -23.467  0.00  0.00    +0.000 C 
ATOM      8  C   UNL     1      34.630 -17.433 -24.365  0.00  0.00    +0.001 C 
BRANCH   4   9
ATOM      9  C   UNL     1      35.348 -19.256 -21.179  0.00  0.00    +0.000 C 
ATOM     10  C   UNL     1      34.310 -20.060 -20.706  0.00  0.00    +0.006 C 
ATOM     11  C   UNL     1      36.657 -19.484 -20.755  0.00  0.00    +0.000 C 
ATOM     12  C   UNL     1      34.582 -21.091 -19.807  0.00  0.00    +0.075 C 
ATOM     13  C   UNL     1      36.928 -20.516 -19.856  0.00  0.00    +0.000 C 
ATOM     14  C   UNL     1      35.891 -21.320 -19.382  0.00  0.00    +0.006 C 
BRANCH  12  16
ATOM     15  O   UNL     1      33.577 -23.145 -19.104  0.00  0.00    -0.245 OA
ATOM     16  C   UNL     1      33.502 -21.930 -19.314  0.00  0.00    +0.338 C 
BRANCH  16  17
ATOM     17  O   UNL     1      32.355 -21.228 -19.097  0.00  0.00    -0.477 OA
ATOM     18  H   UNL     1      31.687 -21.583 -18.545  0.00  0.00    +0.295 HD
ENDBRANCH  16  17
ENDBRANCH  12  16
ENDBRANCH   4   9
ENDBRANCH   1   3
BRANCH   1  19
ATOM     19  C   UNL     1      34.043 -14.173 -20.809  0.00  0.00    +0.064 C 
BRANCH  19  20
ATOM     20  C   UNL     1      32.586 -13.760 -20.970  0.00  0.00    -0.060 C 
BRANCH  20  21
ATOM     21  N   UNL     1      32.365 -13.184 -22.291  0.00  0.00    +0.387 N 
ATOM     22  H   UNL     1      33.101 -13.503 -22.921  0.00  0.00    -0.084 HD
ATOM     23  H   UNL     1      31.452 -13.487 -22.629  0.00  0.00    -0.084 HD
BRANCH  21  24
ATOM     24  C   UNL     1      32.382 -11.729 -22.233  0.00  0.00    -0.047 C 
BRANCH  24  25
ATOM     25  C   UNL     1      33.190 -11.147 -23.400  0.00  0.00    +0.112 C 
BRANCH  25  27
ATOM     26 CL   UNL     1      32.187  -6.573 -21.140  0.00  0.00    -0.082 Cl
ATOM     27  C   UNL     1      33.611  -9.721 -23.125  0.00  0.00    +0.003 C 
ATOM     28  C   UNL     1      32.796  -8.912 -22.353  0.00  0.00    +0.009 C 
ATOM     29  C   UNL     1      34.805  -9.256 -23.649  0.00  0.00    -0.002 C 
ATOM     30  C   UNL     1      33.186  -7.597 -22.098  0.00  0.00    +0.057 C 
ATOM     31  C   UNL     1      35.195  -7.941 -23.395  0.00  0.00    +0.001 C 
ATOM     32  C   UNL     1      34.386  -7.112 -22.619  0.00  0.00    +0.011 C 
ENDBRANCH  25  27
BRANCH  25  33
ATOM     33  O   UNL     1      34.365 -11.924 -23.624  0.00  0.00    -0.382 OA
ATOM     34  H   UNL     1      34.585 -12.418 -22.818  0.00  0.00    +0.211 HD
ENDBRANCH  25  33
ENDBRANCH  24  25
ENDBRANCH  21  24
ENDBRANCH  20  21
ENDBRANCH  19  20
ENDBRANCH   1  19
TORSDOF 11
ENDMDL
MODEL 4
REMARK VINA RESULT:     -11.4      5.630     10.998
REMARK  Name = 9887812
REMARK  11 active torsions:
REMARK  status: ('A' for Active; 'I' for Inactive)
REMARK    1  A    between atoms: N_1  and  C_3
REMARK    2  A    between atoms: N_1  and  C_19
REMARK    3  A    between atoms: C_4  and  C_9
REMARK    4  A    between atoms: C_12  and  C_16
REMARK    5  A    between atoms: C_16  and  O_17
REMARK    6  A    between atoms: C_19  and  C_20
REMARK    7  A    between atoms: C_20  and  N_21
REMARK    8  A    between atoms: N_21  and  C_24
REMARK    9  A    between atoms: C_24  and  C_25
REMARK   10  A    between atoms: C_25  and  C_27
REMARK   11  A    between atoms: C_25  and  O_33
REMARK                            x       y       z     vdW  Elec       q    Type
REMARK                         _______ _______ _______ _____ _____    ______ ____
ROOT
ATOM      1  N   UNL     1      33.114 -22.655 -18.896  0.00  0.00    -0.335 N 
ATOM      2  H   UNL     1      32.616 -23.180 -19.564  0.00  0.00    +0.147 HD
ENDROOT
BRANCH   1   3
ATOM      3  C   UNL     1      34.213 -21.885 -19.329  0.00  0.00    +0.045 C 
ATOM      4  C   UNL     1      35.129 -20.152 -20.742  0.00  0.00    +0.001 C 
ATOM      5  C   UNL     1      34.041 -20.914 -20.314  0.00  0.00    +0.014 C 
ATOM      6  C   UNL     1      35.475 -22.095 -18.771  0.00  0.00    +0.014 C 
ATOM      7  C   UNL     1      36.390 -20.363 -20.184  0.00  0.00    +0.000 C 
ATOM      8  C   UNL     1      36.563 -21.335 -19.199  0.00  0.00    +0.001 C 
BRANCH   4   9
ATOM      9  C   UNL     1      34.949 -19.145 -21.765  0.00  0.00    +0.000 C 
ATOM     10  C   UNL     1      34.972 -17.792 -21.424  0.00  0.00    +0.006 C 
ATOM     11  C   UNL     1      34.752 -19.527 -23.092  0.00  0.00    +0.000 C 
ATOM     12  C   UNL     1      34.798 -16.822 -22.411  0.00  0.00    +0.075 C 
ATOM     13  C   UNL     1      34.578 -18.556 -24.078  0.00  0.00    +0.000 C 
ATOM     14  C   UNL     1      34.601 -17.203 -23.738  0.00  0.00    +0.006 C 
BRANCH  12  16
ATOM     15  O   UNL     1      34.962 -14.476 -22.852  0.00  0.00    -0.245 OA
ATOM     16  C   UNL     1      34.823 -15.412 -22.057  0.00  0.00    +0.338 C 
BRANCH  16  17
ATOM     17  O   UNL     1      34.675 -15.208 -20.719  0.00  0.00    -0.477 OA
ATOM     18  H   UNL     1      34.306 -15.879 -20.181  0.00  0.00    +0.295 HD
ENDBRANCH  16  17
ENDBRANCH  12  16
ENDBRANCH   4   9
ENDBRANCH   1   3
BRANCH   1  19
ATOM     19  C   UNL     1      32.689 -22.706 -17.531  0.00  0.00    +0.064 C 
BRANCH  19  20
ATOM     20  C   UNL     1      33.446 -23.807 -16.801  0.00  0.00    -0.060 C 
BRANCH  20  21
ATOM     21  N   UNL     1      34.021 -23.294 -15.564  0.00  0.00    +0.387 N 
ATOM     22  H   UNL     1      35.035 -23.399 -15.600  0.00  0.00    -0.084 HD
ATOM     23  H   UNL     1      33.770 -22.310 -15.471  0.00  0.00    -0.084 HD
BRANCH  21  24
ATOM     24  C   UNL     1      33.506 -24.018 -14.411  0.00  0.00    -0.047 C 
BRANCH  24  25
ATOM     25  C   UNL     1      32.310 -23.281 -13.795  0.00  0.00    +0.112 C 
BRANCH  25  27
ATOM     26 CL   UNL     1      27.769 -22.733 -16.269  0.00  0.00    -0.082 Cl
ATOM     27  C   UNL     1      30.997 -23.889 -14.240  0.00  0.00    +0.003 C 
ATOM     28  C   UNL     1      30.104 -23.115 -14.961  0.00  0.00    +0.009 C 
ATOM     29  C   UNL     1      30.719 -25.206 -13.917  0.00  0.00    -0.002 C 
ATOM     30  C   UNL     1      28.894 -23.676 -15.371  0.00  0.00    +0.057 C 
ATOM     31  C   UNL     1      29.509 -25.766 -14.327  0.00  0.00    +0.001 C 
ATOM     32  C   UNL     1      28.597 -25.002 -15.055  0.00  0.00    +0.011 C 
ENDBRANCH  25  27
BRANCH  25  33
ATOM     33  O   UNL     1      32.370 -23.344 -12.371  0.00  0.00    -0.382 OA
ATOM     34  H   UNL     1      32.032 -22.515 -11.996  0.00  0.00    +0.211 HD
ENDBRANCH  25  33
ENDBRANCH  24  25
ENDBRANCH  21  24
ENDBRANCH  20  21
ENDBRANCH  19  20
ENDBRANCH   1  19
TORSDOF 11
ENDMDL
MODEL 5
REMARK VINA RESULT:     -11.4      6.180     11.484
REMARK  Name = 9887812
REMARK  11 active torsions:
REMARK  status: ('A' for Active; 'I' for Inactive)
REMARK    1  A    between atoms: N_1  and  C_3
REMARK    2  A    between atoms: N_1  and  C_19
REMARK    3  A    between atoms: C_4  and  C_9
REMARK    4  A    between atoms: C_12  and  C_16
REMARK    5  A    between atoms: C_16  and  O_17
REMARK    6  A    between atoms: C_19  and  C_20
REMARK    7  A    between atoms: C_20  and  N_21
REMARK    8  A    between atoms: N_21  and  C_24
REMARK    9  A    between atoms: C_24  and  C_25
REMARK   10  A    between atoms: C_25  and  C_27
REMARK   11  A    between atoms: C_25  and  O_33
REMARK                            x       y       z     vdW  Elec       q    Type
REMARK                         _______ _______ _______ _____ _____    ______ ____
ROOT
ATOM      1  N   UNL     1      32.811 -22.409 -18.437  0.00  0.00    -0.335 N 
ATOM      2  H   UNL     1      31.942 -22.197 -18.847  0.00  0.00    +0.147 HD
ENDROOT
BRANCH   1   3
ATOM      3  C   UNL     1      33.975 -21.835 -18.990  0.00  0.00    +0.045 C 
ATOM      4  C   UNL     1      35.021 -20.321 -20.556  0.00  0.00    +0.001 C 
ATOM      5  C   UNL     1      33.869 -20.888 -20.009  0.00  0.00    +0.014 C 
ATOM      6  C   UNL     1      35.232 -22.215 -18.519  0.00  0.00    +0.014 C 
ATOM      7  C   UNL     1      36.278 -20.701 -20.085  0.00  0.00    +0.000 C 
ATOM      8  C   UNL     1      36.383 -21.649 -19.066  0.00  0.00    +0.001 C 
BRANCH   4   9
ATOM      9  C   UNL     1      34.911 -19.339 -21.612  0.00  0.00    +0.000 C 
ATOM     10  C   UNL     1      34.943 -17.978 -21.307  0.00  0.00    +0.006 C 
ATOM     11  C   UNL     1      34.773 -19.754 -22.937  0.00  0.00    +0.000 C 
ATOM     12  C   UNL     1      34.836 -17.032 -22.327  0.00  0.00    +0.075 C 
ATOM     13  C   UNL     1      34.666 -18.808 -23.957  0.00  0.00    +0.000 C 
ATOM     14  C   UNL     1      34.698 -17.446 -23.651  0.00  0.00    +0.006 C 
BRANCH  12  16
ATOM     15  O   UNL     1      34.980 -14.698 -22.832  0.00  0.00    -0.245 OA
ATOM     16  C   UNL     1      34.870 -15.613 -22.009  0.00  0.00    +0.338 C 
BRANCH  16  17
ATOM     17  O   UNL     1      34.766 -15.376 -20.672  0.00  0.00    -0.477 OA
ATOM     18  H   UNL     1      35.438 -14.897 -20.229  0.00  0.00    +0.295 HD
ENDBRANCH  16  17
ENDBRANCH  12  16
ENDBRANCH   4   9
ENDBRANCH   1   3
BRANCH   1  19
ATOM     19  C   UNL     1      32.839 -23.282 -17.304  0.00  0.00    +0.064 C 
BRANCH  19  20
ATOM     20  C   UNL     1      31.588 -23.067 -16.463  0.00  0.00    -0.060 C 
BRANCH  20  21
ATOM     21  N   UNL     1      31.656 -23.860 -15.241  0.00  0.00    +0.387 N 
ATOM     22  H   UNL     1      30.799 -23.720 -14.705  0.00  0.00    -0.084 HD
ATOM     23  H   UNL     1      31.760 -24.842 -15.495  0.00  0.00    -0.084 HD
BRANCH  21  24
ATOM     24  C   UNL     1      32.798 -23.465 -14.428  0.00  0.00    -0.047 C 
BRANCH  24  25
ATOM     25  C   UNL     1      33.668 -24.680 -14.083  0.00  0.00    +0.112 C 
BRANCH  25  27
ATOM     26 CL   UNL     1      38.577 -26.394 -14.112  0.00  0.00    -0.082 Cl
ATOM     27  C   UNL     1      35.126 -24.423 -14.394  0.00  0.00    +0.003 C 
ATOM     28  C   UNL     1      36.057 -25.413 -14.136  0.00  0.00    +0.009 C 
ATOM     29  C   UNL     1      35.497 -23.202 -14.931  0.00  0.00    -0.002 C 
ATOM     30  C   UNL     1      37.402 -25.176 -14.424  0.00  0.00    +0.057 C 
ATOM     31  C   UNL     1      36.841 -22.964 -15.218  0.00  0.00    +0.001 C 
ATOM     32  C   UNL     1      37.793 -23.951 -14.965  0.00  0.00    +0.011 C 
ENDBRANCH  25  27
BRANCH  25  33
ATOM     33  O   UNL     1      33.555 -24.990 -12.696  0.00  0.00    -0.382 OA
ATOM     34  H   UNL     1      33.491 -24.168 -12.184  0.00  0.00    +0.211 HD
ENDBRANCH  25  33
ENDBRANCH  24  25
ENDBRANCH  21  24
ENDBRANCH  20  21
ENDBRANCH  19  20
ENDBRANCH   1  19
TORSDOF 11
ENDMDL
MODEL 6
REMARK VINA RESULT:     -11.3      1.199      1.479
REMARK  Name = 9887812
REMARK  11 active torsions:
REMARK  status: ('A' for Active; 'I' for Inactive)
REMARK    1  A    between atoms: N_1  and  C_3
REMARK    2  A    between atoms: N_1  and  C_19
REMARK    3  A    between atoms: C_4  and  C_9
REMARK    4  A    between atoms: C_12  and  C_16
REMARK    5  A    between atoms: C_16  and  O_17
REMARK    6  A    between atoms: C_19  and  C_20
REMARK    7  A    between atoms: C_20  and  N_21
REMARK    8  A    between atoms: N_21  and  C_24
REMARK    9  A    between atoms: C_24  and  C_25
REMARK   10  A    between atoms: C_25  and  C_27
REMARK   11  A    between atoms: C_25  and  O_33
REMARK                            x       y       z     vdW  Elec       q    Type
REMARK                         _______ _______ _______ _____ _____    ______ ____
ROOT
ATOM      1  N   UNL     1      34.926 -15.307 -22.151  0.00  0.00    -0.335 N 
ATOM      2  H   UNL     1      35.582 -14.747 -22.624  0.00  0.00    +0.147 HD
ENDROOT
BRANCH   1   3
ATOM      3  C   UNL     1      34.858 -16.679 -22.468  0.00  0.00    +0.045 C 
ATOM      4  C   UNL     1      35.043 -18.994 -21.801  0.00  0.00    +0.001 C 
ATOM      5  C   UNL     1      35.110 -17.636 -21.486  0.00  0.00    +0.014 C 
ATOM      6  C   UNL     1      34.539 -17.080 -23.766  0.00  0.00    +0.014 C 
ATOM      7  C   UNL     1      34.724 -19.394 -23.099  0.00  0.00    +0.000 C 
ATOM      8  C   UNL     1      34.473 -18.436 -24.081  0.00  0.00    +0.001 C 
BRANCH   4   9
ATOM      9  C   UNL     1      35.306 -19.986 -20.782  0.00  0.00    +0.000 C 
ATOM     10  C   UNL     1      34.263 -20.767 -20.283  0.00  0.00    +0.006 C 
ATOM     11  C   UNL     1      36.602 -20.162 -20.298  0.00  0.00    +0.000 C 
ATOM     12  C   UNL     1      34.517 -21.723 -19.300  0.00  0.00    +0.075 C 
ATOM     13  C   UNL     1      36.856 -21.118 -19.314  0.00  0.00    +0.000 C 
ATOM     14  C   UNL     1      35.813 -21.899 -18.815  0.00  0.00    +0.006 C 
BRANCH  12  16
ATOM     15  O   UNL     1      32.348 -22.110 -18.366  0.00  0.00    -0.245 OA
ATOM     16  C   UNL     1      33.431 -22.538 -18.780  0.00  0.00    +0.338 C 
BRANCH  16  17
ATOM     17  O   UNL     1      33.726 -23.868 -18.790  0.00  0.00    -0.477 OA
ATOM     18  H   UNL     1      33.043 -24.500 -18.691  0.00  0.00    +0.295 HD
ENDBRANCH  16  17
ENDBRANCH  12  16
ENDBRANCH   4   9
ENDBRANCH   1   3
BRANCH   1  19
ATOM     19  C   UNL     1      34.084 -14.693 -21.169  0.00  0.00    +0.064 C 
BRANCH  19  20
ATOM     20  C   UNL     1      33.171 -13.678 -21.842  0.00  0.00    -0.060 C 
BRANCH  20  21
ATOM     21  N   UNL     1      31.965 -13.476 -21.048  0.00  0.00    +0.387 N 
ATOM     22  H   UNL     1      31.172 -13.341 -21.675  0.00  0.00    -0.084 HD
ATOM     23  H   UNL     1      31.819 -14.298 -20.463  0.00  0.00    -0.084 HD
BRANCH  21  24
ATOM     24  C   UNL     1      32.098 -12.309 -20.188  0.00  0.00    -0.047 C 
BRANCH  24  25
ATOM     25  C   UNL     1      31.111 -11.211 -20.603  0.00  0.00    +0.112 C 
BRANCH  25  27
ATOM     26 CL   UNL     1      33.323  -7.769 -23.812  0.00  0.00    -0.082 Cl
ATOM     27  C   UNL     1      31.809  -9.882 -20.792  0.00  0.00    +0.003 C 
ATOM     28  C   UNL     1      32.194  -9.496 -22.064  0.00  0.00    +0.009 C 
ATOM     29  C   UNL     1      32.046  -9.080 -19.689  0.00  0.00    -0.002 C 
ATOM     30  C   UNL     1      32.836  -8.270 -22.239  0.00  0.00    +0.057 C 
ATOM     31  C   UNL     1      32.689  -7.855 -19.863  0.00  0.00    +0.001 C 
ATOM     32  C   UNL     1      33.084  -7.449 -21.138  0.00  0.00    +0.011 C 
ENDBRANCH  25  27
BRANCH  25  33
ATOM     33  O   UNL     1      30.472 -11.558 -21.830  0.00  0.00    -0.382 OA
ATOM     34  H   UNL     1      30.955 -11.159 -22.570  0.00  0.00    +0.211 HD
ENDBRANCH  25  33
ENDBRANCH  24  25
ENDBRANCH  21  24
ENDBRANCH  20  21
ENDBRANCH  19  20
ENDBRANCH   1  19
TORSDOF 11
ENDMDL
MODEL 7
REMARK VINA RESULT:     -11.1      7.122     11.240
REMARK  Name = 9887812
REMARK  11 active torsions:
REMARK  status: ('A' for Active; 'I' for Inactive)
REMARK    1  A    between atoms: N_1  and  C_3
REMARK    2  A    between atoms: N_1  and  C_19
REMARK    3  A    between atoms: C_4  and  C_9
REMARK    4  A    between atoms: C_12  and  C_16
REMARK    5  A    between atoms: C_16  and  O_17
REMARK    6  A    between atoms: C_19  and  C_20
REMARK    7  A    between atoms: C_20  and  N_21
REMARK    8  A    between atoms: N_21  and  C_24
REMARK    9  A    between atoms: C_24  and  C_25
REMARK   10  A    between atoms: C_25  and  C_27
REMARK   11  A    between atoms: C_25  and  O_33
REMARK                            x       y       z     vdW  Elec       q    Type
REMARK                         _______ _______ _______ _____ _____    ______ ____
ROOT
ATOM      1  N   UNL     1      36.216 -22.966 -16.065  0.00  0.00    -0.335 N 
ATOM      2  H   UNL     1      37.030 -22.443 -15.886  0.00  0.00    +0.147 HD
ENDROOT
BRANCH   1   3
ATOM      3  C   UNL     1      35.405 -22.595 -17.158  0.00  0.00    +0.045 C 
ATOM      4  C   UNL     1      35.096 -21.361 -19.212  0.00  0.00    +0.001 C 
ATOM      5  C   UNL     1      35.899 -21.727 -18.131  0.00  0.00    +0.014 C 
ATOM      6  C   UNL     1      34.107 -23.096 -17.265  0.00  0.00    +0.014 C 
ATOM      7  C   UNL     1      33.798 -21.862 -19.319  0.00  0.00    +0.000 C 
ATOM      8  C   UNL     1      33.304 -22.729 -18.344  0.00  0.00    +0.001 C 
BRANCH   4   9
ATOM      9  C   UNL     1      35.609 -20.460 -20.221  0.00  0.00    +0.000 C 
ATOM     10  C   UNL     1      34.789 -20.049 -21.272  0.00  0.00    +0.006 C 
ATOM     11  C   UNL     1      36.924 -20.003 -20.143  0.00  0.00    +0.000 C 
ATOM     12  C   UNL     1      35.284 -19.182 -22.245  0.00  0.00    +0.075 C 
ATOM     13  C   UNL     1      37.420 -19.135 -21.116  0.00  0.00    +0.000 C 
ATOM     14  C   UNL     1      36.600 -18.724 -22.167  0.00  0.00    +0.006 C 
BRANCH  12  16
ATOM     15  O   UNL     1      33.494 -19.403 -23.817  0.00  0.00    -0.245 OA
ATOM     16  C   UNL     1      34.430 -18.752 -23.340  0.00  0.00    +0.338 C 
BRANCH  16  17
ATOM     17  O   UNL     1      34.767 -17.519 -23.812  0.00  0.00    -0.477 OA
ATOM     18  H   UNL     1      35.643 -17.350 -24.094  0.00  0.00    +0.295 HD
ENDBRANCH  16  17
ENDBRANCH  12  16
ENDBRANCH   4   9
ENDBRANCH   1   3
BRANCH   1  19
ATOM     19  C   UNL     1      35.909 -24.069 -15.208  0.00  0.00    +0.064 C 
BRANCH  19  20
ATOM     20  C   UNL     1      35.775 -23.580 -13.773  0.00  0.00    -0.060 C 
BRANCH  20  21
ATOM     21  N   UNL     1      34.805 -24.391 -13.048  0.00  0.00    +0.387 N 
ATOM     22  H   UNL     1      35.245 -25.269 -12.771  0.00  0.00    -0.084 HD
ATOM     23  H   UNL     1      34.496 -23.873 -12.226  0.00  0.00    -0.084 HD
BRANCH  21  24
ATOM     24  C   UNL     1      33.645 -24.680 -13.880  0.00  0.00    -0.047 C 
BRANCH  24  25
ATOM     25  C   UNL     1      32.564 -23.607 -13.699  0.00  0.00    +0.112 C 
BRANCH  25  27
ATOM     26 CL   UNL     1      28.184 -22.711 -16.355  0.00  0.00    -0.082 Cl
ATOM     27  C   UNL     1      31.213 -24.099 -14.169  0.00  0.00    +0.003 C 
ATOM     28  C   UNL     1      30.426 -23.270 -14.950  0.00  0.00    +0.009 C 
ATOM     29  C   UNL     1      30.793 -25.368 -13.808  0.00  0.00    -0.002 C 
ATOM     30  C   UNL     1      29.180 -23.725 -15.383  0.00  0.00    +0.057 C 
ATOM     31  C   UNL     1      29.547 -25.821 -14.241  0.00  0.00    +0.001 C 
ATOM     32  C   UNL     1      28.741 -25.001 -15.029  0.00  0.00    +0.011 C 
ENDBRANCH  25  27
BRANCH  25  33
ATOM     33  O   UNL     1      32.453 -23.243 -12.325  0.00  0.00    -0.382 OA
ATOM     34  H   UNL     1      31.534 -23.007 -12.125  0.00  0.00    +0.211 HD
ENDBRANCH  25  33
ENDBRANCH  24  25
ENDBRANCH  21  24
ENDBRANCH  20  21
ENDBRANCH  19  20
ENDBRANCH   1  19
TORSDOF 11
ENDMDL
MODEL 8
REMARK VINA RESULT:     -11.0      5.139      8.544
REMARK  Name = 9887812
REMARK  11 active torsions:
REMARK  status: ('A' for Active; 'I' for Inactive)
REMARK    1  A    between atoms: N_1  and  C_3
REMARK    2  A    between atoms: N_1  and  C_19
REMARK    3  A    between atoms: C_4  and  C_9
REMARK    4  A    between atoms: C_12  and  C_16
REMARK    5  A    between atoms: C_16  and  O_17
REMARK    6  A    between atoms: C_19  and  C_20
REMARK    7  A    between atoms: C_20  and  N_21
REMARK    8  A    between atoms: N_21  and  C_24
REMARK    9  A    between atoms: C_24  and  C_25
REMARK   10  A    between atoms: C_25  and  C_27
REMARK   11  A    between atoms: C_25  and  O_33
REMARK                            x       y       z     vdW  Elec       q    Type
REMARK                         _______ _______ _______ _____ _____    ______ ____
ROOT
ATOM      1  N   UNL     1      32.716 -22.708 -18.168  0.00  0.00    -0.335 N 
ATOM      2  H   UNL     1      31.952 -22.836 -18.775  0.00  0.00    +0.147 HD
ENDROOT
BRANCH   1   3
ATOM      3  C   UNL     1      32.589 -23.127 -16.827  0.00  0.00    +0.045 C 
ATOM      4  C   UNL     1      33.573 -24.031 -14.815  0.00  0.00    +0.001 C 
ATOM      5  C   UNL     1      33.700 -23.616 -16.141  0.00  0.00    +0.014 C 
ATOM      6  C   UNL     1      31.352 -23.052 -16.188  0.00  0.00    +0.014 C 
ATOM      7  C   UNL     1      32.336 -23.957 -14.175  0.00  0.00    +0.000 C 
ATOM      8  C   UNL     1      31.224 -23.468 -14.863  0.00  0.00    +0.001 C 
BRANCH   4   9
ATOM      9  C   UNL     1      34.726 -24.539 -14.103  0.00  0.00    +0.000 C 
ATOM     10  C   UNL     1      34.771 -24.475 -12.710  0.00  0.00    +0.006 C 
ATOM     11  C   UNL     1      35.793 -25.093 -14.811  0.00  0.00    +0.000 C 
ATOM     12  C   UNL     1      35.882 -24.965 -12.026  0.00  0.00    +0.075 C 
ATOM     13  C   UNL     1      36.905 -25.583 -14.125  0.00  0.00    +0.000 C 
ATOM     14  C   UNL     1      36.950 -25.519 -12.732  0.00  0.00    +0.006 C 
BRANCH  12  16
ATOM     15  O   UNL     1      35.182 -25.513  -9.804  0.00  0.00    -0.245 OA
ATOM     16  C   UNL     1      35.929 -24.900 -10.573  0.00  0.00    +0.338 C 
BRANCH  16  17
ATOM     17  O   UNL     1      36.909 -24.069 -10.121  0.00  0.00    -0.477 OA
ATOM     18  H   UNL     1      37.721 -24.007 -10.584  0.00  0.00    +0.295 HD
ENDBRANCH  16  17
ENDBRANCH  12  16
ENDBRANCH   4   9
ENDBRANCH   1   3
BRANCH   1  19
ATOM     19  C   UNL     1      33.907 -22.108 -18.685  0.00  0.00    +0.064 C 
BRANCH  19  20
ATOM     20  C   UNL     1      33.548 -21.146 -19.810  0.00  0.00    -0.060 C 
BRANCH  20  21
ATOM     21  N   UNL     1      34.751 -20.715 -20.513  0.00  0.00    +0.387 N 
ATOM     22  H   UNL     1      35.357 -20.217 -19.861  0.00  0.00    -0.084 HD
ATOM     23  H   UNL     1      35.226 -21.539 -20.881  0.00  0.00    -0.084 HD
BRANCH  21  24
ATOM     24  C   UNL     1      34.417 -19.834 -21.623  0.00  0.00    -0.047 C 
BRANCH  24  25
ATOM     25  C   UNL     1      35.536 -18.813 -21.864  0.00  0.00    +0.112 C 
BRANCH  25  27
ATOM     26 CL   UNL     1      34.477 -13.733 -22.200  0.00  0.00    -0.082 Cl
ATOM     27  C   UNL     1      35.051 -17.646 -22.694  0.00  0.00    +0.003 C 
ATOM     28  C   UNL     1      34.998 -16.386 -22.123  0.00  0.00    +0.009 C 
ATOM     29  C   UNL     1      34.672 -17.862 -24.008  0.00  0.00    -0.002 C 
ATOM     30  C   UNL     1      34.551 -15.309 -22.890  0.00  0.00    +0.057 C 
ATOM     31  C   UNL     1      34.225 -16.785 -24.774  0.00  0.00    +0.001 C 
ATOM     32  C   UNL     1      34.165 -15.509 -24.215  0.00  0.00    +0.011 C 
ENDBRANCH  25  27
BRANCH  25  33
ATOM     33  O   UNL     1      36.019 -18.307 -20.621  0.00  0.00    -0.382 OA
ATOM     34  H   UNL     1      35.905 -17.343 -20.598  0.00  0.00    +0.211 HD
ENDBRANCH  25  33
ENDBRANCH  24  25
ENDBRANCH  21  24
ENDBRANCH  20  21
ENDBRANCH  19  20
ENDBRANCH   1  19
TORSDOF 11
ENDMDL
MODEL 9
REMARK VINA RESULT:     -10.9      5.786     11.081
REMARK  Name = 9887812
REMARK  11 active torsions:
REMARK  status: ('A' for Active; 'I' for Inactive)
REMARK    1  A    between atoms: N_1  and  C_3
REMARK    2  A    between atoms: N_1  and  C_19
REMARK    3  A    between atoms: C_4  and  C_9
REMARK    4  A    between atoms: C_12  and  C_16
REMARK    5  A    between atoms: C_16  and  O_17
REMARK    6  A    between atoms: C_19  and  C_20
REMARK    7  A    between atoms: C_20  and  N_21
REMARK    8  A    between atoms: N_21  and  C_24
REMARK    9  A    between atoms: C_24  and  C_25
REMARK   10  A    between atoms: C_25  and  C_27
REMARK   11  A    between atoms: C_25  and  O_33
REMARK                            x       y       z     vdW  Elec       q    Type
REMARK                         _______ _______ _______ _____ _____    ______ ____
ROOT
ATOM      1  N   UNL     1      36.782 -22.217 -17.798  0.00  0.00    -0.335 N 
ATOM      2  H   UNL     1      37.455 -22.789 -18.235  0.00  0.00    +0.147 HD
ENDROOT
BRANCH   1   3
ATOM      3  C   UNL     1      35.641 -21.839 -18.534  0.00  0.00    +0.045 C 
ATOM      4  C   UNL     1      34.627 -20.552 -20.310  0.00  0.00    +0.001 C 
ATOM      5  C   UNL     1      35.757 -20.927 -19.583  0.00  0.00    +0.014 C 
ATOM      6  C   UNL     1      34.394 -22.375 -18.213  0.00  0.00    +0.014 C 
ATOM      7  C   UNL     1      33.380 -21.089 -19.989  0.00  0.00    +0.000 C 
ATOM      8  C   UNL     1      33.264 -22.001 -18.939  0.00  0.00    +0.001 C 
BRANCH   4   9
ATOM      9  C   UNL     1      34.748 -19.606 -21.398  0.00  0.00    +0.000 C 
ATOM     10  C   UNL     1      34.781 -18.236 -21.132  0.00  0.00    +0.006 C 
ATOM     11  C   UNL     1      34.832 -20.063 -22.713  0.00  0.00    +0.000 C 
ATOM     12  C   UNL     1      34.897 -17.325 -22.181  0.00  0.00    +0.075 C 
ATOM     13  C   UNL     1      34.948 -19.151 -23.762  0.00  0.00    +0.000 C 
ATOM     14  C   UNL     1      34.981 -17.782 -23.496  0.00  0.00    +0.006 C 
BRANCH  12  16
ATOM     15  O   UNL     1      35.077 -15.008 -22.749  0.00  0.00    -0.245 OA
ATOM     16  C   UNL     1      34.933 -15.898 -21.904  0.00  0.00    +0.338 C 
BRANCH  16  17
ATOM     17  O   UNL     1      34.788 -15.620 -20.579  0.00  0.00    -0.477 OA
ATOM     18  H   UNL     1      33.935 -15.471 -20.223  0.00  0.00    +0.295 HD
ENDBRANCH  16  17
ENDBRANCH  12  16
ENDBRANCH   4   9
ENDBRANCH   1   3
BRANCH   1  19
ATOM     19  C   UNL     1      37.006 -21.810 -16.445  0.00  0.00    +0.064 C 
BRANCH  19  20
ATOM     20  C   UNL     1      37.559 -22.981 -15.644  0.00  0.00    -0.060 C 
BRANCH  20  21
ATOM     21  N   UNL     1      36.496 -23.930 -15.334  0.00  0.00    +0.387 N 
ATOM     22  H   UNL     1      36.186 -24.376 -16.197  0.00  0.00    -0.084 HD
ATOM     23  H   UNL     1      36.861 -24.627 -14.685  0.00  0.00    -0.084 HD
BRANCH  21  24
ATOM     24  C   UNL     1      35.365 -23.258 -14.709  0.00  0.00    -0.047 C 
BRANCH  24  25
ATOM     25  C   UNL     1      34.687 -24.174 -13.682  0.00  0.00    +0.112 C 
BRANCH  25  27
ATOM     26 CL   UNL     1      30.539 -22.801 -16.502  0.00  0.00    -0.082 Cl
ATOM     27  C   UNL     1      33.208 -24.322 -13.964  0.00  0.00    +0.003 C 
ATOM     28  C   UNL     1      32.636 -23.578 -14.981  0.00  0.00    +0.009 C 
ATOM     29  C   UNL     1      32.459 -25.200 -13.199  0.00  0.00    -0.002 C 
ATOM     30  C   UNL     1      31.272 -23.716 -15.241  0.00  0.00    +0.057 C 
ATOM     31  C   UNL     1      31.096 -25.337 -13.458  0.00  0.00    +0.001 C 
ATOM     32  C   UNL     1      30.502 -24.595 -14.479  0.00  0.00    +0.011 C 
ENDBRANCH  25  27
BRANCH  25  33
ATOM     33  O   UNL     1      35.278 -25.472 -13.710  0.00  0.00    -0.382 OA
ATOM     34  H   UNL     1      36.244 -25.387 -13.744  0.00  0.00    +0.211 HD
ENDBRANCH  25  33
ENDBRANCH  24  25
ENDBRANCH  21  24
ENDBRANCH  20  21
ENDBRANCH  19  20
ENDBRANCH   1  19
TORSDOF 11
ENDMDL
