MODEL 1
REMARK VINA RESULT:     -13.7      0.000      0.000
REMARK  Name = 5073
REMARK  4 active torsions:
REMARK  status: ('A' for Active; 'I' for Inactive)
REMARK    1  A    between atoms: N_1  and  C_18
REMARK    2  A    between atoms: C_2  and  C_11
REMARK    3  A    between atoms: C_18  and  C_19
REMARK    4  A    between atoms: C_19  and  C_23
REMARK                            x       y       z     vdW  Elec       q    Type
REMARK                         _______ _______ _______ _____ _____    ______ ____
ROOT
ATOM      1  N   UNL     1      35.757 -19.847 -20.221  0.00  0.00    +0.387 N 
ATOM      2  C   UNL     1      35.241 -18.543 -22.799  0.00  0.00    +0.039 C 
ATOM      3  C   UNL     1      34.196 -19.425 -22.095  0.00  0.00    -0.017 C 
ATOM      4  C   UNL     1      36.218 -17.966 -21.762  0.00  0.00    -0.017 C 
ATOM      5  C   UNL     1      34.864 -20.476 -21.205  0.00  0.00    -0.077 C 
ATOM      6  C   UNL     1      36.813 -19.069 -20.884  0.00  0.00    -0.077 C 
ATOM      7  H   UNL     1      35.200 -19.205 -19.657  0.00  0.00    -0.080 HD
ENDROOT
BRANCH   2  11
ATOM      8  F   UNL     1      33.411 -12.135 -23.693  0.00  0.00    -0.204 F 
ATOM      9  O   UNL     1      33.653 -16.625 -25.401  0.00  0.00    -0.354 OA
ATOM     10  N   UNL     1      34.153 -17.808 -24.874  0.00  0.00    -0.081 NA
ATOM     11  C   UNL     1      34.615 -17.477 -23.669  0.00  0.00    +0.100 A 
ATOM     12  C   UNL     1      34.444 -16.119 -23.368  0.00  0.00    +0.054 A 
ATOM     13  C   UNL     1      33.828 -15.618 -24.502  0.00  0.00    +0.179 A 
ATOM     14  C   UNL     1      34.723 -15.248 -22.304  0.00  0.00    +0.007 C 
ATOM     15  C   UNL     1      33.456 -14.287 -24.670  0.00  0.00    +0.070 C 
ATOM     16  C   UNL     1      34.362 -13.900 -22.439  0.00  0.00    +0.030 C 
ATOM     17  C   UNL     1      33.741 -13.431 -23.601  0.00  0.00    +0.143 C 
ENDBRANCH   2  11
BRANCH   1  18
ATOM     18  C   UNL     1      36.342 -20.859 -19.342  0.00  0.00    -0.076 C 
BRANCH  18  19
ATOM     19  C   UNL     1      35.528 -22.143 -19.418  0.00  0.00    -0.007 C 
BRANCH  19  23
ATOM     20  O   UNL     1      32.822 -22.652 -19.012  0.00  0.00    -0.274 OA
ATOM     21  N   UNL     1      33.025 -23.102 -16.735  0.00  0.00    -0.237 N 
ATOM     22  N   UNL     1      35.146 -22.922 -15.702  0.00  0.00    -0.399 NA
ATOM     23  C   UNL     1      34.988 -22.514 -18.067  0.00  0.00    +0.123 C 
ATOM     24  C   UNL     1      31.574 -23.269 -16.609  0.00  0.00    +0.100 C 
ATOM     25  C   UNL     1      31.124 -23.980 -15.346  0.00  0.00    +0.022 C 
ATOM     26  C   UNL     1      33.872 -23.146 -15.642  0.00  0.00    +0.165 C 
ATOM     27  C   UNL     1      31.813 -23.354 -14.152  0.00  0.00    +0.011 C 
ATOM     28  C   UNL     1      33.309 -23.547 -14.291  0.00  0.00    +0.075 C 
ATOM     29  C   UNL     1      33.513 -22.763 -17.999  0.00  0.00    +0.237 C 
ATOM     30  C   UNL     1      35.694 -22.611 -16.924  0.00  0.00    +0.096 C 
ATOM     31  C   UNL     1      37.186 -22.414 -16.864  0.00  0.00    +0.062 C 
ENDBRANCH  19  23
ENDBRANCH  18  19
ENDBRANCH   1  18
TORSDOF 4
ENDMDL
MODEL 2
REMARK VINA RESULT:     -13.3      3.493     10.254
REMARK  Name = 5073
REMARK  4 active torsions:
REMARK  status: ('A' for Active; 'I' for Inactive)
REMARK    1  A    between atoms: N_1  and  C_18
REMARK    2  A    between atoms: C_2  and  C_11
REMARK    3  A    between atoms: C_18  and  C_19
REMARK    4  A    between atoms: C_19  and  C_23
REMARK                            x       y       z     vdW  Elec       q    Type
REMARK                         _______ _______ _______ _____ _____    ______ ____
ROOT
ATOM      1  N   UNL     1      34.352 -20.575 -20.059  0.00  0.00    +0.387 N 
ATOM      2  C   UNL     1      34.168 -22.765 -18.114  0.00  0.00    +0.039 C 
ATOM      3  C   UNL     1      35.484 -22.022 -18.399  0.00  0.00    -0.017 C 
ATOM      4  C   UNL     1      32.974 -21.858 -18.451  0.00  0.00    -0.017 C 
ATOM      5  C   UNL     1      35.505 -21.456 -19.821  0.00  0.00    -0.077 C 
ATOM      6  C   UNL     1      33.086 -21.298 -19.871  0.00  0.00    -0.077 C 
ATOM      7  H   UNL     1      34.388 -19.820 -19.375  0.00  0.00    -0.080 HD
ENDROOT
BRANCH   2  11
ATOM      8  F   UNL     1      30.525 -24.506 -12.737  0.00  0.00    -0.204 F 
ATOM      9  O   UNL     1      34.830 -24.138 -14.849  0.00  0.00    -0.354 OA
ATOM     10  N   UNL     1      35.230 -23.685 -16.100  0.00  0.00    -0.081 NA
ATOM     11  C   UNL     1      34.104 -23.317 -16.708  0.00  0.00    +0.100 A 
ATOM     12  C   UNL     1      32.964 -23.507 -15.914  0.00  0.00    +0.054 A 
ATOM     13  C   UNL     1      33.477 -24.032 -14.741  0.00  0.00    +0.179 A 
ATOM     14  C   UNL     1      31.579 -23.311 -16.024  0.00  0.00    +0.007 C 
ATOM     15  C   UNL     1      32.707 -24.388 -13.637  0.00  0.00    +0.070 C 
ATOM     16  C   UNL     1      30.772 -23.657 -14.930  0.00  0.00    +0.030 C 
ATOM     17  C   UNL     1      31.328 -24.186 -13.760  0.00  0.00    +0.143 C 
ENDBRANCH   2  11
BRANCH   1  18
ATOM     18  C   UNL     1      34.417 -19.998 -21.401  0.00  0.00    -0.076 C 
BRANCH  18  19
ATOM     19  C   UNL     1      35.337 -18.785 -21.398  0.00  0.00    -0.007 C 
BRANCH  19  23
ATOM     20  O   UNL     1      35.045 -16.082 -20.805  0.00  0.00    -0.274 OA
ATOM     21  N   UNL     1      34.400 -15.457 -22.954  0.00  0.00    -0.237 N 
ATOM     22  N   UNL     1      34.180 -17.115 -24.628  0.00  0.00    -0.399 NA
ATOM     23  C   UNL     1      34.913 -17.790 -22.438  0.00  0.00    +0.123 C 
ATOM     24  C   UNL     1      34.195 -14.071 -22.520  0.00  0.00    +0.100 C 
ATOM     25  C   UNL     1      34.122 -13.057 -23.647  0.00  0.00    +0.022 C 
ATOM     26  C   UNL     1      34.091 -15.885 -24.233  0.00  0.00    +0.165 C 
ATOM     27  C   UNL     1      33.159 -13.558 -24.703  0.00  0.00    +0.011 C 
ATOM     28  C   UNL     1      33.687 -14.858 -25.275  0.00  0.00    +0.075 C 
ATOM     29  C   UNL     1      34.801 -16.370 -21.976  0.00  0.00    +0.237 C 
ATOM     30  C   UNL     1      34.597 -18.059 -23.720  0.00  0.00    +0.096 C 
ATOM     31  C   UNL     1      34.696 -19.439 -24.314  0.00  0.00    +0.062 C 
ENDBRANCH  19  23
ENDBRANCH  18  19
ENDBRANCH   1  18
TORSDOF 4
ENDMDL
MODEL 3
REMARK VINA RESULT:     -12.8      4.476     10.182
REMARK  Name = 5073
REMARK  4 active torsions:
REMARK  status: ('A' for Active; 'I' for Inactive)
REMARK    1  A    between atoms: N_1  and  C_18
REMARK    2  A    between atoms: C_2  and  C_11
REMARK    3  A    between atoms: C_18  and  C_19
REMARK    4  A    between atoms: C_19  and  C_23
REMARK                            x       y       z     vdW  Elec       q    Type
REMARK                         _______ _______ _______ _____ _____    ______ ____
ROOT
ATOM      1  N   UNL     1      34.017 -15.174 -22.662  0.00  0.00    +0.387 N 
ATOM      2  C   UNL     1      35.709 -17.313 -21.579  0.00  0.00    +0.039 C 
ATOM      3  C   UNL     1      34.965 -16.313 -20.679  0.00  0.00    -0.017 C 
ATOM      4  C   UNL     1      34.985 -17.436 -22.930  0.00  0.00    -0.017 C 
ATOM      5  C   UNL     1      34.740 -14.980 -21.397  0.00  0.00    -0.077 C 
ATOM      6  C   UNL     1      34.759 -16.062 -23.566  0.00  0.00    -0.077 C 
ATOM      7  H   UNL     1      33.124 -15.617 -22.447  0.00  0.00    -0.080 HD
ENDROOT
BRANCH   2  11
ATOM      8  F   UNL     1      33.178 -23.022 -19.086  0.00  0.00    -0.204 F 
ATOM      9  O   UNL     1      37.018 -20.279 -20.008  0.00  0.00    -0.354 OA
ATOM     10  N   UNL     1      37.164 -19.030 -20.597  0.00  0.00    -0.081 NA
ATOM     11  C   UNL     1      35.927 -18.651 -20.909  0.00  0.00    +0.100 A 
ATOM     12  C   UNL     1      34.956 -19.598 -20.553  0.00  0.00    +0.054 A 
ATOM     13  C   UNL     1      35.700 -20.617 -19.983  0.00  0.00    +0.179 A 
ATOM     14  C   UNL     1      33.562 -19.736 -20.633  0.00  0.00    +0.007 C 
ATOM     15  C   UNL     1      35.159 -21.793 -19.472  0.00  0.00    +0.070 C 
ATOM     16  C   UNL     1      32.982 -20.908 -20.127  0.00  0.00    +0.030 C 
ATOM     17  C   UNL     1      33.768 -21.916 -19.558  0.00  0.00    +0.143 C 
ENDBRANCH   2  11
BRANCH   1  18
ATOM     18  C   UNL     1      33.760 -13.886 -23.306  0.00  0.00    -0.076 C 
BRANCH  18  19
ATOM     19  C   UNL     1      32.301 -13.495 -23.117  0.00  0.00    -0.007 C 
BRANCH  19  23
ATOM     20  O   UNL     1      32.410 -10.801 -23.805  0.00  0.00    -0.274 OA
ATOM     21  N   UNL     1      32.122 -10.010 -21.632  0.00  0.00    -0.237 N 
ATOM     22  N   UNL     1      31.939 -11.556 -19.850  0.00  0.00    -0.399 NA
ATOM     23  C   UNL     1      32.168 -12.411 -22.087  0.00  0.00    +0.123 C 
ATOM     24  C   UNL     1      32.277  -8.623 -22.085  0.00  0.00    +0.100 C 
ATOM     25  C   UNL     1      31.786  -7.576 -21.103  0.00  0.00    +0.022 C 
ATOM     26  C   UNL     1      31.994 -10.340 -20.295  0.00  0.00    +0.165 C 
ATOM     27  C   UNL     1      32.352  -7.879 -19.731  0.00  0.00    +0.011 C 
ATOM     28  C   UNL     1      31.838  -9.229 -19.274  0.00  0.00    +0.075 C 
ATOM     29  C   UNL     1      32.242 -11.007 -22.603  0.00  0.00    +0.237 C 
ATOM     30  C   UNL     1      32.023 -12.584 -20.759  0.00  0.00    +0.096 C 
ATOM     31  C   UNL     1      31.906 -13.942 -20.118  0.00  0.00    +0.062 C 
ENDBRANCH  19  23
ENDBRANCH  18  19
ENDBRANCH   1  18
TORSDOF 4
ENDMDL
MODEL 4
REMARK VINA RESULT:     -12.4      3.662      9.693
REMARK  Name = 5073
REMARK  4 active torsions:
REMARK  status: ('A' for Active; 'I' for Inactive)
REMARK    1  A    between atoms: N_1  and  C_18
REMARK    2  A    between atoms: C_2  and  C_11
REMARK    3  A    between atoms: C_18  and  C_19
REMARK    4  A    between atoms: C_19  and  C_23
REMARK                            x       y       z     vdW  Elec       q    Type
REMARK                         _______ _______ _______ _____ _____    ______ ____
ROOT
ATOM      1  N   UNL     1      34.789 -19.545 -20.865  0.00  0.00    +0.387 N 
ATOM      2  C   UNL     1      34.446 -21.965 -19.242  0.00  0.00    +0.039 C 
ATOM      3  C   UNL     1      35.780 -21.204 -19.317  0.00  0.00    -0.017 C 
ATOM      4  C   UNL     1      33.282 -21.011 -19.558  0.00  0.00    -0.017 C 
ATOM      5  C   UNL     1      35.920 -20.460 -20.647  0.00  0.00    -0.077 C 
ATOM      6  C   UNL     1      33.513 -20.274 -20.880  0.00  0.00    -0.077 C 
ATOM      7  H   UNL     1      34.766 -18.884 -20.089  0.00  0.00    -0.080 HD
ENDROOT
BRANCH   2  11
ATOM      8  F   UNL     1      36.924 -23.891 -13.295  0.00  0.00    -0.204 F 
ATOM      9  O   UNL     1      33.264 -23.860 -16.415  0.00  0.00    -0.354 OA
ATOM     10  N   UNL     1      33.105 -23.299 -17.675  0.00  0.00    -0.081 NA
ATOM     11  C   UNL     1      34.264 -22.693 -17.929  0.00  0.00    +0.100 A 
ATOM     12  C   UNL     1      35.193 -22.826 -16.888  0.00  0.00    +0.054 A 
ATOM     13  C   UNL     1      34.510 -23.576 -15.946  0.00  0.00    +0.179 A 
ATOM     14  C   UNL     1      36.507 -22.418 -16.611  0.00  0.00    +0.007 C 
ATOM     15  C   UNL     1      35.039 -23.966 -14.719  0.00  0.00    +0.070 C 
ATOM     16  C   UNL     1      37.072 -22.794 -15.384  0.00  0.00    +0.030 C 
ATOM     17  C   UNL     1      36.350 -23.552 -14.457  0.00  0.00    +0.143 C 
ENDBRANCH   2  11
BRANCH   1  18
ATOM     18  C   UNL     1      34.968 -18.801 -22.112  0.00  0.00    -0.076 C 
BRANCH  18  19
ATOM     19  C   UNL     1      35.732 -17.513 -21.840  0.00  0.00    -0.007 C 
BRANCH  19  23
ATOM     20  O   UNL     1      34.649 -15.977 -19.788  0.00  0.00    -0.274 OA
ATOM     21  N   UNL     1      33.565 -14.470 -21.194  0.00  0.00    -0.237 N 
ATOM     22  N   UNL     1      33.687 -14.775 -23.537  0.00  0.00    -0.399 NA
ATOM     23  C   UNL     1      34.875 -16.313 -22.120  0.00  0.00    +0.123 C 
ATOM     24  C   UNL     1      32.974 -13.777 -20.044  0.00  0.00    +0.100 C 
ATOM     25  C   UNL     1      32.428 -12.394 -20.348  0.00  0.00    +0.022 C 
ATOM     26  C   UNL     1      33.251 -14.135 -22.499  0.00  0.00    +0.165 C 
ATOM     27  C   UNL     1      31.556 -12.465 -21.583  0.00  0.00    +0.011 C 
ATOM     28  C   UNL     1      32.402 -12.904 -22.760  0.00  0.00    +0.075 C 
ATOM     29  C   UNL     1      34.365 -15.581 -20.918  0.00  0.00    +0.237 C 
ATOM     30  C   UNL     1      34.503 -15.862 -23.334  0.00  0.00    +0.096 C 
ATOM     31  C   UNL     1      34.972 -16.492 -24.619  0.00  0.00    +0.062 C 
ENDBRANCH  19  23
ENDBRANCH  18  19
ENDBRANCH   1  18
TORSDOF 4
ENDMDL
MODEL 5
REMARK VINA RESULT:     -12.4      1.140      2.026
REMARK  Name = 5073
REMARK  4 active torsions:
REMARK  status: ('A' for Active; 'I' for Inactive)
REMARK    1  A    between atoms: N_1  and  C_18
REMARK    2  A    between atoms: C_2  and  C_11
REMARK    3  A    between atoms: C_18  and  C_19
REMARK    4  A    between atoms: C_19  and  C_23
REMARK                            x       y       z     vdW  Elec       q    Type
REMARK                         _______ _______ _______ _____ _____    ______ ____
ROOT
ATOM      1  N   UNL     1      35.935 -19.717 -20.168  0.00  0.00    +0.387 N 
ATOM      2  C   UNL     1      35.315 -18.520 -22.775  0.00  0.00    +0.039 C 
ATOM      3  C   UNL     1      34.307 -19.389 -22.004  0.00  0.00    -0.017 C 
ATOM      4  C   UNL     1      36.316 -17.889 -21.793  0.00  0.00    -0.017 C 
ATOM      5  C   UNL     1      35.020 -20.396 -21.098  0.00  0.00    -0.077 C 
ATOM      6  C   UNL     1      36.956 -18.950 -20.895  0.00  0.00    -0.077 C 
ATOM      7  H   UNL     1      35.386 -19.063 -19.610  0.00  0.00    -0.080 HD
ENDROOT
BRANCH   2  11
ATOM      8  F   UNL     1      33.313 -12.187 -23.826  0.00  0.00    -0.204 F 
ATOM      9  O   UNL     1      33.621 -16.722 -25.398  0.00  0.00    -0.354 OA
ATOM     10  N   UNL     1      34.162 -17.876 -24.845  0.00  0.00    -0.081 NA
ATOM     11  C   UNL     1      34.643 -17.497 -23.663  0.00  0.00    +0.100 A 
ATOM     12  C   UNL     1      34.447 -16.134 -23.401  0.00  0.00    +0.054 A 
ATOM     13  C   UNL     1      33.793 -15.683 -24.535  0.00  0.00    +0.179 A 
ATOM     14  C   UNL     1      34.730 -15.223 -22.372  0.00  0.00    +0.007 C 
ATOM     15  C   UNL     1      33.386 -14.368 -24.736  0.00  0.00    +0.070 C 
ATOM     16  C   UNL     1      34.334 -13.889 -22.540  0.00  0.00    +0.030 C 
ATOM     17  C   UNL     1      33.675 -13.471 -23.701  0.00  0.00    +0.143 C 
ENDBRANCH   2  11
BRANCH   1  18
ATOM     18  C   UNL     1      36.564 -20.687 -19.272  0.00  0.00    -0.076 C 
BRANCH  18  19
ATOM     19  C   UNL     1      35.923 -22.054 -19.457  0.00  0.00    -0.007 C 
BRANCH  19  23
ATOM     20  O   UNL     1      37.234 -22.674 -17.082  0.00  0.00    -0.274 OA
ATOM     21  N   UNL     1      35.295 -23.147 -15.880  0.00  0.00    -0.237 N 
ATOM     22  N   UNL     1      33.197 -23.024 -16.968  0.00  0.00    -0.399 NA
ATOM     23  C   UNL     1      35.171 -22.463 -18.223  0.00  0.00    +0.123 C 
ATOM     24  C   UNL     1      36.082 -23.533 -14.705  0.00  0.00    +0.100 C 
ATOM     25  C   UNL     1      35.299 -23.587 -13.406  0.00  0.00    +0.022 C 
ATOM     26  C   UNL     1      33.918 -23.275 -15.922  0.00  0.00    +0.165 C 
ATOM     27  C   UNL     1      34.027 -24.379 -13.626  0.00  0.00    +0.011 C 
ATOM     28  C   UNL     1      33.176 -23.667 -14.657  0.00  0.00    +0.075 C 
ATOM     29  C   UNL     1      36.007 -22.763 -17.019  0.00  0.00    +0.237 C 
ATOM     30  C   UNL     1      33.837 -22.613 -18.114  0.00  0.00    +0.096 C 
ATOM     31  C   UNL     1      32.884 -22.316 -19.242  0.00  0.00    +0.062 C 
ENDBRANCH  19  23
ENDBRANCH  18  19
ENDBRANCH   1  18
TORSDOF 4
ENDMDL
MODEL 6
REMARK VINA RESULT:     -12.3      3.619     10.238
REMARK  Name = 5073
REMARK  4 active torsions:
REMARK  status: ('A' for Active; 'I' for Inactive)
REMARK    1  A    between atoms: N_1  and  C_18
REMARK    2  A    between atoms: C_2  and  C_11
REMARK    3  A    between atoms: C_18  and  C_19
REMARK    4  A    between atoms: C_19  and  C_23
REMARK                            x       y       z     vdW  Elec       q    Type
REMARK                         _______ _______ _______ _____ _____    ______ ____
ROOT
ATOM      1  N   UNL     1      34.362 -20.625 -20.082  0.00  0.00    +0.387 N 
ATOM      2  C   UNL     1      34.189 -22.764 -18.081  0.00  0.00    +0.039 C 
ATOM      3  C   UNL     1      35.493 -21.997 -18.359  0.00  0.00    -0.017 C 
ATOM      4  C   UNL     1      32.981 -21.896 -18.468  0.00  0.00    -0.017 C 
ATOM      5  C   UNL     1      35.530 -21.470 -19.796  0.00  0.00    -0.077 C 
ATOM      6  C   UNL     1      33.110 -21.373 -19.901  0.00  0.00    -0.077 C 
ATOM      7  H   UNL     1      34.365 -19.850 -19.419  0.00  0.00    -0.080 HD
ENDROOT
BRANCH   2  11
ATOM      8  F   UNL     1      37.214 -24.122 -12.231  0.00  0.00    -0.204 F 
ATOM      9  O   UNL     1      33.204 -24.105 -14.886  0.00  0.00    -0.354 OA
ATOM     10  N   UNL     1      32.939 -23.708 -16.190  0.00  0.00    -0.081 NA
ATOM     11  C   UNL     1      34.108 -23.279 -16.661  0.00  0.00    +0.100 A 
ATOM     12  C   UNL     1      35.146 -23.372 -15.724  0.00  0.00    +0.054 A 
ATOM     13  C   UNL     1      34.521 -23.903 -14.609  0.00  0.00    +0.179 A 
ATOM     14  C   UNL     1      36.518 -23.083 -15.662  0.00  0.00    +0.007 C 
ATOM     15  C   UNL     1      35.163 -24.177 -13.405  0.00  0.00    +0.070 C 
ATOM     16  C   UNL     1      37.197 -23.347 -14.464  0.00  0.00    +0.030 C 
ATOM     17  C   UNL     1      36.530 -23.884 -13.358  0.00  0.00    +0.143 C 
ENDBRANCH   2  11
BRANCH   1  18
ATOM     18  C   UNL     1      34.443 -20.083 -21.438  0.00  0.00    -0.076 C 
BRANCH  18  19
ATOM     19  C   UNL     1      35.385 -18.888 -21.462  0.00  0.00    -0.007 C 
BRANCH  19  23
ATOM     20  O   UNL     1      35.100 -16.195 -20.822  0.00  0.00    -0.274 OA
ATOM     21  N   UNL     1      34.415 -15.537 -22.949  0.00  0.00    -0.237 N 
ATOM     22  N   UNL     1      34.166 -17.169 -24.644  0.00  0.00    -0.399 NA
ATOM     23  C   UNL     1      34.940 -17.877 -22.479  0.00  0.00    +0.123 C 
ATOM     24  C   UNL     1      34.216 -14.158 -22.490  0.00  0.00    +0.100 C 
ATOM     25  C   UNL     1      34.120 -13.128 -23.599  0.00  0.00    +0.022 C 
ATOM     26  C   UNL     1      34.083 -15.945 -24.228  0.00  0.00    +0.165 C 
ATOM     27  C   UNL     1      33.139 -13.614 -24.645  0.00  0.00    +0.011 C 
ATOM     28  C   UNL     1      33.658 -14.903 -25.246  0.00  0.00    +0.075 C 
ATOM     29  C   UNL     1      34.835 -16.465 -21.993  0.00  0.00    +0.237 C 
ATOM     30  C   UNL     1      34.601 -18.127 -23.759  0.00  0.00    +0.096 C 
ATOM     31  C   UNL     1      34.691 -19.497 -24.376  0.00  0.00    +0.062 C 
ENDBRANCH  19  23
ENDBRANCH  18  19
ENDBRANCH   1  18
TORSDOF 4
ENDMDL
MODEL 7
REMARK VINA RESULT:     -12.3      2.517      3.422
REMARK  Name = 5073
REMARK  4 active torsions:
REMARK  status: ('A' for Active; 'I' for Inactive)
REMARK    1  A    between atoms: N_1  and  C_18
REMARK    2  A    between atoms: C_2  and  C_11
REMARK    3  A    between atoms: C_18  and  C_19
REMARK    4  A    between atoms: C_19  and  C_23
REMARK                            x       y       z     vdW  Elec       q    Type
REMARK                         _______ _______ _______ _____ _____    ______ ____
ROOT
ATOM      1  N   UNL     1      36.100 -20.691 -19.245  0.00  0.00    +0.387 N 
ATOM      2  C   UNL     1      35.620 -19.228 -21.743  0.00  0.00    +0.039 C 
ATOM      3  C   UNL     1      34.477 -19.798 -20.887  0.00  0.00    -0.017 C 
ATOM      4  C   UNL     1      36.855 -18.975 -20.862  0.00  0.00    -0.017 C 
ATOM      5  C   UNL     1      34.938 -21.017 -20.085  0.00  0.00    -0.077 C 
ATOM      6  C   UNL     1      37.230 -20.225 -20.061  0.00  0.00    -0.077 C 
ATOM      7  H   UNL     1      35.831 -19.933 -18.617  0.00  0.00    -0.080 HD
ENDROOT
BRANCH   2  11
ATOM      8  F   UNL     1      33.740 -12.773 -21.858  0.00  0.00    -0.204 F 
ATOM      9  O   UNL     1      34.729 -16.816 -24.267  0.00  0.00    -0.354 OA
ATOM     10  N   UNL     1      35.128 -18.082 -23.859  0.00  0.00    -0.081 NA
ATOM     11  C   UNL     1      35.206 -18.006 -22.532  0.00  0.00    +0.100 A 
ATOM     12  C   UNL     1      34.875 -16.738 -22.033  0.00  0.00    +0.054 A 
ATOM     13  C   UNL     1      34.579 -16.015 -23.177  0.00  0.00    +0.179 A 
ATOM     14  C   UNL     1      34.786 -16.104 -20.785  0.00  0.00    +0.007 C 
ATOM     15  C   UNL     1      34.192 -14.678 -23.182  0.00  0.00    +0.070 C 
ATOM     16  C   UNL     1      34.397 -14.757 -20.753  0.00  0.00    +0.030 C 
ATOM     17  C   UNL     1      34.107 -14.059 -21.930  0.00  0.00    +0.143 C 
ENDBRANCH   2  11
BRANCH   1  18
ATOM     18  C   UNL     1      36.492 -21.850 -18.443  0.00  0.00    -0.076 C 
BRANCH  18  19
ATOM     19  C   UNL     1      36.279 -21.552 -16.966  0.00  0.00    -0.007 C 
BRANCH  19  23
ATOM     20  O   UNL     1      38.488 -22.657 -15.684  0.00  0.00    -0.274 OA
ATOM     21  N   UNL     1      37.338 -24.483 -14.806  0.00  0.00    -0.237 N 
ATOM     22  N   UNL     1      35.041 -24.756 -15.304  0.00  0.00    -0.399 NA
ATOM     23  C   UNL     1      36.178 -22.822 -16.173  0.00  0.00    +0.123 C 
ATOM     24  C   UNL     1      38.576 -25.027 -14.239  0.00  0.00    +0.100 C 
ATOM     25  C   UNL     1      38.374 -26.085 -13.171  0.00  0.00    +0.022 C 
ATOM     26  C   UNL     1      36.136 -25.164 -14.744  0.00  0.00    +0.165 C 
ATOM     27  C   UNL     1      37.382 -27.113 -13.673  0.00  0.00    +0.011 C 
ATOM     28  C   UNL     1      36.050 -26.434 -13.918  0.00  0.00    +0.075 C 
ATOM     29  C   UNL     1      37.447 -23.297 -15.535  0.00  0.00    +0.237 C 
ATOM     30  C   UNL     1      35.075 -23.579 -16.013  0.00  0.00    +0.096 C 
ATOM     31  C   UNL     1      33.732 -23.197 -16.579  0.00  0.00    +0.062 C 
ENDBRANCH  19  23
ENDBRANCH  18  19
ENDBRANCH   1  18
TORSDOF 4
ENDMDL
MODEL 8
REMARK VINA RESULT:     -12.3      3.388     10.069
REMARK  Name = 5073
REMARK  4 active torsions:
REMARK  status: ('A' for Active; 'I' for Inactive)
REMARK    1  A    between atoms: N_1  and  C_18
REMARK    2  A    between atoms: C_2  and  C_11
REMARK    3  A    between atoms: C_18  and  C_19
REMARK    4  A    between atoms: C_19  and  C_23
REMARK                            x       y       z     vdW  Elec       q    Type
REMARK                         _______ _______ _______ _____ _____    ______ ____
ROOT
ATOM      1  N   UNL     1      34.330 -20.051 -20.884  0.00  0.00    +0.387 N 
ATOM      2  C   UNL     1      34.398 -22.210 -18.898  0.00  0.00    +0.039 C 
ATOM      3  C   UNL     1      35.667 -21.481 -19.370  0.00  0.00    -0.017 C 
ATOM      4  C   UNL     1      33.174 -21.298 -19.086  0.00  0.00    -0.017 C 
ATOM      5  C   UNL     1      35.499 -20.936 -20.790  0.00  0.00    -0.077 C 
ATOM      6  C   UNL     1      33.097 -20.760 -20.517  0.00  0.00    -0.077 C 
ATOM      7  H   UNL     1      34.462 -19.285 -20.223  0.00  0.00    -0.080 HD
ENDROOT
BRANCH   2  11
ATOM      8  F   UNL     1      31.479 -24.673 -13.364  0.00  0.00    -0.204 F 
ATOM      9  O   UNL     1      35.491 -23.341 -15.657  0.00  0.00    -0.354 OA
ATOM     10  N   UNL     1      35.724 -22.826 -16.925  0.00  0.00    -0.081 NA
ATOM     11  C   UNL     1      34.520 -22.741 -17.488  0.00  0.00    +0.100 A 
ATOM     12  C   UNL     1      33.488 -23.179 -16.646  0.00  0.00    +0.054 A 
ATOM     13  C   UNL     1      34.157 -23.552 -15.492  0.00  0.00    +0.179 A 
ATOM     14  C   UNL     1      32.093 -23.314 -16.698  0.00  0.00    +0.007 C 
ATOM     15  C   UNL     1      33.535 -24.061 -14.355  0.00  0.00    +0.070 C 
ATOM     16  C   UNL     1      31.434 -23.823 -15.570  0.00  0.00    +0.030 C 
ATOM     17  C   UNL     1      32.144 -24.189 -14.422  0.00  0.00    +0.143 C 
ENDBRANCH   2  11
BRANCH   1  18
ATOM     18  C   UNL     1      34.218 -19.494 -22.232  0.00  0.00    -0.076 C 
BRANCH  18  19
ATOM     19  C   UNL     1      35.379 -18.547 -22.499  0.00  0.00    -0.007 C 
BRANCH  19  23
ATOM     20  O   UNL     1      34.621 -17.560 -24.988  0.00  0.00    -0.274 OA
ATOM     21  N   UNL     1      34.068 -15.432 -24.219  0.00  0.00    -0.237 N 
ATOM     22  N   UNL     1      34.371 -14.911 -21.931  0.00  0.00    -0.399 NA
ATOM     23  C   UNL     1      34.891 -17.139 -22.675  0.00  0.00    +0.123 C 
ATOM     24  C   UNL     1      33.772 -14.984 -25.584  0.00  0.00    +0.100 C 
ATOM     25  C   UNL     1      32.958 -13.706 -25.670  0.00  0.00    +0.022 C 
ATOM     26  C   UNL     1      34.037 -14.572 -23.136  0.00  0.00    +0.165 C 
ATOM     27  C   UNL     1      33.575 -12.663 -24.762  0.00  0.00    +0.011 C 
ATOM     28  C   UNL     1      33.518 -13.160 -23.332  0.00  0.00    +0.075 C 
ATOM     29  C   UNL     1      34.515 -16.747 -24.070  0.00  0.00    +0.237 C 
ATOM     30  C   UNL     1      34.793 -16.200 -21.713  0.00  0.00    +0.096 C 
ATOM     31  C   UNL     1      35.112 -16.475 -20.267  0.00  0.00    +0.062 C 
ENDBRANCH  19  23
ENDBRANCH  18  19
ENDBRANCH   1  18
TORSDOF 4
ENDMDL
MODEL 9
REMARK VINA RESULT:     -12.2      3.844     10.282
REMARK  Name = 5073
REMARK  4 active torsions:
REMARK  status: ('A' for Active; 'I' for Inactive)
REMARK    1  A    between atoms: N_1  and  C_18
REMARK    2  A    between atoms: C_2  and  C_11
REMARK    3  A    between atoms: C_18  and  C_19
REMARK    4  A    between atoms: C_19  and  C_23
REMARK                            x       y       z     vdW  Elec       q    Type
REMARK                         _______ _______ _______ _____ _____    ______ ____
ROOT
ATOM      1  N   UNL     1      34.737 -20.556 -19.822  0.00  0.00    +0.387 N 
ATOM      2  C   UNL     1      35.905 -22.380 -17.843  0.00  0.00    +0.039 C 
ATOM      3  C   UNL     1      36.656 -21.148 -18.376  0.00  0.00    -0.017 C 
ATOM      4  C   UNL     1      34.389 -22.161 -17.971  0.00  0.00    -0.017 C 
ATOM      5  C   UNL     1      36.189 -20.780 -19.786  0.00  0.00    -0.077 C 
ATOM      6  C   UNL     1      34.004 -21.756 -19.396  0.00  0.00    -0.077 C 
ATOM      7  H   UNL     1      34.518 -19.804 -19.168  0.00  0.00    -0.080 HD
ENDROOT
BRANCH   2  11
ATOM      8  F   UNL     1      34.397 -25.095 -11.880  0.00  0.00    -0.204 F 
ATOM      9  O   UNL     1      37.625 -22.956 -14.731  0.00  0.00    -0.354 OA
ATOM     10  N   UNL     1      37.567 -22.492 -16.038  0.00  0.00    -0.081 NA
ATOM     11  C   UNL     1      36.326 -22.758 -16.441  0.00  0.00    +0.100 A 
ATOM     12  C   UNL     1      35.550 -23.383 -15.455  0.00  0.00    +0.054 A 
ATOM     13  C   UNL     1      36.422 -23.488 -14.384  0.00  0.00    +0.179 A 
ATOM     14  C   UNL     1      34.242 -23.872 -15.318  0.00  0.00    +0.007 C 
ATOM     15  C   UNL     1      36.092 -24.054 -13.156  0.00  0.00    +0.070 C 
ATOM     16  C   UNL     1      33.875 -24.448 -14.093  0.00  0.00    +0.030 C 
ATOM     17  C   UNL     1      34.784 -24.537 -13.034  0.00  0.00    +0.143 C 
ENDBRANCH   2  11
BRANCH   1  18
ATOM     18  C   UNL     1      34.316 -20.149 -21.163  0.00  0.00    -0.076 C 
BRANCH  18  19
ATOM     19  C   UNL     1      35.467 -19.456 -21.878  0.00  0.00    -0.007 C 
BRANCH  19  23
ATOM     20  O   UNL     1      35.379 -16.822 -20.984  0.00  0.00    -0.274 OA
ATOM     21  N   UNL     1      34.499 -15.952 -22.958  0.00  0.00    -0.237 N 
ATOM     22  N   UNL     1      33.992 -17.417 -24.747  0.00  0.00    -0.399 NA
ATOM     23  C   UNL     1      34.962 -18.343 -22.749  0.00  0.00    +0.123 C 
ATOM     24  C   UNL     1      34.415 -14.614 -22.365  0.00  0.00    +0.100 C 
ATOM     25  C   UNL     1      34.248 -13.485 -23.366  0.00  0.00    +0.022 C 
ATOM     26  C   UNL     1      34.011 -16.232 -24.222  0.00  0.00    +0.165 C 
ATOM     27  C   UNL     1      33.137 -13.839 -24.332  0.00  0.00    +0.011 C 
ATOM     28  C   UNL     1      33.528 -15.089 -25.095  0.00  0.00    +0.075 C 
ATOM     29  C   UNL     1      34.976 -16.977 -22.137  0.00  0.00    +0.237 C 
ATOM     30  C   UNL     1      34.475 -18.465 -24.000  0.00  0.00    +0.096 C 
ATOM     31  C   UNL     1      34.434 -19.777 -24.737  0.00  0.00    +0.062 C 
ENDBRANCH  19  23
ENDBRANCH  18  19
ENDBRANCH   1  18
TORSDOF 4
ENDMDL
