MODEL 1
REMARK VINA RESULT:      -9.4      0.000      0.000
REMARK  Name = 54676038
REMARK  4 active torsions:
REMARK  status: ('A' for Active; 'I' for Inactive)
REMARK    1  A    between atoms: C_1  and  C_4
REMARK    2  A    between atoms: C_1  and  C_17
REMARK    3  A    between atoms: C_5  and  O_13
REMARK    4  A    between atoms: C_18  and  O_26
REMARK                            x       y       z     vdW  Elec       q    Type
REMARK                         _______ _______ _______ _____ _____    ______ ____
ROOT
ATOM      1  C   UNL     1      32.184  -5.893 -21.399  0.00  0.00    +0.072 C 
ENDROOT
BRANCH   1   4
ATOM      2  O   UNL     1      32.024  -4.663 -24.956  0.00  0.00    -0.421 OA
ATOM      3  O   UNL     1      30.658  -4.401 -23.156  0.00  0.00    -0.245 OA
ATOM      4  C   UNL     1      32.621  -5.702 -22.805  0.00  0.00    +0.092 A 
ATOM      5  C   UNL     1      33.745  -6.202 -23.352  0.00  0.00    +0.139 A 
ATOM      6  C   UNL     1      34.072  -5.957 -24.759  0.00  0.00    +0.068 A 
ATOM      7  C   UNL     1      33.197  -5.191 -25.522  0.00  0.00    +0.152 A 
ATOM      8  C   UNL     1      31.687  -4.877 -23.626  0.00  0.00    +0.345 A 
ATOM      9  C   UNL     1      35.224  -6.454 -25.384  0.00  0.00    +0.006 C 
ATOM     10  C   UNL     1      33.434  -4.912 -26.869  0.00  0.00    +0.038 C 
ATOM     11  C   UNL     1      35.476  -6.182 -26.732  0.00  0.00    +0.000 C 
ATOM     12  C   UNL     1      34.581  -5.412 -27.474  0.00  0.00    +0.003 C 
BRANCH   5  13
ATOM     13  O   UNL     1      34.671  -6.967 -22.675  0.00  0.00    -0.506 OA
ATOM     14  H   UNL     1      34.549  -7.153 -21.765  0.00  0.00    +0.292 HD
ENDBRANCH   5  13
ENDBRANCH   1   4
BRANCH   1  17
ATOM     15  O   UNL     1      32.730  -8.998 -19.304  0.00  0.00    -0.421 OA
ATOM     16  O   UNL     1      33.259  -6.805 -19.009  0.00  0.00    -0.245 OA
ATOM     17  C   UNL     1      32.115  -7.349 -21.025  0.00  0.00    +0.092 A 
ATOM     18  C   UNL     1      31.554  -8.323 -21.766  0.00  0.00    +0.139 A 
ATOM     19  C   UNL     1      31.555  -9.714 -21.306  0.00  0.00    +0.068 A 
ATOM     20  C   UNL     1      32.147 -10.011 -20.084  0.00  0.00    +0.152 A 
ATOM     21  C   UNL     1      32.745  -7.671 -19.711  0.00  0.00    +0.345 A 
ATOM     22  C   UNL     1      30.990 -10.770 -22.033  0.00  0.00    +0.006 C 
ATOM     23  C   UNL     1      32.190 -11.308 -19.572  0.00  0.00    +0.038 C 
ATOM     24  C   UNL     1      31.026 -12.078 -21.537  0.00  0.00    +0.000 C 
ATOM     25  C   UNL     1      31.627 -12.346 -20.307  0.00  0.00    +0.003 C 
BRANCH  18  26
ATOM     26  O   UNL     1      30.944  -8.125 -22.986  0.00  0.00    -0.506 OA
ATOM     27  H   UNL     1      31.112  -7.342 -23.473  0.00  0.00    +0.292 HD
ENDBRANCH  18  26
ENDBRANCH   1  17
TORSDOF 4
ENDMDL
MODEL 2
REMARK VINA RESULT:      -9.4      0.051      6.685
REMARK  Name = 54676038
REMARK  4 active torsions:
REMARK  status: ('A' for Active; 'I' for Inactive)
REMARK    1  A    between atoms: C_1  and  C_4
REMARK    2  A    between atoms: C_1  and  C_17
REMARK    3  A    between atoms: C_5  and  O_13
REMARK    4  A    between atoms: C_18  and  O_26
REMARK                            x       y       z     vdW  Elec       q    Type
REMARK                         _______ _______ _______ _____ _____    ______ ____
ROOT
ATOM      1  C   UNL     1      32.198  -5.864 -21.393  0.00  0.00    +0.072 C 
ENDROOT
BRANCH   1   4
ATOM      2  O   UNL     1      32.744  -8.959 -19.317  0.00  0.00    -0.421 OA
ATOM      3  O   UNL     1      33.304  -6.773 -19.028  0.00  0.00    -0.245 OA
ATOM      4  C   UNL     1      32.120  -7.300 -21.026  0.00  0.00    +0.092 A 
ATOM      5  C   UNL     1      31.535  -8.266 -21.758  0.00  0.00    +0.139 A 
ATOM      6  C   UNL     1      31.526  -9.658 -21.301  0.00  0.00    +0.068 A 
ATOM      7  C   UNL     1      32.134  -9.964 -20.088  0.00  0.00    +0.152 A 
ATOM      8  C   UNL     1      32.768  -7.631 -19.723  0.00  0.00    +0.345 A 
ATOM      9  C   UNL     1      30.937 -10.706 -22.020  0.00  0.00    +0.006 C 
ATOM     10  C   UNL     1      32.172 -11.263 -19.580  0.00  0.00    +0.038 C 
ATOM     11  C   UNL     1      30.965 -12.014 -21.526  0.00  0.00    +0.000 C 
ATOM     12  C   UNL     1      31.582 -12.292 -20.307  0.00  0.00    +0.003 C 
BRANCH   5  13
ATOM     13  O   UNL     1      30.905  -8.058 -22.967  0.00  0.00    -0.506 OA
ATOM     14  H   UNL     1      31.247  -7.429 -23.571  0.00  0.00    +0.292 HD
ENDBRANCH   5  13
ENDBRANCH   1   4
BRANCH   1  17
ATOM     15  O   UNL     1      32.049  -4.629 -24.968  0.00  0.00    -0.421 OA
ATOM     16  O   UNL     1      30.686  -4.358 -23.167  0.00  0.00    -0.245 OA
ATOM     17  C   UNL     1      32.641  -5.671 -22.818  0.00  0.00    +0.092 A 
ATOM     18  C   UNL     1      33.762  -6.179 -23.366  0.00  0.00    +0.139 A 
ATOM     19  C   UNL     1      34.089  -5.936 -24.773  0.00  0.00    +0.068 A 
ATOM     20  C   UNL     1      33.218  -5.165 -25.535  0.00  0.00    +0.152 A 
ATOM     21  C   UNL     1      31.712  -4.841 -23.639  0.00  0.00    +0.345 A 
ATOM     22  C   UNL     1      35.237  -6.438 -25.399  0.00  0.00    +0.006 C 
ATOM     23  C   UNL     1      33.454  -4.885 -26.882  0.00  0.00    +0.038 C 
ATOM     24  C   UNL     1      35.489  -6.169 -26.749  0.00  0.00    +0.000 C 
ATOM     25  C   UNL     1      34.598  -5.393 -27.489  0.00  0.00    +0.003 C 
BRANCH  18  26
ATOM     26  O   UNL     1      34.683  -6.949 -22.690  0.00  0.00    -0.506 OA
ATOM     27  H   UNL     1      34.429  -7.414 -21.917  0.00  0.00    +0.292 HD
ENDBRANCH  18  26
ENDBRANCH   1  17
TORSDOF 4
ENDMDL
MODEL 3
REMARK VINA RESULT:      -9.0      3.810      5.616
REMARK  Name = 54676038
REMARK  4 active torsions:
REMARK  status: ('A' for Active; 'I' for Inactive)
REMARK    1  A    between atoms: C_1  and  C_4
REMARK    2  A    between atoms: C_1  and  C_17
REMARK    3  A    between atoms: C_5  and  O_13
REMARK    4  A    between atoms: C_18  and  O_26
REMARK                            x       y       z     vdW  Elec       q    Type
REMARK                         _______ _______ _______ _____ _____    ______ ____
ROOT
ATOM      1  C   UNL     1      31.489 -12.283 -22.272  0.00  0.00    +0.072 C 
ENDROOT
BRANCH   1   4
ATOM      2  O   UNL     1      32.321  -8.723 -21.363  0.00  0.00    -0.421 OA
ATOM      3  O   UNL     1      30.821 -10.227 -20.548  0.00  0.00    -0.245 OA
ATOM      4  C   UNL     1      32.194 -10.979 -22.343  0.00  0.00    +0.092 A 
ATOM      5  C   UNL     1      33.181 -10.667 -23.204  0.00  0.00    +0.139 A 
ATOM      6  C   UNL     1      33.800  -9.339 -23.191  0.00  0.00    +0.068 A 
ATOM      7  C   UNL     1      33.349  -8.403 -22.267  0.00  0.00    +0.152 A 
ATOM      8  C   UNL     1      31.715  -9.973 -21.350  0.00  0.00    +0.345 A 
ATOM      9  C   UNL     1      34.828  -8.956 -24.063  0.00  0.00    +0.006 C 
ATOM     10  C   UNL     1      33.884  -7.116 -22.189  0.00  0.00    +0.038 C 
ATOM     11  C   UNL     1      35.375  -7.670 -23.998  0.00  0.00    +0.000 C 
ATOM     12  C   UNL     1      34.903  -6.751 -23.061  0.00  0.00    +0.003 C 
BRANCH   5  13
ATOM     13  O   UNL     1      33.696 -11.528 -24.149  0.00  0.00    -0.506 OA
ATOM     14  H   UNL     1      33.122 -12.085 -24.637  0.00  0.00    +0.292 HD
ENDBRANCH   5  13
ENDBRANCH   1   4
BRANCH   1  17
ATOM     15  O   UNL     1      33.652 -14.669 -20.282  0.00  0.00    -0.421 OA
ATOM     16  O   UNL     1      32.292 -12.941 -19.698  0.00  0.00    -0.245 OA
ATOM     17  C   UNL     1      32.438 -13.424 -22.024  0.00  0.00    +0.092 A 
ATOM     18  C   UNL     1      32.978 -14.214 -22.973  0.00  0.00    +0.139 A 
ATOM     19  C   UNL     1      33.904 -15.292 -22.617  0.00  0.00    +0.068 A 
ATOM     20  C   UNL     1      34.214 -15.487 -21.275  0.00  0.00    +0.152 A 
ATOM     21  C   UNL     1      32.771 -13.640 -20.586  0.00  0.00    +0.345 A 
ATOM     22  C   UNL     1      34.498 -16.144 -23.557  0.00  0.00    +0.006 C 
ATOM     23  C   UNL     1      35.086 -16.491 -20.851  0.00  0.00    +0.038 C 
ATOM     24  C   UNL     1      35.376 -17.155 -23.149  0.00  0.00    +0.000 C 
ATOM     25  C   UNL     1      35.669 -17.327 -21.797  0.00  0.00    +0.003 C 
BRANCH  18  26
ATOM     26  O   UNL     1      32.727 -14.098 -24.323  0.00  0.00    -0.506 OA
ATOM     27  H   UNL     1      31.882 -13.824 -24.621  0.00  0.00    +0.292 HD
ENDBRANCH  18  26
ENDBRANCH   1  17
TORSDOF 4
ENDMDL
MODEL 4
REMARK VINA RESULT:      -9.0      3.817      7.906
REMARK  Name = 54676038
REMARK  4 active torsions:
REMARK  status: ('A' for Active; 'I' for Inactive)
REMARK    1  A    between atoms: C_1  and  C_4
REMARK    2  A    between atoms: C_1  and  C_17
REMARK    3  A    between atoms: C_5  and  O_13
REMARK    4  A    between atoms: C_18  and  O_26
REMARK                            x       y       z     vdW  Elec       q    Type
REMARK                         _______ _______ _______ _____ _____    ______ ____
ROOT
ATOM      1  C   UNL     1      31.500 -12.313 -22.263  0.00  0.00    +0.072 C 
ENDROOT
BRANCH   1   4
ATOM      2  O   UNL     1      33.654 -14.677 -20.272  0.00  0.00    -0.421 OA
ATOM      3  O   UNL     1      32.281 -12.958 -19.690  0.00  0.00    -0.245 OA
ATOM      4  C   UNL     1      32.443 -13.434 -22.018  0.00  0.00    +0.092 A 
ATOM      5  C   UNL     1      32.992 -14.218 -22.965  0.00  0.00    +0.139 A 
ATOM      6  C   UNL     1      33.922 -15.291 -22.607  0.00  0.00    +0.068 A 
ATOM      7  C   UNL     1      34.227 -15.489 -21.265  0.00  0.00    +0.152 A 
ATOM      8  C   UNL     1      32.769 -13.651 -20.578  0.00  0.00    +0.345 A 
ATOM      9  C   UNL     1      34.527 -16.137 -23.548  0.00  0.00    +0.006 C 
ATOM     10  C   UNL     1      35.103 -16.489 -20.840  0.00  0.00    +0.038 C 
ATOM     11  C   UNL     1      35.407 -17.144 -23.138  0.00  0.00    +0.000 C 
ATOM     12  C   UNL     1      35.695 -17.319 -21.785  0.00  0.00    +0.003 C 
BRANCH   5  13
ATOM     13  O   UNL     1      32.747 -14.100 -24.317  0.00  0.00    -0.506 OA
ATOM     14  H   UNL     1      32.467 -14.846 -24.809  0.00  0.00    +0.292 HD
ENDBRANCH   5  13
ENDBRANCH   1   4
BRANCH   1  17
ATOM     15  O   UNL     1      32.324  -8.727 -21.376  0.00  0.00    -0.421 OA
ATOM     16  O   UNL     1      30.829 -10.232 -20.554  0.00  0.00    -0.245 OA
ATOM     17  C   UNL     1      32.209 -10.988 -22.340  0.00  0.00    +0.092 A 
ATOM     18  C   UNL     1      33.197 -10.677 -23.202  0.00  0.00    +0.139 A 
ATOM     19  C   UNL     1      33.809  -9.346 -23.196  0.00  0.00    +0.068 A 
ATOM     20  C   UNL     1      33.351  -8.407 -22.279  0.00  0.00    +0.152 A 
ATOM     21  C   UNL     1      31.724  -9.978 -21.356  0.00  0.00    +0.345 A 
ATOM     22  C   UNL     1      34.838  -8.964 -24.067  0.00  0.00    +0.006 C 
ATOM     23  C   UNL     1      33.880  -7.117 -22.207  0.00  0.00    +0.038 C 
ATOM     24  C   UNL     1      35.379  -7.675 -24.010  0.00  0.00    +0.000 C 
ATOM     25  C   UNL     1      34.899  -6.752 -23.081  0.00  0.00    +0.003 C 
BRANCH  18  26
ATOM     26  O   UNL     1      33.717 -11.542 -24.141  0.00  0.00    -0.506 OA
ATOM     27  H   UNL     1      33.422 -11.502 -25.029  0.00  0.00    +0.292 HD
ENDBRANCH  18  26
ENDBRANCH   1  17
TORSDOF 4
ENDMDL
MODEL 5
REMARK VINA RESULT:      -8.8      2.206      3.445
REMARK  Name = 54676038
REMARK  4 active torsions:
REMARK  status: ('A' for Active; 'I' for Inactive)
REMARK    1  A    between atoms: C_1  and  C_4
REMARK    2  A    between atoms: C_1  and  C_17
REMARK    3  A    between atoms: C_5  and  O_13
REMARK    4  A    between atoms: C_18  and  O_26
REMARK                            x       y       z     vdW  Elec       q    Type
REMARK                         _______ _______ _______ _____ _____    ______ ____
ROOT
ATOM      1  C   UNL     1      31.245  -9.316 -22.160  0.00  0.00    +0.072 C 
ENDROOT
BRANCH   1   4
ATOM      2  O   UNL     1      34.248  -7.068 -22.504  0.00  0.00    -0.421 OA
ATOM      3  O   UNL     1      33.281  -8.110 -20.729  0.00  0.00    -0.245 OA
ATOM      4  C   UNL     1      32.251  -8.466 -22.846  0.00  0.00    +0.092 A 
ATOM      5  C   UNL     1      32.284  -8.201 -24.166  0.00  0.00    +0.139 A 
ATOM      6  C   UNL     1      33.321  -7.336 -24.734  0.00  0.00    +0.068 A 
ATOM      7  C   UNL     1      34.276  -6.793 -23.882  0.00  0.00    +0.152 A 
ATOM      8  C   UNL     1      33.280  -7.884 -21.935  0.00  0.00    +0.345 A 
ATOM      9  C   UNL     1      33.406  -7.023 -26.098  0.00  0.00    +0.006 C 
ATOM     10  C   UNL     1      35.296  -5.958 -24.342  0.00  0.00    +0.038 C 
ATOM     11  C   UNL     1      34.422  -6.189 -26.575  0.00  0.00    +0.000 C 
ATOM     12  C   UNL     1      35.366  -5.657 -25.698  0.00  0.00    +0.003 C 
BRANCH   5  13
ATOM     13  O   UNL     1      31.385  -8.697 -25.086  0.00  0.00    -0.506 OA
ATOM     14  H   UNL     1      30.943  -9.506 -24.920  0.00  0.00    +0.292 HD
ENDBRANCH   5  13
ENDBRANCH   1   4
BRANCH   1  17
ATOM     15  O   UNL     1      32.043 -12.271 -19.933  0.00  0.00    -0.421 OA
ATOM     16  O   UNL     1      30.905 -10.329 -19.599  0.00  0.00    -0.245 OA
ATOM     17  C   UNL     1      31.810 -10.657 -21.776  0.00  0.00    +0.092 A 
ATOM     18  C   UNL     1      32.507 -11.474 -22.588  0.00  0.00    +0.139 A 
ATOM     19  C   UNL     1      33.021 -12.758 -22.103  0.00  0.00    +0.068 A 
ATOM     20  C   UNL     1      32.773 -13.118 -20.783  0.00  0.00    +0.152 A 
ATOM     21  C   UNL     1      31.542 -11.050 -20.362  0.00  0.00    +0.345 A 
ATOM     22  C   UNL     1      33.753 -13.649 -22.898  0.00  0.00    +0.006 C 
ATOM     23  C   UNL     1      33.226 -14.322 -20.242  0.00  0.00    +0.038 C 
ATOM     24  C   UNL     1      34.217 -14.859 -22.372  0.00  0.00    +0.000 C 
ATOM     25  C   UNL     1      33.954 -15.195 -21.044  0.00  0.00    +0.003 C 
BRANCH  18  26
ATOM     26  O   UNL     1      32.799 -11.204 -23.908  0.00  0.00    -0.506 OA
ATOM     27  H   UNL     1      32.184 -11.427 -24.579  0.00  0.00    +0.292 HD
ENDBRANCH  18  26
ENDBRANCH   1  17
TORSDOF 4
ENDMDL
MODEL 6
REMARK VINA RESULT:      -8.8      2.200      6.888
REMARK  Name = 54676038
REMARK  4 active torsions:
REMARK  status: ('A' for Active; 'I' for Inactive)
REMARK    1  A    between atoms: C_1  and  C_4
REMARK    2  A    between atoms: C_1  and  C_17
REMARK    3  A    between atoms: C_5  and  O_13
REMARK    4  A    between atoms: C_18  and  O_26
REMARK                            x       y       z     vdW  Elec       q    Type
REMARK                         _______ _______ _______ _____ _____    ______ ____
ROOT
ATOM      1  C   UNL     1      31.245  -9.327 -22.138  0.00  0.00    +0.072 C 
ENDROOT
BRANCH   1   4
ATOM      2  O   UNL     1      32.043 -12.268 -19.924  0.00  0.00    -0.421 OA
ATOM      3  O   UNL     1      30.908 -10.326 -19.582  0.00  0.00    -0.245 OA
ATOM      4  C   UNL     1      31.803 -10.651 -21.765  0.00  0.00    +0.092 A 
ATOM      5  C   UNL     1      32.495 -11.468 -22.581  0.00  0.00    +0.139 A 
ATOM      6  C   UNL     1      33.011 -12.753 -22.100  0.00  0.00    +0.068 A 
ATOM      7  C   UNL     1      32.768 -13.116 -20.779  0.00  0.00    +0.152 A 
ATOM      8  C   UNL     1      31.541 -11.045 -20.349  0.00  0.00    +0.345 A 
ATOM      9  C   UNL     1      33.740 -13.643 -22.900  0.00  0.00    +0.006 C 
ATOM     10  C   UNL     1      33.224 -14.320 -20.242  0.00  0.00    +0.038 C 
ATOM     11  C   UNL     1      34.204 -14.854 -22.377  0.00  0.00    +0.000 C 
ATOM     12  C   UNL     1      33.946 -15.192 -21.049  0.00  0.00    +0.003 C 
BRANCH   5  13
ATOM     13  O   UNL     1      32.781 -11.197 -23.901  0.00  0.00    -0.506 OA
ATOM     14  H   UNL     1      33.350 -10.486 -24.121  0.00  0.00    +0.292 HD
ENDBRANCH   5  13
ENDBRANCH   1   4
BRANCH   1  17
ATOM     15  O   UNL     1      34.254  -7.059 -22.497  0.00  0.00    -0.421 OA
ATOM     16  O   UNL     1      33.292  -8.103 -20.719  0.00  0.00    -0.245 OA
ATOM     17  C   UNL     1      32.261  -8.464 -22.834  0.00  0.00    +0.092 A 
ATOM     18  C   UNL     1      32.291  -8.200 -24.155  0.00  0.00    +0.139 A 
ATOM     19  C   UNL     1      33.325  -7.332 -24.725  0.00  0.00    +0.068 A 
ATOM     20  C   UNL     1      34.278  -6.785 -23.874  0.00  0.00    +0.152 A 
ATOM     21  C   UNL     1      33.289  -7.878 -21.926  0.00  0.00    +0.345 A 
ATOM     22  C   UNL     1      33.407  -7.020 -26.088  0.00  0.00    +0.006 C 
ATOM     23  C   UNL     1      35.296  -5.949 -24.335  0.00  0.00    +0.038 C 
ATOM     24  C   UNL     1      34.420  -6.181 -26.568  0.00  0.00    +0.000 C 
ATOM     25  C   UNL     1      35.363  -5.647 -25.692  0.00  0.00    +0.003 C 
BRANCH  18  26
ATOM     26  O   UNL     1      31.393  -8.698 -25.073  0.00  0.00    -0.506 OA
ATOM     27  H   UNL     1      31.126  -9.595 -25.028  0.00  0.00    +0.292 HD
ENDBRANCH  18  26
ENDBRANCH   1  17
TORSDOF 4
ENDMDL
MODEL 7
REMARK VINA RESULT:      -8.7      1.287      1.681
REMARK  Name = 54676038
REMARK  4 active torsions:
REMARK  status: ('A' for Active; 'I' for Inactive)
REMARK    1  A    between atoms: C_1  and  C_4
REMARK    2  A    between atoms: C_1  and  C_17
REMARK    3  A    between atoms: C_5  and  O_13
REMARK    4  A    between atoms: C_18  and  O_26
REMARK                            x       y       z     vdW  Elec       q    Type
REMARK                         _______ _______ _______ _____ _____    ______ ____
ROOT
ATOM      1  C   UNL     1      31.807  -7.336 -20.418  0.00  0.00    +0.072 C 
ENDROOT
BRANCH   1   4
ATOM      2  O   UNL     1      31.690  -5.165 -23.494  0.00  0.00    -0.421 OA
ATOM      3  O   UNL     1      30.195  -5.592 -21.833  0.00  0.00    -0.245 OA
ATOM      4  C   UNL     1      32.296  -6.700 -21.667  0.00  0.00    +0.092 A 
ATOM      5  C   UNL     1      33.510  -6.888 -22.219  0.00  0.00    +0.139 A 
ATOM      6  C   UNL     1      33.882  -6.213 -23.465  0.00  0.00    +0.068 A 
ATOM      7  C   UNL     1      32.956  -5.368 -24.068  0.00  0.00    +0.152 A 
ATOM      8  C   UNL     1      31.307  -5.789 -22.314  0.00  0.00    +0.345 A 
ATOM      9  C   UNL     1      35.127  -6.372 -24.088  0.00  0.00    +0.006 C 
ATOM     10  C   UNL     1      33.231  -4.689 -25.255  0.00  0.00    +0.038 C 
ATOM     11  C   UNL     1      35.419  -5.698 -25.279  0.00  0.00    +0.000 C 
ATOM     12  C   UNL     1      34.472  -4.857 -25.862  0.00  0.00    +0.003 C 
BRANCH   5  13
ATOM     13  O   UNL     1      34.491  -7.700 -21.693  0.00  0.00    -0.506 OA
ATOM     14  H   UNL     1      35.346  -7.355 -21.528  0.00  0.00    +0.292 HD
ENDBRANCH   5  13
ENDBRANCH   1   4
BRANCH   1  17
ATOM     15  O   UNL     1      32.051 -10.881 -19.114  0.00  0.00    -0.421 OA
ATOM     16  O   UNL     1      31.908  -8.852 -18.096  0.00  0.00    -0.245 OA
ATOM     17  C   UNL     1      31.902  -8.837 -20.476  0.00  0.00    +0.092 A 
ATOM     18  C   UNL     1      31.946  -9.576 -21.601  0.00  0.00    +0.139 A 
ATOM     19  C   UNL     1      32.050 -11.036 -21.539  0.00  0.00    +0.068 A 
ATOM     20  C   UNL     1      32.101 -11.647 -20.291  0.00  0.00    +0.152 A 
ATOM     21  C   UNL     1      31.952  -9.497 -19.139  0.00  0.00    +0.345 A 
ATOM     22  C   UNL     1      32.102 -11.857 -22.673  0.00  0.00    +0.006 C 
ATOM     23  C   UNL     1      32.200 -13.031 -20.143  0.00  0.00    +0.038 C 
ATOM     24  C   UNL     1      32.203 -13.247 -22.544  0.00  0.00    +0.000 C 
ATOM     25  C   UNL     1      32.252 -13.833 -21.279  0.00  0.00    +0.003 C 
BRANCH  18  26
ATOM     26  O   UNL     1      31.898  -9.060 -22.878  0.00  0.00    -0.506 OA
ATOM     27  H   UNL     1      32.258  -8.213 -23.056  0.00  0.00    +0.292 HD
ENDBRANCH  18  26
ENDBRANCH   1  17
TORSDOF 4
ENDMDL
MODEL 8
REMARK VINA RESULT:      -8.6     14.496     18.916
REMARK  Name = 54676038
REMARK  4 active torsions:
REMARK  status: ('A' for Active; 'I' for Inactive)
REMARK    1  A    between atoms: C_1  and  C_4
REMARK    2  A    between atoms: C_1  and  C_17
REMARK    3  A    between atoms: C_5  and  O_13
REMARK    4  A    between atoms: C_18  and  O_26
REMARK                            x       y       z     vdW  Elec       q    Type
REMARK                         _______ _______ _______ _____ _____    ______ ____
ROOT
ATOM      1  C   UNL     1      32.750 -24.699 -15.255  0.00  0.00    +0.072 C 
ENDROOT
BRANCH   1   4
ATOM      2  O   UNL     1      34.556 -23.609 -12.134  0.00  0.00    -0.421 OA
ATOM      3  O   UNL     1      32.521 -23.098 -13.013  0.00  0.00    -0.245 OA
ATOM      4  C   UNL     1      33.845 -24.639 -14.255  0.00  0.00    +0.092 A 
ATOM      5  C   UNL     1      35.006 -25.318 -14.321  0.00  0.00    +0.139 A 
ATOM      6  C   UNL     1      36.024 -25.173 -13.278  0.00  0.00    +0.068 A 
ATOM      7  C   UNL     1      35.767 -24.318 -12.211  0.00  0.00    +0.152 A 
ATOM      8  C   UNL     1      33.571 -23.726 -13.106  0.00  0.00    +0.345 A 
ATOM      9  C   UNL     1      37.251 -25.850 -13.295  0.00  0.00    +0.006 C 
ATOM     10  C   UNL     1      36.684 -24.122 -11.177  0.00  0.00    +0.038 C 
ATOM     11  C   UNL     1      38.180 -25.665 -12.266  0.00  0.00    +0.000 C 
ATOM     12  C   UNL     1      37.897 -24.802 -11.208  0.00  0.00    +0.003 C 
BRANCH   5  13
ATOM     13  O   UNL     1      35.346 -26.188 -15.335  0.00  0.00    -0.506 OA
ATOM     14  H   UNL     1      36.240 -26.442 -15.454  0.00  0.00    +0.292 HD
ENDBRANCH   5  13
ENDBRANCH   1   4
BRANCH   1  17
ATOM     15  O   UNL     1      31.847 -22.255 -18.000  0.00  0.00    -0.421 OA
ATOM     16  O   UNL     1      30.615 -23.416 -16.480  0.00  0.00    -0.245 OA
ATOM     17  C   UNL     1      32.972 -23.739 -16.392  0.00  0.00    +0.092 A 
ATOM     18  C   UNL     1      34.168 -23.411 -16.917  0.00  0.00    +0.139 A 
ATOM     19  C   UNL     1      34.266 -22.470 -18.036  0.00  0.00    +0.068 A 
ATOM     20  C   UNL     1      33.096 -21.919 -18.546  0.00  0.00    +0.152 A 
ATOM     21  C   UNL     1      31.720 -23.141 -16.940  0.00  0.00    +0.345 A 
ATOM     22  C   UNL     1      35.480 -22.092 -18.625  0.00  0.00    +0.006 C 
ATOM     23  C   UNL     1      33.101 -21.015 -19.610  0.00  0.00    +0.038 C 
ATOM     24  C   UNL     1      35.503 -21.188 -19.693  0.00  0.00    +0.000 C 
ATOM     25  C   UNL     1      34.314 -20.651 -20.185  0.00  0.00    +0.003 C 
BRANCH  18  26
ATOM     26  O   UNL     1      35.378 -23.903 -16.477  0.00  0.00    -0.506 OA
ATOM     27  H   UNL     1      35.779 -24.625 -16.918  0.00  0.00    +0.292 HD
ENDBRANCH  18  26
ENDBRANCH   1  17
TORSDOF 4
ENDMDL
MODEL 9
REMARK VINA RESULT:      -8.5      0.812      6.680
REMARK  Name = 54676038
REMARK  4 active torsions:
REMARK  status: ('A' for Active; 'I' for Inactive)
REMARK    1  A    between atoms: C_1  and  C_4
REMARK    2  A    between atoms: C_1  and  C_17
REMARK    3  A    between atoms: C_5  and  O_13
REMARK    4  A    between atoms: C_18  and  O_26
REMARK                            x       y       z     vdW  Elec       q    Type
REMARK                         _______ _______ _______ _____ _____    ______ ____
ROOT
ATOM      1  C   UNL     1      31.723  -5.946 -21.588  0.00  0.00    +0.072 C 
ENDROOT
BRANCH   1   4
ATOM      2  O   UNL     1      30.986  -9.466 -22.708  0.00  0.00    -0.421 OA
ATOM      3  O   UNL     1      30.756  -7.435 -23.707  0.00  0.00    -0.245 OA
ATOM      4  C   UNL     1      31.647  -7.426 -21.498  0.00  0.00    +0.092 A 
ATOM      5  C   UNL     1      32.018  -8.167 -20.438  0.00  0.00    +0.139 A 
ATOM      6  C   UNL     1      31.887  -9.626 -20.457  0.00  0.00    +0.068 A 
ATOM      7  C   UNL     1      31.372 -10.235 -21.597  0.00  0.00    +0.152 A 
ATOM      8  C   UNL     1      31.098  -8.082 -22.721  0.00  0.00    +0.345 A 
ATOM      9  C   UNL     1      32.254 -10.450 -19.384  0.00  0.00    +0.006 C 
ATOM     10  C   UNL     1      31.214 -11.618 -21.696  0.00  0.00    +0.038 C 
ATOM     11  C   UNL     1      32.102 -11.838 -19.467  0.00  0.00    +0.000 C 
ATOM     12  C   UNL     1      31.582 -12.421 -20.622  0.00  0.00    +0.003 C 
BRANCH   5  13
ATOM     13  O   UNL     1      32.542  -7.656 -19.270  0.00  0.00    -0.506 OA
ATOM     14  H   UNL     1      32.041  -7.052 -18.757  0.00  0.00    +0.292 HD
ENDBRANCH   5  13
ENDBRANCH   1   4
BRANCH   1  17
ATOM     15  O   UNL     1      32.323  -3.963 -24.756  0.00  0.00    -0.421 OA
ATOM     16  O   UNL     1      30.658  -3.959 -23.206  0.00  0.00    -0.245 OA
ATOM     17  C   UNL     1      32.439  -5.493 -22.832  0.00  0.00    +0.092 A 
ATOM     18  C   UNL     1      33.615  -5.975 -23.278  0.00  0.00    +0.139 A 
ATOM     19  C   UNL     1      34.216  -5.466 -24.513  0.00  0.00    +0.068 A 
ATOM     20  C   UNL     1      33.548  -4.471 -25.218  0.00  0.00    +0.152 A 
ATOM     21  C   UNL     1      31.728  -4.423 -23.589  0.00  0.00    +0.345 A 
ATOM     22  C   UNL     1      35.435  -5.928 -25.028  0.00  0.00    +0.006 C 
ATOM     23  C   UNL     1      34.051  -3.932 -26.403  0.00  0.00    +0.038 C 
ATOM     24  C   UNL     1      35.954  -5.400 -26.216  0.00  0.00    +0.000 C 
ATOM     25  C   UNL     1      35.261  -4.403 -26.902  0.00  0.00    +0.003 C 
BRANCH  18  26
ATOM     26  O   UNL     1      34.349  -6.955 -22.646  0.00  0.00    -0.506 OA
ATOM     27  H   UNL     1      34.452  -7.795 -23.048  0.00  0.00    +0.292 HD
ENDBRANCH  18  26
ENDBRANCH   1  17
TORSDOF 4
ENDMDL
