MODEL 1
REMARK VINA RESULT:     -11.5      0.000      0.000
REMARK  Name = 25118925
REMARK  3 active torsions:
REMARK  status: ('A' for Active; 'I' for Inactive)
REMARK    1  A    between atoms: C_3  and  C_12
REMARK    2  A    between atoms: C_5  and  C_24
REMARK    3  A    between atoms: C_27  and  C_33
REMARK                            x       y       z     vdW  Elec       q    Type
REMARK                         _______ _______ _______ _____ _____    ______ ____
ROOT
ATOM      1  N   UNL     1      34.151 -15.955 -24.312  0.00  0.00    -0.279 N 
ATOM      2  N   UNL     1      34.239 -16.007 -22.093  0.00  0.00    -0.394 NA
ATOM      3  C   UNL     1      33.850 -15.315 -23.141  0.00  0.00    +0.160 C 
ATOM      4  C   UNL     1      34.771 -17.129 -23.989  0.00  0.00    +0.152 C 
ATOM      5  C   UNL     1      34.814 -17.139 -22.615  0.00  0.00    +0.130 C 
ATOM      6  C   UNL     1      33.873 -15.490 -25.649  0.00  0.00    +0.115 C 
ENDROOT
BRANCH   3  12
ATOM      7  N   UNL     1      32.604 -11.313 -22.102  0.00  0.00    -0.296 N 
ATOM      8  N   UNL     1      32.190  -9.013 -22.587  0.00  0.00    -0.233 NA
ATOM      9  N   UNL     1      31.756  -8.374 -18.639  0.00  0.00    -0.223 N 
ATOM     10  N   UNL     1      31.731  -7.371 -20.842  0.00  0.00    -0.232 NA
ATOM     11  N   UNL     1      31.947  -9.572 -18.056  0.00  0.00    -0.183 NA
ATOM     12  C   UNL     1      33.151 -13.970 -23.111  0.00  0.00    +0.070 C 
ATOM     13  C   UNL     1      34.126 -12.806 -23.337  0.00  0.00    +0.030 C 
ATOM     14  C   UNL     1      32.381 -13.747 -21.801  0.00  0.00    +0.030 C 
ATOM     15  C   UNL     1      33.397 -11.462 -23.330  0.00  0.00    +0.092 C 
ATOM     16  C   UNL     1      31.664 -12.397 -21.796  0.00  0.00    +0.092 C 
ATOM     17  C   UNL     1      32.315 -10.010 -21.678  0.00  0.00    +0.118 C 
ATOM     18  C   UNL     1      32.151  -9.718 -20.327  0.00  0.00    +0.152 C 
ATOM     19  C   UNL     1      31.868  -8.405 -19.997  0.00  0.00    +0.133 C 
ATOM     20  C   UNL     1      32.187 -10.387 -19.089  0.00  0.00    +0.105 C 
ATOM     21  C   UNL     1      31.909  -7.774 -22.119  0.00  0.00    +0.252 C 
ATOM     22  H   UNL     1      31.555  -7.554 -18.133  0.00  0.00    +0.176 HD
ENDBRANCH   3  12
BRANCH   5  24
ATOM     23  F   UNL     1      37.033 -21.203 -19.537  0.00  0.00    -0.204 F 
ATOM     24  C   UNL     1      35.382 -18.185 -21.822  0.00  0.00    +0.027 C 
ATOM     25  C   UNL     1      34.563 -19.178 -21.286  0.00  0.00    +0.008 C 
ATOM     26  C   UNL     1      36.757 -18.214 -21.587  0.00  0.00    +0.005 C 
ATOM     27  C   UNL     1      35.116 -20.199 -20.514  0.00  0.00    +0.099 C 
ATOM     28  C   UNL     1      37.312 -19.233 -20.815  0.00  0.00    +0.030 C 
ATOM     29  C   UNL     1      36.491 -20.226 -20.278  0.00  0.00    +0.144 C 
BRANCH  27  33
ATOM     30  F   UNL     1      34.617 -22.526 -20.282  0.00  0.00    -0.166 F 
ATOM     31  F   UNL     1      34.199 -21.256 -18.575  0.00  0.00    -0.166 F 
ATOM     32  F   UNL     1      32.941 -21.142 -20.346  0.00  0.00    -0.166 F 
ATOM     33  C   UNL     1      34.238 -21.259 -19.940  0.00  0.00    +0.421 C 
ENDBRANCH  27  33
ENDBRANCH   5  24
TORSDOF 3
ENDMDL
MODEL 2
REMARK VINA RESULT:     -11.1      3.725      6.192
REMARK  Name = 25118925
REMARK  3 active torsions:
REMARK  status: ('A' for Active; 'I' for Inactive)
REMARK    1  A    between atoms: C_3  and  C_12
REMARK    2  A    between atoms: C_5  and  C_24
REMARK    3  A    between atoms: C_27  and  C_33
REMARK                            x       y       z     vdW  Elec       q    Type
REMARK                         _______ _______ _______ _____ _____    ______ ____
ROOT
ATOM      1  N   UNL     1      31.863 -11.282 -21.450  0.00  0.00    -0.279 N 
ATOM      2  N   UNL     1      33.166 -11.493 -23.237  0.00  0.00    -0.394 NA
ATOM      3  C   UNL     1      32.528 -10.645 -22.460  0.00  0.00    +0.160 C 
ATOM      4  C   UNL     1      32.091 -12.622 -21.591  0.00  0.00    +0.152 C 
ATOM      5  C   UNL     1      32.897 -12.728 -22.700  0.00  0.00    +0.130 C 
ATOM      6  C   UNL     1      31.063 -10.669 -20.417  0.00  0.00    +0.115 C 
ENDROOT
BRANCH   3  12
ATOM      7  N   UNL     1      32.874  -6.636 -24.030  0.00  0.00    -0.296 N 
ATOM      8  N   UNL     1      32.018  -4.475 -24.570  0.00  0.00    -0.233 NA
ATOM      9  N   UNL     1      35.387  -3.787 -26.660  0.00  0.00    -0.223 N 
ATOM     10  N   UNL     1      33.254  -2.887 -25.950  0.00  0.00    -0.232 NA
ATOM     11  N   UNL     1      36.124  -4.906 -26.536  0.00  0.00    -0.183 NA
ATOM     12  C   UNL     1      32.501  -9.137 -22.621  0.00  0.00    +0.070 C 
ATOM     13  C   UNL     1      31.546  -8.692 -23.739  0.00  0.00    +0.030 C 
ATOM     14  C   UNL     1      33.900  -8.558 -22.880  0.00  0.00    +0.030 C 
ATOM     15  C   UNL     1      31.514  -7.169 -23.866  0.00  0.00    +0.092 C 
ATOM     16  C   UNL     1      33.857  -7.035 -23.017  0.00  0.00    +0.092 C 
ATOM     17  C   UNL     1      33.006  -5.397 -24.668  0.00  0.00    +0.118 C 
ATOM     18  C   UNL     1      34.145  -5.092 -25.407  0.00  0.00    +0.152 C 
ATOM     19  C   UNL     1      34.193  -3.845 -26.005  0.00  0.00    +0.133 C 
ATOM     20  C   UNL     1      35.363  -5.697 -25.771  0.00  0.00    +0.105 C 
ATOM     21  C   UNL     1      32.201  -3.294 -25.208  0.00  0.00    +0.252 C 
ATOM     22  H   UNL     1      35.681  -3.002 -27.175  0.00  0.00    +0.176 HD
ENDBRANCH   3  12
BRANCH   5  24
ATOM     23  F   UNL     1      34.829 -17.504 -24.790  0.00  0.00    -0.204 F 
ATOM     24  C   UNL     1      33.396 -13.957 -23.234  0.00  0.00    +0.027 C 
ATOM     25  C   UNL     1      34.016 -14.883 -22.396  0.00  0.00    +0.008 C 
ATOM     26  C   UNL     1      33.259 -14.231 -24.596  0.00  0.00    +0.005 C 
ATOM     27  C   UNL     1      34.501 -16.081 -22.918  0.00  0.00    +0.099 C 
ATOM     28  C   UNL     1      33.745 -15.429 -25.118  0.00  0.00    +0.030 C 
ATOM     29  C   UNL     1      34.366 -16.354 -24.279  0.00  0.00    +0.144 C 
BRANCH  27  33
ATOM     30  F   UNL     1      34.553 -18.290 -22.002  0.00  0.00    -0.166 F 
ATOM     31  F   UNL     1      36.464 -17.327 -22.356  0.00  0.00    -0.166 F 
ATOM     32  F   UNL     1      35.197 -16.658 -20.718  0.00  0.00    -0.166 F 
ATOM     33  C   UNL     1      35.165 -17.069 -22.019  0.00  0.00    +0.421 C 
ENDBRANCH  27  33
ENDBRANCH   5  24
TORSDOF 3
ENDMDL
MODEL 3
REMARK VINA RESULT:     -10.3      2.670      4.674
REMARK  Name = 25118925
REMARK  3 active torsions:
REMARK  status: ('A' for Active; 'I' for Inactive)
REMARK    1  A    between atoms: C_3  and  C_12
REMARK    2  A    between atoms: C_5  and  C_24
REMARK    3  A    between atoms: C_27  and  C_33
REMARK                            x       y       z     vdW  Elec       q    Type
REMARK                         _______ _______ _______ _____ _____    ______ ____
ROOT
ATOM      1  N   UNL     1      32.539 -11.970 -21.915  0.00  0.00    -0.279 N 
ATOM      2  N   UNL     1      33.470 -12.646 -23.814  0.00  0.00    -0.394 NA
ATOM      3  C   UNL     1      32.938 -11.627 -23.177  0.00  0.00    +0.160 C 
ATOM      4  C   UNL     1      32.836 -13.292 -21.736  0.00  0.00    +0.152 C 
ATOM      5  C   UNL     1      33.410 -13.687 -22.922  0.00  0.00    +0.130 C 
ATOM      6  C   UNL     1      31.917 -11.108 -20.939  0.00  0.00    +0.115 C 
ENDROOT
BRANCH   3  12
ATOM      7  N   UNL     1      32.483  -7.348 -23.556  0.00  0.00    -0.296 N 
ATOM      8  N   UNL     1      33.095  -5.205 -24.407  0.00  0.00    -0.233 NA
ATOM      9  N   UNL     1      30.588  -3.551 -21.730  0.00  0.00    -0.223 N 
ATOM     10  N   UNL     1      32.161  -3.132 -23.523  0.00  0.00    -0.232 NA
ATOM     11  N   UNL     1      30.053  -4.583 -21.050  0.00  0.00    -0.183 NA
ATOM     12  C   UNL     1      32.764 -10.224 -23.727  0.00  0.00    +0.070 C 
ATOM     13  C   UNL     1      33.956  -9.317 -23.386  0.00  0.00    +0.030 C 
ATOM     14  C   UNL     1      31.464  -9.569 -23.239  0.00  0.00    +0.030 C 
ATOM     15  C   UNL     1      33.772  -7.918 -23.973  0.00  0.00    +0.092 C 
ATOM     16  C   UNL     1      31.294  -8.165 -23.821  0.00  0.00    +0.092 C 
ATOM     17  C   UNL     1      32.372  -5.953 -23.539  0.00  0.00    +0.118 C 
ATOM     18  C   UNL     1      31.523  -5.315 -22.640  0.00  0.00    +0.152 C 
ATOM     19  C   UNL     1      31.475  -3.933 -22.692  0.00  0.00    +0.133 C 
ATOM     20  C   UNL     1      30.626  -5.654 -21.609  0.00  0.00    +0.105 C 
ATOM     21  C   UNL     1      32.946  -3.860 -24.346  0.00  0.00    +0.252 C 
ATOM     22  H   UNL     1      30.361  -2.611 -21.549  0.00  0.00    +0.176 HD
ENDBRANCH   3  12
BRANCH   5  24
ATOM     23  F   UNL     1      35.246 -18.819 -24.017  0.00  0.00    -0.204 F 
ATOM     24  C   UNL     1      33.884 -15.007 -23.200  0.00  0.00    +0.027 C 
ATOM     25  C   UNL     1      34.449 -15.776 -22.183  0.00  0.00    +0.008 C 
ATOM     26  C   UNL     1      33.778 -15.528 -24.490  0.00  0.00    +0.005 C 
ATOM     27  C   UNL     1      34.911 -17.063 -22.455  0.00  0.00    +0.099 C 
ATOM     28  C   UNL     1      34.239 -16.815 -24.764  0.00  0.00    +0.030 C 
ATOM     29  C   UNL     1      34.806 -17.583 -23.745  0.00  0.00    +0.144 C 
BRANCH  27  33
ATOM     30  F   UNL     1      34.819 -19.023 -21.088  0.00  0.00    -0.166 F 
ATOM     31  F   UNL     1      36.788 -18.301 -21.640  0.00  0.00    -0.166 F 
ATOM     32  F   UNL     1      35.599 -17.206 -20.184  0.00  0.00    -0.166 F 
ATOM     33  C   UNL     1      35.517 -17.882 -21.366  0.00  0.00    +0.421 C 
ENDBRANCH  27  33
ENDBRANCH   5  24
TORSDOF 3
ENDMDL
MODEL 4
REMARK VINA RESULT:     -10.2      3.861      6.446
REMARK  Name = 25118925
REMARK  3 active torsions:
REMARK  status: ('A' for Active; 'I' for Inactive)
REMARK    1  A    between atoms: C_3  and  C_12
REMARK    2  A    between atoms: C_5  and  C_24
REMARK    3  A    between atoms: C_27  and  C_33
REMARK                            x       y       z     vdW  Elec       q    Type
REMARK                         _______ _______ _______ _____ _____    ______ ____
ROOT
ATOM      1  N   UNL     1      31.635 -10.977 -20.144  0.00  0.00    -0.279 N 
ATOM      2  N   UNL     1      32.917 -11.256 -21.937  0.00  0.00    -0.394 NA
ATOM      3  C   UNL     1      32.204 -10.395 -21.243  0.00  0.00    +0.160 C 
ATOM      4  C   UNL     1      32.009 -12.292 -20.137  0.00  0.00    +0.152 C 
ATOM      5  C   UNL     1      32.799 -12.440 -21.252  0.00  0.00    +0.130 C 
ATOM      6  C   UNL     1      30.792 -10.336 -19.164  0.00  0.00    +0.115 C 
ENDROOT
BRANCH   3  12
ATOM      7  N   UNL     1      32.121  -6.576 -23.259  0.00  0.00    -0.296 N 
ATOM      8  N   UNL     1      31.034  -4.608 -24.056  0.00  0.00    -0.233 NA
ATOM      9  N   UNL     1      34.355  -3.762 -26.163  0.00  0.00    -0.223 N 
ATOM     10  N   UNL     1      32.113  -3.049 -25.592  0.00  0.00    -0.232 NA
ATOM     11  N   UNL     1      35.215  -4.764 -25.901  0.00  0.00    -0.183 NA
ATOM     12  C   UNL     1      32.005  -8.929 -21.577  0.00  0.00    +0.070 C 
ATOM     13  C   UNL     1      31.036  -8.730 -22.752  0.00  0.00    +0.030 C 
ATOM     14  C   UNL     1      33.333  -8.220 -21.881  0.00  0.00    +0.030 C 
ATOM     15  C   UNL     1      30.829  -7.246 -23.054  0.00  0.00    +0.092 C 
ATOM     16  C   UNL     1      33.116  -6.739 -22.193  0.00  0.00    +0.092 C 
ATOM     17  C   UNL     1      32.125  -5.411 -24.033  0.00  0.00    +0.118 C 
ATOM     18  C   UNL     1      33.241  -5.057 -24.786  0.00  0.00    +0.152 C 
ATOM     19  C   UNL     1      33.159  -3.888 -25.523  0.00  0.00    +0.133 C 
ATOM     20  C   UNL     1      34.530  -5.549 -25.061  0.00  0.00    +0.105 C 
ATOM     21  C   UNL     1      31.095  -3.493 -24.823  0.00  0.00    +0.252 C 
ATOM     22  H   UNL     1      34.570  -3.010 -26.761  0.00  0.00    +0.176 HD
ENDBRANCH   3  12
BRANCH   5  24
ATOM     23  F   UNL     1      35.224 -17.192 -22.816  0.00  0.00    -0.204 F 
ATOM     24  C   UNL     1      33.421 -13.662 -21.657  0.00  0.00    +0.027 C 
ATOM     25  C   UNL     1      33.356 -14.071 -22.989  0.00  0.00    +0.008 C 
ATOM     26  C   UNL     1      34.096 -14.444 -20.720  0.00  0.00    +0.005 C 
ATOM     27  C   UNL     1      33.963 -15.262 -23.384  0.00  0.00    +0.099 C 
ATOM     28  C   UNL     1      34.703 -15.636 -21.113  0.00  0.00    +0.030 C 
ATOM     29  C   UNL     1      34.637 -16.045 -22.446  0.00  0.00    +0.144 C 
BRANCH  27  33
ATOM     30  F   UNL     1      33.021 -16.730 -25.020  0.00  0.00    -0.166 F 
ATOM     31  F   UNL     1      33.488 -14.712 -25.662  0.00  0.00    -0.166 F 
ATOM     32  F   UNL     1      35.094 -16.130 -25.286  0.00  0.00    -0.166 F 
ATOM     33  C   UNL     1      33.891 -15.699 -24.808  0.00  0.00    +0.421 C 
ENDBRANCH  27  33
ENDBRANCH   5  24
TORSDOF 3
ENDMDL
MODEL 5
REMARK VINA RESULT:      -9.9      3.258      5.261
REMARK  Name = 25118925
REMARK  3 active torsions:
REMARK  status: ('A' for Active; 'I' for Inactive)
REMARK    1  A    between atoms: C_3  and  C_12
REMARK    2  A    between atoms: C_5  and  C_24
REMARK    3  A    between atoms: C_27  and  C_33
REMARK                            x       y       z     vdW  Elec       q    Type
REMARK                         _______ _______ _______ _____ _____    ______ ____
ROOT
ATOM      1  N   UNL     1      31.806 -11.483 -21.423  0.00  0.00    -0.279 N 
ATOM      2  N   UNL     1      33.324 -12.225 -22.865  0.00  0.00    -0.394 NA
ATOM      3  C   UNL     1      32.528 -11.225 -22.555  0.00  0.00    +0.160 C 
ATOM      4  C   UNL     1      32.164 -12.726 -20.983  0.00  0.00    +0.152 C 
ATOM      5  C   UNL     1      33.101 -13.164 -21.889  0.00  0.00    +0.130 C 
ATOM      6  C   UNL     1      30.840 -10.614 -20.795  0.00  0.00    +0.115 C 
ENDROOT
BRANCH   3  12
ATOM      7  N   UNL     1      32.322  -7.047 -23.633  0.00  0.00    -0.296 N 
ATOM      8  N   UNL     1      32.980  -5.136 -24.902  0.00  0.00    -0.233 NA
ATOM      9  N   UNL     1      30.895  -2.851 -22.330  0.00  0.00    -0.223 N 
ATOM     10  N   UNL     1      32.289  -2.873 -24.310  0.00  0.00    -0.232 NA
ATOM     11  N   UNL     1      30.369  -3.705 -21.432  0.00  0.00    -0.183 NA
ATOM     12  C   UNL     1      32.390  -9.925 -23.324  0.00  0.00    +0.070 C 
ATOM     13  C   UNL     1      33.670  -9.077 -23.262  0.00  0.00    +0.030 C 
ATOM     14  C   UNL     1      31.197  -9.089 -22.837  0.00  0.00    +0.030 C 
ATOM     15  C   UNL     1      33.518  -7.786 -24.065  0.00  0.00    +0.092 C 
ATOM     16  C   UNL     1      31.059  -7.793 -23.637  0.00  0.00    +0.092 C 
ATOM     17  C   UNL     1      32.307  -5.665 -23.851  0.00  0.00    +0.118 C 
ATOM     18  C   UNL     1      31.605  -4.815 -23.001  0.00  0.00    +0.152 C 
ATOM     19  C   UNL     1      31.644  -3.463 -23.290  0.00  0.00    +0.133 C 
ATOM     20  C   UNL     1      30.805  -4.900 -21.847  0.00  0.00    +0.105 C 
ATOM     21  C   UNL     1      32.930  -3.792 -25.063  0.00  0.00    +0.252 C 
ATOM     22  H   UNL     1      30.752  -1.878 -22.297  0.00  0.00    +0.176 HD
ENDBRANCH   3  12
BRANCH   5  24
ATOM     23  F   UNL     1      35.681 -18.084 -21.661  0.00  0.00    -0.204 F 
ATOM     24  C   UNL     1      33.764 -14.430 -21.834  0.00  0.00    +0.027 C 
ATOM     25  C   UNL     1      33.915 -15.191 -22.993  0.00  0.00    +0.008 C 
ATOM     26  C   UNL     1      34.261 -14.904 -20.619  0.00  0.00    +0.005 C 
ATOM     27  C   UNL     1      34.562 -16.425 -22.938  0.00  0.00    +0.099 C 
ATOM     28  C   UNL     1      34.907 -16.138 -20.563  0.00  0.00    +0.030 C 
ATOM     29  C   UNL     1      35.058 -16.899 -21.724  0.00  0.00    +0.144 C 
BRANCH  27  33
ATOM     30  F   UNL     1      35.378 -18.418 -23.978  0.00  0.00    -0.166 F 
ATOM     31  F   UNL     1      33.537 -17.583 -24.762  0.00  0.00    -0.166 F 
ATOM     32  F   UNL     1      35.431 -16.585 -25.146  0.00  0.00    -0.166 F 
ATOM     33  C   UNL     1      34.722 -17.237 -24.179  0.00  0.00    +0.421 C 
ENDBRANCH  27  33
ENDBRANCH   5  24
TORSDOF 3
ENDMDL
MODEL 6
REMARK VINA RESULT:      -9.9      6.309     11.206
REMARK  Name = 25118925
REMARK  3 active torsions:
REMARK  status: ('A' for Active; 'I' for Inactive)
REMARK    1  A    between atoms: C_3  and  C_12
REMARK    2  A    between atoms: C_5  and  C_24
REMARK    3  A    between atoms: C_27  and  C_33
REMARK                            x       y       z     vdW  Elec       q    Type
REMARK                         _______ _______ _______ _____ _____    ______ ____
ROOT
ATOM      1  N   UNL     1      35.785 -20.840 -19.876  0.00  0.00    -0.279 N 
ATOM      2  N   UNL     1      33.873 -20.053 -20.686  0.00  0.00    -0.394 NA
ATOM      3  C   UNL     1      34.424 -20.964 -19.914  0.00  0.00    +0.160 C 
ATOM      4  C   UNL     1      36.123 -19.783 -20.674  0.00  0.00    +0.152 C 
ATOM      5  C   UNL     1      34.927 -19.314 -21.162  0.00  0.00    +0.130 C 
ATOM      6  C   UNL     1      36.710 -21.664 -19.136  0.00  0.00    +0.115 C 
ENDROOT
BRANCH   3  12
ATOM      7  N   UNL     1      32.705 -23.362 -16.760  0.00  0.00    -0.296 N 
ATOM      8  N   UNL     1      30.896 -24.466 -15.663  0.00  0.00    -0.233 NA
ATOM      9  N   UNL     1      33.308 -25.028 -12.493  0.00  0.00    -0.223 N 
ATOM     10  N   UNL     1      31.097 -25.384 -13.413  0.00  0.00    -0.232 NA
ATOM     11  N   UNL     1      34.487 -24.473 -12.833  0.00  0.00    -0.183 NA
ATOM     12  C   UNL     1      33.688 -22.041 -19.141  0.00  0.00    +0.070 C 
ATOM     13  C   UNL     1      32.516 -21.471 -18.328  0.00  0.00    +0.030 C 
ATOM     14  C   UNL     1      34.624 -22.826 -18.210  0.00  0.00    +0.030 C 
ATOM     15  C   UNL     1      31.772 -22.576 -17.579  0.00  0.00    +0.092 C 
ATOM     16  C   UNL     1      33.870 -23.922 -17.455  0.00  0.00    +0.092 C 
ATOM     17  C   UNL     1      32.179 -24.030 -15.649  0.00  0.00    +0.118 C 
ATOM     18  C   UNL     1      32.958 -24.260 -14.519  0.00  0.00    +0.152 C 
ATOM     19  C   UNL     1      32.358 -24.928 -13.465  0.00  0.00    +0.133 C 
ATOM     20  C   UNL     1      34.267 -24.008 -14.068  0.00  0.00    +0.105 C 
ATOM     21  C   UNL     1      30.441 -25.106 -14.560  0.00  0.00    +0.252 C 
ATOM     22  H   UNL     1      33.148 -25.464 -11.626  0.00  0.00    +0.176 HD
ENDBRANCH   3  12
BRANCH   5  24
ATOM     23  F   UNL     1      34.382 -15.003 -24.631  0.00  0.00    -0.204 F 
ATOM     24  C   UNL     1      34.785 -18.203 -22.052  0.00  0.00    +0.027 C 
ATOM     25  C   UNL     1      34.635 -16.914 -21.542  0.00  0.00    +0.008 C 
ATOM     26  C   UNL     1      34.801 -18.409 -23.432  0.00  0.00    +0.005 C 
ATOM     27  C   UNL     1      34.498 -15.831 -22.409  0.00  0.00    +0.099 C 
ATOM     28  C   UNL     1      34.663 -17.327 -24.300  0.00  0.00    +0.030 C 
ATOM     29  C   UNL     1      34.512 -16.038 -23.789  0.00  0.00    +0.144 C 
BRANCH  27  33
ATOM     30  F   UNL     1      34.909 -14.284 -20.633  0.00  0.00    -0.166 F 
ATOM     31  F   UNL     1      34.889 -13.484 -22.648  0.00  0.00    -0.166 F 
ATOM     32  F   UNL     1      33.027 -14.101 -21.707  0.00  0.00    -0.166 F 
ATOM     33  C   UNL     1      34.336 -14.454 -21.861  0.00  0.00    +0.421 C 
ENDBRANCH  27  33
ENDBRANCH   5  24
TORSDOF 3
ENDMDL
MODEL 7
REMARK VINA RESULT:      -9.8      5.802     10.525
REMARK  Name = 25118925
REMARK  3 active torsions:
REMARK  status: ('A' for Active; 'I' for Inactive)
REMARK    1  A    between atoms: C_3  and  C_12
REMARK    2  A    between atoms: C_5  and  C_24
REMARK    3  A    between atoms: C_27  and  C_33
REMARK                            x       y       z     vdW  Elec       q    Type
REMARK                         _______ _______ _______ _____ _____    ______ ____
ROOT
ATOM      1  N   UNL     1      34.955 -19.636 -23.274  0.00  0.00    -0.279 N 
ATOM      2  N   UNL     1      34.469 -18.287 -21.576  0.00  0.00    -0.394 NA
ATOM      3  C   UNL     1      34.680 -19.534 -21.938  0.00  0.00    +0.160 C 
ATOM      4  C   UNL     1      34.917 -18.373 -23.797  0.00  0.00    +0.152 C 
ATOM      5  C   UNL     1      34.616 -17.559 -22.731  0.00  0.00    +0.130 C 
ATOM      6  C   UNL     1      35.234 -20.844 -24.011  0.00  0.00    +0.115 C 
ENDROOT
BRANCH   3  12
ATOM      7  N   UNL     1      34.828 -22.144 -18.500  0.00  0.00    -0.296 N 
ATOM      8  N   UNL     1      33.914 -23.778 -17.021  0.00  0.00    -0.233 NA
ATOM      9  N   UNL     1      36.988 -23.072 -14.523  0.00  0.00    -0.223 N 
ATOM     10  N   UNL     1      34.965 -24.351 -14.895  0.00  0.00    -0.232 NA
ATOM     11  N   UNL     1      37.733 -22.127 -15.125  0.00  0.00    -0.183 NA
ATOM     12  C   UNL     1      34.635 -20.746 -21.027  0.00  0.00    +0.070 C 
ATOM     13  C   UNL     1      33.545 -20.621 -19.952  0.00  0.00    +0.030 C 
ATOM     14  C   UNL     1      35.990 -21.016 -20.356  0.00  0.00    +0.030 C 
ATOM     15  C   UNL     1      33.499 -21.863 -19.063  0.00  0.00    +0.092 C 
ATOM     16  C   UNL     1      35.932 -22.253 -19.460  0.00  0.00    +0.092 C 
ATOM     17  C   UNL     1      34.879 -22.871 -17.305  0.00  0.00    +0.118 C 
ATOM     18  C   UNL     1      35.915 -22.678 -16.396  0.00  0.00    +0.152 C 
ATOM     19  C   UNL     1      35.887 -23.438 -15.240  0.00  0.00    +0.133 C 
ATOM     20  C   UNL     1      37.074 -21.891 -16.265  0.00  0.00    +0.105 C 
ATOM     21  C   UNL     1      34.016 -24.452 -15.850  0.00  0.00    +0.252 C 
ATOM     22  H   UNL     1      37.215 -23.463 -13.648  0.00  0.00    +0.176 HD
ENDBRANCH   3  12
BRANCH   5  24
ATOM     23  F   UNL     1      34.051 -12.034 -22.997  0.00  0.00    -0.204 F 
ATOM     24  C   UNL     1      34.470 -16.138 -22.802  0.00  0.00    +0.027 C 
ATOM     25  C   UNL     1      34.033 -15.540 -23.984  0.00  0.00    +0.008 C 
ATOM     26  C   UNL     1      34.763 -15.351 -21.689  0.00  0.00    +0.005 C 
ATOM     27  C   UNL     1      33.891 -14.154 -24.053  0.00  0.00    +0.099 C 
ATOM     28  C   UNL     1      34.622 -13.965 -21.757  0.00  0.00    +0.030 C 
ATOM     29  C   UNL     1      34.185 -13.367 -22.940  0.00  0.00    +0.144 C 
BRANCH  27  33
ATOM     30  F   UNL     1      32.541 -14.283 -26.023  0.00  0.00    -0.166 F 
ATOM     31  F   UNL     1      32.787 -12.324 -25.126  0.00  0.00    -0.166 F 
ATOM     32  F   UNL     1      34.449 -13.250 -26.180  0.00  0.00    -0.166 F 
ATOM     33  C   UNL     1      33.425 -13.516 -25.318  0.00  0.00    +0.421 C 
ENDBRANCH  27  33
ENDBRANCH   5  24
TORSDOF 3
ENDMDL
MODEL 8
REMARK VINA RESULT:      -9.5      6.197     10.947
REMARK  Name = 25118925
REMARK  3 active torsions:
REMARK  status: ('A' for Active; 'I' for Inactive)
REMARK    1  A    between atoms: C_3  and  C_12
REMARK    2  A    between atoms: C_5  and  C_24
REMARK    3  A    between atoms: C_27  and  C_33
REMARK                            x       y       z     vdW  Elec       q    Type
REMARK                         _______ _______ _______ _____ _____    ______ ____
ROOT
ATOM      1  N   UNL     1      32.272 -11.845 -21.857  0.00  0.00    -0.279 N 
ATOM      2  N   UNL     1      33.368 -10.652 -23.377  0.00  0.00    -0.394 NA
ATOM      3  C   UNL     1      33.134 -11.862 -22.918  0.00  0.00    +0.160 C 
ATOM      4  C   UNL     1      31.934 -10.541 -21.625  0.00  0.00    +0.152 C 
ATOM      5  C   UNL     1      32.622  -9.825 -22.575  0.00  0.00    +0.130 C 
ATOM      6  C   UNL     1      31.797 -12.984 -21.108  0.00  0.00    +0.115 C 
ENDROOT
BRANCH   3  12
ATOM      7  N   UNL     1      34.166 -16.010 -23.543  0.00  0.00    -0.296 N 
ATOM      8  N   UNL     1      34.339 -17.990 -24.864  0.00  0.00    -0.233 NA
ATOM      9  N   UNL     1      35.162 -20.029 -21.495  0.00  0.00    -0.223 N 
ATOM     10  N   UNL     1      34.859 -20.167 -23.894  0.00  0.00    -0.232 NA
ATOM     11  N   UNL     1      35.135 -19.118 -20.505  0.00  0.00    -0.183 NA
ATOM     12  C   UNL     1      33.723 -13.150 -23.461  0.00  0.00    +0.070 C 
ATOM     13  C   UNL     1      32.638 -14.120 -23.953  0.00  0.00    +0.030 C 
ATOM     14  C   UNL     1      34.615 -13.858 -22.431  0.00  0.00    +0.030 C 
ATOM     15  C   UNL     1      33.254 -15.398 -24.521  0.00  0.00    +0.092 C 
ATOM     16  C   UNL     1      35.218 -15.142 -23.002  0.00  0.00    +0.092 C 
ATOM     17  C   UNL     1      34.396 -17.386 -23.652  0.00  0.00    +0.118 C 
ATOM     18  C   UNL     1      34.687 -18.152 -22.528  0.00  0.00    +0.152 C 
ATOM     19  C   UNL     1      34.901 -19.505 -22.726  0.00  0.00    +0.133 C 
ATOM     20  C   UNL     1      34.845 -17.977 -21.140  0.00  0.00    +0.105 C 
ATOM     21  C   UNL     1      34.570 -19.323 -24.908  0.00  0.00    +0.252 C 
ATOM     22  H   UNL     1      35.353 -20.983 -21.345  0.00  0.00    +0.176 HD
ENDBRANCH   3  12
BRANCH   5  24
ATOM     23  F   UNL     1      32.438  -4.295 -23.122  0.00  0.00    -0.204 F 
ATOM     24  C   UNL     1      32.576  -8.403 -22.718  0.00  0.00    +0.027 C 
ATOM     25  C   UNL     1      32.979  -7.808 -23.914  0.00  0.00    +0.008 C 
ATOM     26  C   UNL     1      32.126  -7.610 -21.662  0.00  0.00    +0.005 C 
ATOM     27  C   UNL     1      32.934  -6.421 -24.054  0.00  0.00    +0.099 C 
ATOM     28  C   UNL     1      32.081  -6.223 -21.801  0.00  0.00    +0.030 C 
ATOM     29  C   UNL     1      32.485  -5.629 -22.997  0.00  0.00    +0.144 C 
BRANCH  27  33
ATOM     30  F   UNL     1      32.394  -5.029 -25.922  0.00  0.00    -0.166 F 
ATOM     31  F   UNL     1      34.435  -4.950 -25.193  0.00  0.00    -0.166 F 
ATOM     32  F   UNL     1      33.736  -6.703 -26.274  0.00  0.00    -0.166 F 
ATOM     33  C   UNL     1      33.366  -5.787 -25.333  0.00  0.00    +0.421 C 
ENDBRANCH  27  33
ENDBRANCH   5  24
TORSDOF 3
ENDMDL
MODEL 9
REMARK VINA RESULT:      -9.4      2.116      3.777
REMARK  Name = 25118925
REMARK  3 active torsions:
REMARK  status: ('A' for Active; 'I' for Inactive)
REMARK    1  A    between atoms: C_3  and  C_12
REMARK    2  A    between atoms: C_5  and  C_24
REMARK    3  A    between atoms: C_27  and  C_33
REMARK                            x       y       z     vdW  Elec       q    Type
REMARK                         _______ _______ _______ _____ _____    ______ ____
ROOT
ATOM      1  N   UNL     1      33.294 -13.706 -24.889  0.00  0.00    -0.279 N 
ATOM      2  N   UNL     1      33.945 -14.558 -22.943  0.00  0.00    -0.394 NA
ATOM      3  C   UNL     1      33.542 -13.471 -23.565  0.00  0.00    +0.160 C 
ATOM      4  C   UNL     1      33.557 -15.026 -25.127  0.00  0.00    +0.152 C 
ATOM      5  C   UNL     1      33.956 -15.530 -23.912  0.00  0.00    +0.130 C 
ATOM      6  C   UNL     1      32.841 -12.748 -25.869  0.00  0.00    +0.115 C 
ENDROOT
BRANCH   3  12
ATOM      7  N   UNL     1      32.475  -9.347 -22.852  0.00  0.00    -0.296 N 
ATOM      8  N   UNL     1      31.438  -7.596 -21.606  0.00  0.00    -0.233 NA
ATOM      9  N   UNL     1      32.088  -5.142 -24.727  0.00  0.00    -0.223 N 
ATOM     10  N   UNL     1      31.177  -5.338 -22.492  0.00  0.00    -0.232 NA
ATOM     11  N   UNL     1      32.704  -5.896 -25.657  0.00  0.00    -0.183 NA
ATOM     12  C   UNL     1      33.357 -12.103 -22.938  0.00  0.00    +0.070 C 
ATOM     13  C   UNL     1      31.875 -11.736 -22.775  0.00  0.00    +0.030 C 
ATOM     14  C   UNL     1      34.074 -11.001 -23.733  0.00  0.00    +0.030 C 
ATOM     15  C   UNL     1      31.712 -10.366 -22.117  0.00  0.00    +0.092 C 
ATOM     16  C   UNL     1      33.897  -9.632 -23.075  0.00  0.00    +0.092 C 
ATOM     17  C   UNL     1      32.048  -8.019 -22.740  0.00  0.00    +0.118 C 
ATOM     18  C   UNL     1      32.241  -7.116 -23.780  0.00  0.00    +0.152 C 
ATOM     19  C   UNL     1      31.788  -5.823 -23.584  0.00  0.00    +0.133 C 
ATOM     20  C   UNL     1      32.794  -7.096 -25.074  0.00  0.00    +0.105 C 
ATOM     21  C   UNL     1      31.046  -6.301 -21.553  0.00  0.00    +0.252 C 
ATOM     22  H   UNL     1      31.874  -4.191 -24.859  0.00  0.00    +0.176 HD
ENDBRANCH   3  12
BRANCH   5  24
ATOM     23  F   UNL     1      35.430 -20.813 -23.000  0.00  0.00    -0.204 F 
ATOM     24  C   UNL     1      34.338 -16.888 -23.675  0.00  0.00    +0.027 C 
ATOM     25  C   UNL     1      35.149 -17.206 -22.586  0.00  0.00    +0.008 C 
ATOM     26  C   UNL     1      33.896 -17.896 -24.533  0.00  0.00    +0.005 C 
ATOM     27  C   UNL     1      35.520 -18.531 -22.355  0.00  0.00    +0.099 C 
ATOM     28  C   UNL     1      34.267 -19.220 -24.303  0.00  0.00    +0.030 C 
ATOM     29  C   UNL     1      35.079 -19.537 -23.214  0.00  0.00    +0.144 C 
BRANCH  27  33
ATOM     30  F   UNL     1      36.094 -20.075 -20.622  0.00  0.00    -0.166 F 
ATOM     31  F   UNL     1      37.717 -18.936 -21.502  0.00  0.00    -0.166 F 
ATOM     32  F   UNL     1      36.293 -17.955 -20.182  0.00  0.00    -0.166 F 
ATOM     33  C   UNL     1      36.388 -18.868 -21.191  0.00  0.00    +0.421 C 
ENDBRANCH  27  33
ENDBRANCH   5  24
TORSDOF 3
ENDMDL
