MODEL 1
REMARK VINA RESULT:     -13.4      0.000      0.000
REMARK  Name = 25171648
REMARK  8 active torsions:
REMARK  status: ('A' for Active; 'I' for Inactive)
REMARK    1  A    between atoms: C_1  and  C_12
REMARK    2  A    between atoms: C_2  and  C_23
REMARK    3  A    between atoms: C_9  and  O_13
REMARK    4  A    between atoms: O_13  and  C_14
REMARK    5  A    between atoms: C_14  and  C_16
REMARK    6  A    between atoms: C_23  and  N_25
REMARK    7  A    between atoms: C_27  and  C_31
REMARK    8  A    between atoms: C_34  and  C_38
REMARK                            x       y       z     vdW  Elec       q    Type
REMARK                         _______ _______ _______ _____ _____    ______ ____
ROOT
ATOM      1  C   UNL     1      35.345 -20.526 -20.038  0.00  0.00    +0.062 C 
ATOM      2  C   UNL     1      34.502 -22.418 -18.794  0.00  0.00    +0.000 C 
ATOM      3  C   UNL     1      34.316 -21.425 -19.756  0.00  0.00    +0.007 C 
ATOM      4  C   UNL     1      36.558 -20.620 -19.357  0.00  0.00    +0.010 C 
ATOM      5  C   UNL     1      35.715 -22.511 -18.113  0.00  0.00    -0.003 C 
ATOM      6  C   UNL     1      36.744 -21.613 -18.395  0.00  0.00    +0.000 C 
ENDROOT
BRANCH   1  12
ATOM      7  N   UNL     1      34.599 -19.889 -22.195  0.00  0.00    -0.212 NA
ATOM      8  N   UNL     1      35.547 -18.258 -20.696  0.00  0.00    -0.190 NA
ATOM      9  C   UNL     1      34.795 -17.591 -22.883  0.00  0.00    +0.161 C 
ATOM     10  C   UNL     1      34.434 -18.904 -23.102  0.00  0.00    +0.201 C 
ATOM     11  C   UNL     1      35.352 -17.323 -21.649  0.00  0.00    +0.144 C 
ATOM     12  C   UNL     1      35.153 -19.502 -21.031  0.00  0.00    +0.031 C 
BRANCH   9  13
ATOM     13  O   UNL     1      34.612 -16.614 -23.830  0.00  0.00    -0.476 OA
BRANCH  13  14
ATOM     14  C   UNL     1      35.026 -15.304 -23.492  0.00  0.00    +0.205 C 
BRANCH  14  16
ATOM     15  N   UNL     1      32.527 -12.071 -22.094  0.00  0.00    +0.386 N 
ATOM     16  C   UNL     1      33.787 -14.443 -23.270  0.00  0.00    +0.040 C 
ATOM     17  C   UNL     1      33.983 -13.036 -23.845  0.00  0.00    -0.019 C 
ATOM     18  C   UNL     1      33.440 -14.349 -21.780  0.00  0.00    -0.019 C 
ATOM     19  C   UNL     1      32.785 -12.136 -23.539  0.00  0.00    -0.077 C 
ATOM     20  C   UNL     1      32.258 -13.406 -21.542  0.00  0.00    -0.077 C 
ATOM     21  C   UNL     1      31.411 -11.167 -21.813  0.00  0.00    -0.101 C 
ATOM     22  H   UNL     1      33.365 -11.706 -21.641  0.00  0.00    -0.080 HD
ENDBRANCH  14  16
ENDBRANCH  13  14
ENDBRANCH   9  13
ENDBRANCH   1  12
BRANCH   2  23
ATOM     23  C   UNL     1      33.402 -23.380 -18.492  0.00  0.00    +0.146 C 
BRANCH  23  25
ATOM     24  O   UNL     1      30.994 -22.426 -17.266  0.00  0.00    -0.268 OA
ATOM     25  N   UNL     1      33.083 -23.426 -17.075  0.00  0.00    -0.173 N 
ATOM     26  N   UNL     1      34.054 -23.975 -16.287  0.00  0.00    -0.175 NA
ATOM     27  C   UNL     1      33.843 -24.043 -15.012  0.00  0.00    +0.099 C 
ATOM     28  C   UNL     1      31.882 -22.937 -16.583  0.00  0.00    +0.268 C 
ATOM     29  C   UNL     1      32.608 -23.589 -14.345  0.00  0.00    +0.025 C 
ATOM     30  C   UNL     1      31.671 -23.054 -15.125  0.00  0.00    +0.061 C 
BRANCH  27  31
ATOM     31  C   UNL     1      34.895 -24.635 -14.143  0.00  0.00    +0.020 C 
ATOM     32  C   UNL     1      34.851 -24.441 -12.763  0.00  0.00    +0.012 C 
ATOM     33  C   UNL     1      35.926 -25.385 -14.709  0.00  0.00    +0.002 C 
ATOM     34  C   UNL     1      35.838 -24.996 -11.949  0.00  0.00    +0.068 C 
ATOM     35  C   UNL     1      36.914 -25.940 -13.896  0.00  0.00    +0.001 C 
ATOM     36  C   UNL     1      36.870 -25.746 -12.515  0.00  0.00    +0.010 C 
BRANCH  34  38
ATOM     37  N   UNL     1      35.758 -24.636  -9.385  0.00  0.00    -0.191 NA
ATOM     38  C   UNL     1      35.794 -24.797 -10.534  0.00  0.00    +0.100 C 
ENDBRANCH  34  38
ENDBRANCH  27  31
ENDBRANCH  23  25
ENDBRANCH   2  23
TORSDOF 8
ENDMDL
MODEL 2
REMARK VINA RESULT:     -13.3      1.117      1.680
REMARK  Name = 25171648
REMARK  8 active torsions:
REMARK  status: ('A' for Active; 'I' for Inactive)
REMARK    1  A    between atoms: C_1  and  C_12
REMARK    2  A    between atoms: C_2  and  C_23
REMARK    3  A    between atoms: C_9  and  O_13
REMARK    4  A    between atoms: O_13  and  C_14
REMARK    5  A    between atoms: C_14  and  C_16
REMARK    6  A    between atoms: C_23  and  N_25
REMARK    7  A    between atoms: C_27  and  C_31
REMARK    8  A    between atoms: C_34  and  C_38
REMARK                            x       y       z     vdW  Elec       q    Type
REMARK                         _______ _______ _______ _____ _____    ______ ____
ROOT
ATOM      1  C   UNL     1      35.194 -20.138 -20.435  0.00  0.00    +0.062 C 
ATOM      2  C   UNL     1      34.120 -21.894 -19.170  0.00  0.00    +0.000 C 
ATOM      3  C   UNL     1      34.035 -20.802 -20.035  0.00  0.00    +0.007 C 
ATOM      4  C   UNL     1      36.438 -20.564 -19.969  0.00  0.00    +0.010 C 
ATOM      5  C   UNL     1      35.364 -22.320 -18.705  0.00  0.00    -0.003 C 
ATOM      6  C   UNL     1      36.523 -21.656 -19.106  0.00  0.00    +0.000 C 
ENDROOT
BRANCH   1  12
ATOM      7  N   UNL     1      35.377 -17.804 -20.800  0.00  0.00    -0.212 NA
ATOM      8  N   UNL     1      34.762 -19.280 -22.602  0.00  0.00    -0.190 NA
ATOM      9  C   UNL     1      34.943 -16.912 -22.993  0.00  0.00    +0.161 C 
ATOM     10  C   UNL     1      35.286 -16.771 -21.664  0.00  0.00    +0.201 C 
ATOM     11  C   UNL     1      34.690 -18.203 -23.411  0.00  0.00    +0.144 C 
ATOM     12  C   UNL     1      35.106 -19.011 -21.328  0.00  0.00    +0.031 C 
BRANCH   9  13
ATOM     13  O   UNL     1      34.860 -15.838 -23.845  0.00  0.00    -0.476 OA
BRANCH  13  14
ATOM     14  C   UNL     1      33.587 -15.242 -24.007  0.00  0.00    +0.205 C 
BRANCH  14  16
ATOM     15  N   UNL     1      32.337 -11.306 -22.742  0.00  0.00    +0.386 N 
ATOM     16  C   UNL     1      33.570 -13.917 -23.251  0.00  0.00    +0.040 C 
ATOM     17  C   UNL     1      32.275 -13.761 -22.445  0.00  0.00    -0.019 C 
ATOM     18  C   UNL     1      33.728 -12.732 -24.209  0.00  0.00    -0.019 C 
ATOM     19  C   UNL     1      32.205 -12.393 -21.763  0.00  0.00    -0.077 C 
ATOM     20  C   UNL     1      33.611 -11.398 -23.468  0.00  0.00    -0.077 C 
ATOM     21  C   UNL     1      32.216 -10.006 -22.082  0.00  0.00    -0.101 C 
ATOM     22  H   UNL     1      31.580 -11.400 -23.420  0.00  0.00    -0.080 HD
ENDBRANCH  14  16
ENDBRANCH  13  14
ENDBRANCH   9  13
ENDBRANCH   1  12
BRANCH   2  23
ATOM     23  C   UNL     1      32.880 -22.606 -18.742  0.00  0.00    +0.146 C 
BRANCH  23  25
ATOM     24  O   UNL     1      30.621 -22.588 -16.980  0.00  0.00    -0.268 OA
ATOM     25  N   UNL     1      32.893 -22.933 -17.326  0.00  0.00    -0.173 N 
ATOM     26  N   UNL     1      34.120 -23.265 -16.827  0.00  0.00    -0.175 NA
ATOM     27  C   UNL     1      34.209 -23.561 -15.570  0.00  0.00    +0.099 C 
ATOM     28  C   UNL     1      31.737 -22.895 -16.561  0.00  0.00    +0.268 C 
ATOM     29  C   UNL     1      33.068 -23.590 -14.635  0.00  0.00    +0.025 C 
ATOM     30  C   UNL     1      31.879 -23.262 -15.136  0.00  0.00    +0.061 C 
BRANCH  27  31
ATOM     31  C   UNL     1      35.541 -23.919 -15.013  0.00  0.00    +0.020 C 
ATOM     32  C   UNL     1      35.631 -24.772 -13.912  0.00  0.00    +0.012 C 
ATOM     33  C   UNL     1      36.700 -23.403 -15.592  0.00  0.00    +0.002 C 
ATOM     34  C   UNL     1      36.880 -25.107 -13.391  0.00  0.00    +0.068 C 
ATOM     35  C   UNL     1      37.950 -23.739 -15.071  0.00  0.00    +0.001 C 
ATOM     36  C   UNL     1      38.040 -24.591 -13.970  0.00  0.00    +0.010 C 
BRANCH  34  38
ATOM     37  N   UNL     1      37.049 -26.689 -11.347  0.00  0.00    -0.191 NA
ATOM     38  C   UNL     1      36.973 -25.980 -12.263  0.00  0.00    +0.100 C 
ENDBRANCH  34  38
ENDBRANCH  27  31
ENDBRANCH  23  25
ENDBRANCH   2  23
TORSDOF 8
ENDMDL
MODEL 3
REMARK VINA RESULT:     -13.1      4.288      9.065
REMARK  Name = 25171648
REMARK  8 active torsions:
REMARK  status: ('A' for Active; 'I' for Inactive)
REMARK    1  A    between atoms: C_1  and  C_12
REMARK    2  A    between atoms: C_2  and  C_23
REMARK    3  A    between atoms: C_9  and  O_13
REMARK    4  A    between atoms: O_13  and  C_14
REMARK    5  A    between atoms: C_14  and  C_16
REMARK    6  A    between atoms: C_23  and  N_25
REMARK    7  A    between atoms: C_27  and  C_31
REMARK    8  A    between atoms: C_34  and  C_38
REMARK                            x       y       z     vdW  Elec       q    Type
REMARK                         _______ _______ _______ _____ _____    ______ ____
ROOT
ATOM      1  C   UNL     1      32.815 -12.672 -21.839  0.00  0.00    +0.062 C 
ATOM      2  C   UNL     1      34.196 -14.623 -22.189  0.00  0.00    +0.000 C 
ATOM      3  C   UNL     1      33.750 -13.368 -22.605  0.00  0.00    +0.007 C 
ATOM      4  C   UNL     1      32.326 -13.232 -20.658  0.00  0.00    +0.010 C 
ATOM      5  C   UNL     1      33.707 -15.182 -21.009  0.00  0.00    -0.003 C 
ATOM      6  C   UNL     1      32.773 -14.486 -20.243  0.00  0.00    +0.000 C 
ENDROOT
BRANCH   1  12
ATOM      7  N   UNL     1      31.127 -11.009 -21.855  0.00  0.00    -0.212 NA
ATOM      8  N   UNL     1      33.198 -10.664 -23.038  0.00  0.00    -0.190 NA
ATOM      9  C   UNL     1      31.496  -8.962 -23.067  0.00  0.00    +0.161 C 
ATOM     10  C   UNL     1      30.728  -9.790 -22.274  0.00  0.00    +0.201 C 
ATOM     11  C   UNL     1      32.735  -9.456 -23.420  0.00  0.00    +0.144 C 
ATOM     12  C   UNL     1      32.354 -11.377 -22.267  0.00  0.00    +0.031 C 
BRANCH   9  13
ATOM     13  O   UNL     1      31.058  -7.726 -23.474  0.00  0.00    -0.476 OA
BRANCH  13  14
ATOM     14  C   UNL     1      31.968  -6.930 -24.209  0.00  0.00    +0.205 C 
BRANCH  14  16
ATOM     15  N   UNL     1      30.605  -3.172 -22.572  0.00  0.00    +0.386 N 
ATOM     16  C   UNL     1      32.010  -5.538 -23.585  0.00  0.00    +0.040 C 
ATOM     17  C   UNL     1      31.298  -5.522 -22.227  0.00  0.00    -0.019 C 
ATOM     18  C   UNL     1      31.375  -4.498 -24.514  0.00  0.00    -0.019 C 
ATOM     19  C   UNL     1      31.248  -4.110 -21.641  0.00  0.00    -0.077 C 
ATOM     20  C   UNL     1      31.324  -3.119 -23.852  0.00  0.00    -0.077 C 
ATOM     21  C   UNL     1      30.519  -1.839 -21.977  0.00  0.00    -0.101 C 
ATOM     22  H   UNL     1      29.660  -3.510 -22.755  0.00  0.00    -0.080 HD
ENDBRANCH  14  16
ENDBRANCH  13  14
ENDBRANCH   9  13
ENDBRANCH   1  12
BRANCH   2  23
ATOM     23  C   UNL     1      35.196 -15.368 -23.008  0.00  0.00    +0.146 C 
BRANCH  23  25
ATOM     24  O   UNL     1      33.877 -16.438 -25.316  0.00  0.00    -0.268 OA
ATOM     25  N   UNL     1      34.817 -16.756 -23.215  0.00  0.00    -0.173 N 
ATOM     26  N   UNL     1      35.128 -17.594 -22.182  0.00  0.00    -0.175 NA
ATOM     27  C   UNL     1      34.813 -18.844 -22.292  0.00  0.00    +0.099 C 
ATOM     28  C   UNL     1      34.181 -17.171 -24.375  0.00  0.00    +0.268 C 
ATOM     29  C   UNL     1      34.159 -19.440 -23.472  0.00  0.00    +0.025 C 
ATOM     30  C   UNL     1      33.859 -18.611 -24.470  0.00  0.00    +0.061 C 
BRANCH  27  31
ATOM     31  C   UNL     1      35.142 -19.766 -21.172  0.00  0.00    +0.020 C 
ATOM     32  C   UNL     1      34.127 -20.478 -20.532  0.00  0.00    +0.012 C 
ATOM     33  C   UNL     1      36.467 -19.920 -20.762  0.00  0.00    +0.002 C 
ATOM     34  C   UNL     1      34.438 -21.342 -19.482  0.00  0.00    +0.068 C 
ATOM     35  C   UNL     1      36.777 -20.784 -19.712  0.00  0.00    +0.001 C 
ATOM     36  C   UNL     1      35.762 -21.496 -19.073  0.00  0.00    +0.010 C 
BRANCH  34  38
ATOM     37  N   UNL     1      32.554 -22.663 -18.292  0.00  0.00    -0.191 NA
ATOM     38  C   UNL     1      33.398 -22.071 -18.825  0.00  0.00    +0.100 C 
ENDBRANCH  34  38
ENDBRANCH  27  31
ENDBRANCH  23  25
ENDBRANCH   2  23
TORSDOF 8
ENDMDL
MODEL 4
REMARK VINA RESULT:     -13.1      1.280      1.675
REMARK  Name = 25171648
REMARK  8 active torsions:
REMARK  status: ('A' for Active; 'I' for Inactive)
REMARK    1  A    between atoms: C_1  and  C_12
REMARK    2  A    between atoms: C_2  and  C_23
REMARK    3  A    between atoms: C_9  and  O_13
REMARK    4  A    between atoms: O_13  and  C_14
REMARK    5  A    between atoms: C_14  and  C_16
REMARK    6  A    between atoms: C_23  and  N_25
REMARK    7  A    between atoms: C_27  and  C_31
REMARK    8  A    between atoms: C_34  and  C_38
REMARK                            x       y       z     vdW  Elec       q    Type
REMARK                         _______ _______ _______ _____ _____    ______ ____
ROOT
ATOM      1  C   UNL     1      35.440 -20.817 -19.743  0.00  0.00    +0.062 C 
ATOM      2  C   UNL     1      34.504 -22.607 -18.416  0.00  0.00    +0.000 C 
ATOM      3  C   UNL     1      34.388 -21.689 -19.461  0.00  0.00    +0.007 C 
ATOM      4  C   UNL     1      36.607 -20.863 -18.980  0.00  0.00    +0.010 C 
ATOM      5  C   UNL     1      35.671 -22.652 -17.654  0.00  0.00    -0.003 C 
ATOM      6  C   UNL     1      36.723 -21.780 -17.937  0.00  0.00    +0.000 C 
ENDROOT
BRANCH   1  12
ATOM      7  N   UNL     1      34.321 -20.082 -21.698  0.00  0.00    -0.212 NA
ATOM      8  N   UNL     1      36.219 -18.868 -20.844  0.00  0.00    -0.190 NA
ATOM      9  C   UNL     1      35.097 -18.104 -22.831  0.00  0.00    +0.161 C 
ATOM     10  C   UNL     1      34.238 -19.176 -22.695  0.00  0.00    +0.201 C 
ATOM     11  C   UNL     1      36.077 -17.999 -21.866  0.00  0.00    +0.144 C 
ATOM     12  C   UNL     1      35.320 -19.870 -20.821  0.00  0.00    +0.031 C 
BRANCH   9  13
ATOM     13  O   UNL     1      34.981 -17.201 -23.859  0.00  0.00    -0.476 OA
BRANCH  13  14
ATOM     14  C   UNL     1      35.274 -15.849 -23.563  0.00  0.00    +0.205 C 
BRANCH  14  16
ATOM     15  N   UNL     1      32.787 -12.930 -21.576  0.00  0.00    +0.386 N 
ATOM     16  C   UNL     1      34.057 -15.223 -22.890  0.00  0.00    +0.040 C 
ATOM     17  C   UNL     1      33.567 -13.997 -23.668  0.00  0.00    -0.019 C 
ATOM     18  C   UNL     1      34.369 -14.827 -21.443  0.00  0.00    -0.019 C 
ATOM     19  C   UNL     1      32.409 -13.305 -22.946  0.00  0.00    -0.077 C 
ATOM     20  C   UNL     1      33.184 -14.108 -20.794  0.00  0.00    -0.077 C 
ATOM     21  C   UNL     1      31.687 -12.224 -20.917  0.00  0.00    -0.101 C 
ATOM     22  H   UNL     1      33.590 -12.304 -21.632  0.00  0.00    -0.080 HD
ENDBRANCH  14  16
ENDBRANCH  13  14
ENDBRANCH   9  13
ENDBRANCH   1  12
BRANCH   2  23
ATOM     23  C   UNL     1      33.380 -23.539 -18.113  0.00  0.00    +0.146 C 
BRANCH  23  25
ATOM     24  O   UNL     1      30.927 -22.669 -16.914  0.00  0.00    -0.268 OA
ATOM     25  N   UNL     1      33.057 -23.573 -16.697  0.00  0.00    -0.173 N 
ATOM     26  N   UNL     1      34.048 -24.064 -15.896  0.00  0.00    -0.175 NA
ATOM     27  C   UNL     1      33.834 -24.117 -14.620  0.00  0.00    +0.099 C 
ATOM     28  C   UNL     1      31.833 -23.127 -16.219  0.00  0.00    +0.268 C 
ATOM     29  C   UNL     1      32.578 -23.705 -13.966  0.00  0.00    +0.025 C 
ATOM     30  C   UNL     1      31.622 -23.227 -14.759  0.00  0.00    +0.061 C 
BRANCH  27  31
ATOM     31  C   UNL     1      34.908 -24.645 -13.736  0.00  0.00    +0.020 C 
ATOM     32  C   UNL     1      36.021 -25.277 -14.291  0.00  0.00    +0.012 C 
ATOM     33  C   UNL     1      34.801 -24.507 -12.352  0.00  0.00    +0.002 C 
ATOM     34  C   UNL     1      37.027 -25.771 -13.461  0.00  0.00    +0.068 C 
ATOM     35  C   UNL     1      35.808 -25.001 -11.522  0.00  0.00    +0.001 C 
ATOM     36  C   UNL     1      36.921 -25.633 -12.076  0.00  0.00    +0.010 C 
BRANCH  34  38
ATOM     37  N   UNL     1      39.093 -26.947 -14.488  0.00  0.00    -0.191 NA
ATOM     38  C   UNL     1      38.167 -26.420 -14.028  0.00  0.00    +0.100 C 
ENDBRANCH  34  38
ENDBRANCH  27  31
ENDBRANCH  23  25
ENDBRANCH   2  23
TORSDOF 8
ENDMDL
MODEL 5
REMARK VINA RESULT:     -13.1      4.478      9.173
REMARK  Name = 25171648
REMARK  8 active torsions:
REMARK  status: ('A' for Active; 'I' for Inactive)
REMARK    1  A    between atoms: C_1  and  C_12
REMARK    2  A    between atoms: C_2  and  C_23
REMARK    3  A    between atoms: C_9  and  O_13
REMARK    4  A    between atoms: O_13  and  C_14
REMARK    5  A    between atoms: C_14  and  C_16
REMARK    6  A    between atoms: C_23  and  N_25
REMARK    7  A    between atoms: C_27  and  C_31
REMARK    8  A    between atoms: C_34  and  C_38
REMARK                            x       y       z     vdW  Elec       q    Type
REMARK                         _______ _______ _______ _____ _____    ______ ____
ROOT
ATOM      1  C   UNL     1      32.716 -12.283 -21.822  0.00  0.00    +0.062 C 
ATOM      2  C   UNL     1      34.037 -14.248 -22.303  0.00  0.00    +0.000 C 
ATOM      3  C   UNL     1      33.662 -12.939 -22.609  0.00  0.00    +0.007 C 
ATOM      4  C   UNL     1      32.145 -12.935 -20.729  0.00  0.00    +0.010 C 
ATOM      5  C   UNL     1      33.466 -14.899 -21.210  0.00  0.00    -0.003 C 
ATOM      6  C   UNL     1      32.521 -14.243 -20.423  0.00  0.00    +0.000 C 
ENDROOT
BRANCH   1  12
ATOM      7  N   UNL     1      31.925 -10.166 -21.107  0.00  0.00    -0.212 NA
ATOM      8  N   UNL     1      32.411 -10.571 -23.433  0.00  0.00    -0.190 NA
ATOM      9  C   UNL     1      31.609  -8.414 -22.728  0.00  0.00    +0.161 C 
ATOM     10  C   UNL     1      31.570  -8.907 -21.439  0.00  0.00    +0.201 C 
ATOM     11  C   UNL     1      32.042  -9.299 -23.693  0.00  0.00    +0.144 C 
ATOM     12  C   UNL     1      32.329 -10.932 -22.138  0.00  0.00    +0.031 C 
BRANCH   9  13
ATOM     13  O   UNL     1      31.241  -7.126 -23.029  0.00  0.00    -0.476 OA
BRANCH  13  14
ATOM     14  C   UNL     1      32.053  -6.087 -22.514  0.00  0.00    +0.205 C 
BRANCH  14  16
ATOM     15  N   UNL     1      34.551  -6.189 -26.036  0.00  0.00    +0.386 N 
ATOM     16  C   UNL     1      32.997  -5.617 -23.616  0.00  0.00    +0.040 C 
ATOM     17  C   UNL     1      32.347  -5.762 -24.997  0.00  0.00    -0.019 C 
ATOM     18  C   UNL     1      34.316  -6.395 -23.581  0.00  0.00    -0.019 C 
ATOM     19  C   UNL     1      33.323  -5.386 -26.114  0.00  0.00    -0.077 C 
ATOM     20  C   UNL     1      35.227  -5.999 -24.745  0.00  0.00    -0.077 C 
ATOM     21  C   UNL     1      35.452  -5.855 -27.140  0.00  0.00    -0.101 C 
ATOM     22  H   UNL     1      34.290  -7.171 -26.113  0.00  0.00    -0.080 HD
ENDBRANCH  14  16
ENDBRANCH  13  14
ENDBRANCH   9  13
ENDBRANCH   1  12
BRANCH   2  23
ATOM     23  C   UNL     1      35.049 -14.950 -23.144  0.00  0.00    +0.146 C 
BRANCH  23  25
ATOM     24  O   UNL     1      33.666 -16.026 -25.412  0.00  0.00    -0.268 OA
ATOM     25  N   UNL     1      34.712 -16.347 -23.362  0.00  0.00    -0.173 N 
ATOM     26  N   UNL     1      35.100 -17.192 -22.361  0.00  0.00    -0.175 NA
ATOM     27  C   UNL     1      34.827 -18.451 -22.483  0.00  0.00    +0.099 C 
ATOM     28  C   UNL     1      34.039 -16.765 -24.501  0.00  0.00    +0.268 C 
ATOM     29  C   UNL     1      34.142 -19.049 -23.644  0.00  0.00    +0.025 C 
ATOM     30  C   UNL     1      33.767 -18.213 -24.610  0.00  0.00    +0.061 C 
BRANCH  27  31
ATOM     31  C   UNL     1      35.241 -19.380 -21.398  0.00  0.00    +0.020 C 
ATOM     32  C   UNL     1      34.300 -20.220 -20.801  0.00  0.00    +0.012 C 
ATOM     33  C   UNL     1      36.571 -19.413 -20.977  0.00  0.00    +0.002 C 
ATOM     34  C   UNL     1      34.690 -21.092 -19.784  0.00  0.00    +0.068 C 
ATOM     35  C   UNL     1      36.960 -20.284 -19.960  0.00  0.00    +0.001 C 
ATOM     36  C   UNL     1      36.020 -21.124 -19.363  0.00  0.00    +0.010 C 
BRANCH  34  38
ATOM     37  N   UNL     1      32.944 -22.650 -18.675  0.00  0.00    -0.191 NA
ATOM     38  C   UNL     1      33.726 -21.952 -19.172  0.00  0.00    +0.100 C 
ENDBRANCH  34  38
ENDBRANCH  27  31
ENDBRANCH  23  25
ENDBRANCH   2  23
TORSDOF 8
ENDMDL
MODEL 6
REMARK VINA RESULT:     -13.0      2.135      4.081
REMARK  Name = 25171648
REMARK  8 active torsions:
REMARK  status: ('A' for Active; 'I' for Inactive)
REMARK    1  A    between atoms: C_1  and  C_12
REMARK    2  A    between atoms: C_2  and  C_23
REMARK    3  A    between atoms: C_9  and  O_13
REMARK    4  A    between atoms: O_13  and  C_14
REMARK    5  A    between atoms: C_14  and  C_16
REMARK    6  A    between atoms: C_23  and  N_25
REMARK    7  A    between atoms: C_27  and  C_31
REMARK    8  A    between atoms: C_34  and  C_38
REMARK                            x       y       z     vdW  Elec       q    Type
REMARK                         _______ _______ _______ _____ _____    ______ ____
ROOT
ATOM      1  C   UNL     1      34.829 -21.474 -19.239  0.00  0.00    +0.062 C 
ATOM      2  C   UNL     1      35.509 -22.593 -17.208  0.00  0.00    +0.000 C 
ATOM      3  C   UNL     1      35.749 -21.646 -18.205  0.00  0.00    +0.007 C 
ATOM      4  C   UNL     1      33.670 -22.249 -19.277  0.00  0.00    +0.010 C 
ATOM      5  C   UNL     1      34.350 -23.367 -17.247  0.00  0.00    -0.003 C 
ATOM      6  C   UNL     1      33.430 -23.194 -18.280  0.00  0.00    +0.000 C 
ENDROOT
BRANCH   1  12
ATOM      7  N   UNL     1      34.109 -20.337 -21.190  0.00  0.00    -0.212 NA
ATOM      8  N   UNL     1      36.251 -19.841 -20.203  0.00  0.00    -0.190 NA
ATOM      9  C   UNL     1      35.538 -18.674 -22.184  0.00  0.00    +0.161 C 
ATOM     10  C   UNL     1      34.374 -19.414 -22.137  0.00  0.00    +0.201 C 
ATOM     11  C   UNL     1      36.449 -18.933 -21.181  0.00  0.00    +0.144 C 
ATOM     12  C   UNL     1      35.076 -20.497 -20.268  0.00  0.00    +0.031 C 
BRANCH   9  13
ATOM     13  O   UNL     1      35.773 -17.742 -23.164  0.00  0.00    -0.476 OA
BRANCH  13  14
ATOM     14  C   UNL     1      34.660 -17.312 -23.925  0.00  0.00    +0.205 C 
BRANCH  14  16
ATOM     15  N   UNL     1      33.219 -13.273 -23.409  0.00  0.00    +0.386 N 
ATOM     16  C   UNL     1      34.636 -15.787 -23.931  0.00  0.00    +0.040 C 
ATOM     17  C   UNL     1      34.435 -15.233 -22.516  0.00  0.00    -0.019 C 
ATOM     18  C   UNL     1      33.534 -15.256 -24.855  0.00  0.00    -0.019 C 
ATOM     19  C   UNL     1      34.309 -13.709 -22.526  0.00  0.00    -0.077 C 
ATOM     20  C   UNL     1      33.438 -13.730 -24.788  0.00  0.00    -0.077 C 
ATOM     21  C   UNL     1      33.078 -11.817 -23.369  0.00  0.00    -0.101 C 
ATOM     22  H   UNL     1      32.354 -13.695 -23.072  0.00  0.00    -0.080 HD
ENDBRANCH  14  16
ENDBRANCH  13  14
ENDBRANCH   9  13
ENDBRANCH   1  12
BRANCH   2  23
ATOM     23  C   UNL     1      36.493 -22.777 -16.102  0.00  0.00    +0.146 C 
BRANCH  23  25
ATOM     24  O   UNL     1      37.827 -23.369 -13.636  0.00  0.00    -0.268 OA
ATOM     25  N   UNL     1      35.877 -23.313 -14.900  0.00  0.00    -0.173 N 
ATOM     26  N   UNL     1      34.537 -23.551 -15.001  0.00  0.00    -0.175 NA
ATOM     27  C   UNL     1      33.921 -24.036 -13.971  0.00  0.00    +0.099 C 
ATOM     28  C   UNL     1      36.617 -23.562 -13.753  0.00  0.00    +0.268 C 
ATOM     29  C   UNL     1      34.564 -24.329 -12.676  0.00  0.00    +0.025 C 
ATOM     30  C   UNL     1      35.872 -24.094 -12.593  0.00  0.00    +0.061 C 
BRANCH  27  31
ATOM     31  C   UNL     1      32.462 -24.305 -14.070  0.00  0.00    +0.020 C 
ATOM     32  C   UNL     1      31.669 -23.548 -14.932  0.00  0.00    +0.012 C 
ATOM     33  C   UNL     1      31.886 -25.317 -13.301  0.00  0.00    +0.002 C 
ATOM     34  C   UNL     1      30.301 -23.801 -15.025  0.00  0.00    +0.068 C 
ATOM     35  C   UNL     1      30.517 -25.571 -13.394  0.00  0.00    +0.001 C 
ATOM     36  C   UNL     1      29.725 -24.813 -14.256  0.00  0.00    +0.010 C 
BRANCH  34  38
ATOM     37  N   UNL     1      28.827 -22.394 -16.624  0.00  0.00    -0.191 NA
ATOM     38  C   UNL     1      29.488 -23.025 -15.907  0.00  0.00    +0.100 C 
ENDBRANCH  34  38
ENDBRANCH  27  31
ENDBRANCH  23  25
ENDBRANCH   2  23
TORSDOF 8
ENDMDL
MODEL 7
REMARK VINA RESULT:     -12.8      3.875     14.099
REMARK  Name = 25171648
REMARK  8 active torsions:
REMARK  status: ('A' for Active; 'I' for Inactive)
REMARK    1  A    between atoms: C_1  and  C_12
REMARK    2  A    between atoms: C_2  and  C_23
REMARK    3  A    between atoms: C_9  and  O_13
REMARK    4  A    between atoms: O_13  and  C_14
REMARK    5  A    between atoms: C_14  and  C_16
REMARK    6  A    between atoms: C_23  and  N_25
REMARK    7  A    between atoms: C_27  and  C_31
REMARK    8  A    between atoms: C_34  and  C_38
REMARK                            x       y       z     vdW  Elec       q    Type
REMARK                         _______ _______ _______ _____ _____    ______ ____
ROOT
ATOM      1  C   UNL     1      33.728 -13.776 -22.583  0.00  0.00    +0.062 C 
ATOM      2  C   UNL     1      32.308 -11.892 -22.059  0.00  0.00    +0.000 C 
ATOM      3  C   UNL     1      32.848 -13.132 -21.713  0.00  0.00    +0.007 C 
ATOM      4  C   UNL     1      34.069 -13.180 -23.797  0.00  0.00    +0.010 C 
ATOM      5  C   UNL     1      32.648 -11.298 -23.273  0.00  0.00    -0.003 C 
ATOM      6  C   UNL     1      33.530 -11.941 -24.142  0.00  0.00    +0.000 C 
ENDROOT
BRANCH   1  12
ATOM      7  N   UNL     1      34.617 -15.870 -23.244  0.00  0.00    -0.212 NA
ATOM      8  N   UNL     1      34.420 -15.306 -20.910  0.00  0.00    -0.190 NA
ATOM      9  C   UNL     1      35.325 -17.439 -21.560  0.00  0.00    +0.161 C 
ATOM     10  C   UNL     1      35.136 -17.060 -22.874  0.00  0.00    +0.201 C 
ATOM     11  C   UNL     1      34.945 -16.512 -20.611  0.00  0.00    +0.144 C 
ATOM     12  C   UNL     1      34.285 -15.054 -22.226  0.00  0.00    +0.031 C 
BRANCH   9  13
ATOM     13  O   UNL     1      35.857 -18.658 -21.220  0.00  0.00    -0.476 OA
BRANCH  13  14
ATOM     14  C   UNL     1      35.065 -19.801 -21.480  0.00  0.00    +0.205 C 
BRANCH  14  16
ATOM     15  N   UNL     1      33.766 -22.777 -18.632  0.00  0.00    +0.386 N 
ATOM     16  C   UNL     1      34.682 -20.441 -20.150  0.00  0.00    +0.040 C 
ATOM     17  C   UNL     1      35.602 -21.623 -19.822  0.00  0.00    -0.019 C 
ATOM     18  C   UNL     1      33.223 -20.910 -20.162  0.00  0.00    -0.019 C 
ATOM     19  C   UNL     1      35.164 -22.332 -18.540  0.00  0.00    -0.077 C 
ATOM     20  C   UNL     1      32.863 -21.642 -18.867  0.00  0.00    -0.077 C 
ATOM     21  C   UNL     1      33.378 -23.498 -17.419  0.00  0.00    -0.101 C 
ATOM     22  H   UNL     1      33.690 -23.410 -19.427  0.00  0.00    -0.080 HD
ENDBRANCH  14  16
ENDBRANCH  13  14
ENDBRANCH   9  13
ENDBRANCH   1  12
BRANCH   2  23
ATOM     23  C   UNL     1      31.365 -11.204 -21.130  0.00  0.00    +0.146 C 
BRANCH  23  25
ATOM     24  O   UNL     1      31.203 -10.066 -18.505  0.00  0.00    -0.268 OA
ATOM     25  N   UNL     1      31.844  -9.890 -20.732  0.00  0.00    -0.173 N 
ATOM     26  N   UNL     1      32.409  -9.158 -21.737  0.00  0.00    -0.175 NA
ATOM     27  C   UNL     1      32.851  -7.974 -21.458  0.00  0.00    +0.099 C 
ATOM     28  C   UNL     1      31.717  -9.435 -19.428  0.00  0.00    +0.268 C 
ATOM     29  C   UNL     1      32.811  -7.363 -20.117  0.00  0.00    +0.025 C 
ATOM     30  C   UNL     1      32.256  -8.087 -19.148  0.00  0.00    +0.061 C 
BRANCH  27  31
ATOM     31  C   UNL     1      33.464  -7.165 -22.545  0.00  0.00    +0.020 C 
ATOM     32  C   UNL     1      32.739  -6.133 -23.141  0.00  0.00    +0.012 C 
ATOM     33  C   UNL     1      34.765  -7.438 -22.969  0.00  0.00    +0.002 C 
ATOM     34  C   UNL     1      33.315  -5.375 -24.160  0.00  0.00    +0.068 C 
ATOM     35  C   UNL     1      35.341  -6.680 -23.988  0.00  0.00    +0.001 C 
ATOM     36  C   UNL     1      34.616  -5.648 -24.584  0.00  0.00    +0.010 C 
BRANCH  34  38
ATOM     37  N   UNL     1      31.969  -3.459 -25.268  0.00  0.00    -0.191 NA
ATOM     38  C   UNL     1      32.572  -4.318 -24.772  0.00  0.00    +0.100 C 
ENDBRANCH  34  38
ENDBRANCH  27  31
ENDBRANCH  23  25
ENDBRANCH   2  23
TORSDOF 8
ENDMDL
MODEL 8
REMARK VINA RESULT:     -12.4      4.477     15.170
REMARK  Name = 25171648
REMARK  8 active torsions:
REMARK  status: ('A' for Active; 'I' for Inactive)
REMARK    1  A    between atoms: C_1  and  C_12
REMARK    2  A    between atoms: C_2  and  C_23
REMARK    3  A    between atoms: C_9  and  O_13
REMARK    4  A    between atoms: O_13  and  C_14
REMARK    5  A    between atoms: C_14  and  C_16
REMARK    6  A    between atoms: C_23  and  N_25
REMARK    7  A    between atoms: C_27  and  C_31
REMARK    8  A    between atoms: C_34  and  C_38
REMARK                            x       y       z     vdW  Elec       q    Type
REMARK                         _______ _______ _______ _____ _____    ______ ____
ROOT
ATOM      1  C   UNL     1      32.993 -13.086 -21.532  0.00  0.00    +0.062 C 
ATOM      2  C   UNL     1      32.285 -11.023 -22.573  0.00  0.00    +0.000 C 
ATOM      3  C   UNL     1      32.993 -12.225 -22.629  0.00  0.00    +0.007 C 
ATOM      4  C   UNL     1      32.286 -12.745 -20.378  0.00  0.00    +0.010 C 
ATOM      5  C   UNL     1      31.579 -10.683 -21.419  0.00  0.00    -0.003 C 
ATOM      6  C   UNL     1      31.579 -11.545 -20.322  0.00  0.00    +0.000 C 
ENDROOT
BRANCH   1  12
ATOM      7  N   UNL     1      34.059 -14.881 -20.411  0.00  0.00    -0.212 NA
ATOM      8  N   UNL     1      33.994 -14.806 -22.819  0.00  0.00    -0.190 NA
ATOM      9  C   UNL     1      35.083 -16.638 -21.700  0.00  0.00    +0.161 C 
ATOM     10  C   UNL     1      34.742 -16.041 -20.503  0.00  0.00    +0.201 C 
ATOM     11  C   UNL     1      34.677 -15.969 -22.837  0.00  0.00    +0.144 C 
ATOM     12  C   UNL     1      33.722 -14.326 -21.590  0.00  0.00    +0.031 C 
BRANCH   9  13
ATOM     13  O   UNL     1      35.777 -17.821 -21.756  0.00  0.00    -0.476 OA
BRANCH  13  14
ATOM     14  C   UNL     1      35.035 -18.991 -22.040  0.00  0.00    +0.205 C 
BRANCH  14  16
ATOM     15  N   UNL     1      34.085 -22.166 -19.269  0.00  0.00    +0.386 N 
ATOM     16  C   UNL     1      34.728 -19.704 -20.726  0.00  0.00    +0.040 C 
ATOM     17  C   UNL     1      35.777 -20.781 -20.427  0.00  0.00    -0.019 C 
ATOM     18  C   UNL     1      33.332 -20.335 -20.753  0.00  0.00    -0.019 C 
ATOM     19  C   UNL     1      35.423 -21.568 -19.163  0.00  0.00    -0.077 C 
ATOM     20  C   UNL     1      33.059 -21.136 -19.478  0.00  0.00    -0.077 C 
ATOM     21  C   UNL     1      33.783 -22.957 -18.076  0.00  0.00    -0.101 C 
ATOM     22  H   UNL     1      34.081 -22.784 -20.081  0.00  0.00    -0.080 HD
ENDBRANCH  14  16
ENDBRANCH  13  14
ENDBRANCH   9  13
ENDBRANCH   1  12
BRANCH   2  23
ATOM     23  C   UNL     1      32.285 -10.102 -23.746  0.00  0.00    +0.146 C 
BRANCH  23  25
ATOM     24  O   UNL     1      35.151 -10.091 -23.728  0.00  0.00    -0.268 OA
ATOM     25  N   UNL     1      33.138  -8.944 -23.538  0.00  0.00    -0.173 N 
ATOM     26  N   UNL     1      32.470  -7.772 -23.326  0.00  0.00    -0.175 NA
ATOM     27  C   UNL     1      33.165  -6.699 -23.126  0.00  0.00    +0.099 C 
ATOM     28  C   UNL     1      34.521  -9.048 -23.551  0.00  0.00    +0.268 C 
ATOM     29  C   UNL     1      34.639  -6.644 -23.135  0.00  0.00    +0.025 C 
ATOM     30  C   UNL     1      35.277  -7.795 -23.341  0.00  0.00    +0.061 C 
BRANCH  27  31
ATOM     31  C   UNL     1      32.450  -5.417 -22.888  0.00  0.00    +0.020 C 
ATOM     32  C   UNL     1      32.037  -4.636 -23.968  0.00  0.00    +0.012 C 
ATOM     33  C   UNL     1      32.190  -4.995 -21.583  0.00  0.00    +0.002 C 
ATOM     34  C   UNL     1      31.366  -3.434 -23.743  0.00  0.00    +0.068 C 
ATOM     35  C   UNL     1      31.518  -3.794 -21.358  0.00  0.00    +0.001 C 
ATOM     36  C   UNL     1      31.106  -3.013 -22.438  0.00  0.00    +0.010 C 
BRANCH  34  38
ATOM     37  N   UNL     1      30.600  -1.984 -25.747  0.00  0.00    -0.191 NA
ATOM     38  C   UNL     1      30.943  -2.634 -24.849  0.00  0.00    +0.100 C 
ENDBRANCH  34  38
ENDBRANCH  27  31
ENDBRANCH  23  25
ENDBRANCH   2  23
TORSDOF 8
ENDMDL
MODEL 9
REMARK VINA RESULT:     -11.9      2.164      3.575
REMARK  Name = 25171648
REMARK  8 active torsions:
REMARK  status: ('A' for Active; 'I' for Inactive)
REMARK    1  A    between atoms: C_1  and  C_12
REMARK    2  A    between atoms: C_2  and  C_23
REMARK    3  A    between atoms: C_9  and  O_13
REMARK    4  A    between atoms: O_13  and  C_14
REMARK    5  A    between atoms: C_14  and  C_16
REMARK    6  A    between atoms: C_23  and  N_25
REMARK    7  A    between atoms: C_27  and  C_31
REMARK    8  A    between atoms: C_34  and  C_38
REMARK                            x       y       z     vdW  Elec       q    Type
REMARK                         _______ _______ _______ _____ _____    ______ ____
ROOT
ATOM      1  C   UNL     1      34.799 -20.129 -20.467  0.00  0.00    +0.062 C 
ATOM      2  C   UNL     1      35.765 -21.674 -18.879  0.00  0.00    +0.000 C 
ATOM      3  C   UNL     1      35.870 -20.525 -19.666  0.00  0.00    +0.007 C 
ATOM      4  C   UNL     1      33.624 -20.881 -20.483  0.00  0.00    +0.010 C 
ATOM      5  C   UNL     1      34.590 -22.425 -18.895  0.00  0.00    -0.003 C 
ATOM      6  C   UNL     1      33.519 -22.028 -19.696  0.00  0.00    +0.000 C 
ENDROOT
BRANCH   1  12
ATOM      7  N   UNL     1      35.239 -17.807 -20.639  0.00  0.00    -0.212 NA
ATOM      8  N   UNL     1      34.667 -19.093 -22.595  0.00  0.00    -0.190 NA
ATOM      9  C   UNL     1      35.110 -16.736 -22.791  0.00  0.00    +0.161 C 
ATOM     10  C   UNL     1      35.332 -16.717 -21.430  0.00  0.00    +0.201 C 
ATOM     11  C   UNL     1      34.778 -17.964 -23.325  0.00  0.00    +0.144 C 
ATOM     12  C   UNL     1      34.908 -18.944 -21.278  0.00  0.00    +0.031 C 
BRANCH   9  13
ATOM     13  O   UNL     1      35.214 -15.606 -23.565  0.00  0.00    -0.476 OA
BRANCH  13  14
ATOM     14  C   UNL     1      34.007 -14.996 -23.979  0.00  0.00    +0.205 C 
BRANCH  14  16
ATOM     15  N   UNL     1      32.193 -11.355 -22.528  0.00  0.00    +0.386 N 
ATOM     16  C   UNL     1      33.795 -13.729 -23.157  0.00  0.00    +0.040 C 
ATOM     17  C   UNL     1      32.490 -13.805 -22.356  0.00  0.00    -0.019 C 
ATOM     18  C   UNL     1      33.780 -12.485 -24.052  0.00  0.00    -0.019 C 
ATOM     19  C   UNL     1      32.220 -12.499 -21.606  0.00  0.00    -0.077 C 
ATOM     20  C   UNL     1      33.468 -11.223 -23.246  0.00  0.00    -0.077 C 
ATOM     21  C   UNL     1      31.883 -10.122 -21.804  0.00  0.00    -0.101 C 
ATOM     22  H   UNL     1      31.460 -11.523 -23.216  0.00  0.00    -0.080 HD
ENDBRANCH  14  16
ENDBRANCH  13  14
ENDBRANCH   9  13
ENDBRANCH   1  12
BRANCH   2  23
ATOM     23  C   UNL     1      36.909 -22.098 -18.022  0.00  0.00    +0.146 C 
BRANCH  23  25
ATOM     24  O   UNL     1      38.600 -22.881 -15.844  0.00  0.00    -0.268 OA
ATOM     25  N   UNL     1      36.472 -22.648 -16.750  0.00  0.00    -0.173 N 
ATOM     26  N   UNL     1      35.121 -22.799 -16.626  0.00  0.00    -0.175 NA
ATOM     27  C   UNL     1      34.658 -23.290 -15.522  0.00  0.00    +0.099 C 
ATOM     28  C   UNL     1      37.377 -22.993 -15.757  0.00  0.00    +0.268 C 
ATOM     29  C   UNL     1      35.490 -23.680 -14.368  0.00  0.00    +0.025 C 
ATOM     30  C   UNL     1      36.806 -23.529 -14.504  0.00  0.00    +0.061 C 
BRANCH  27  31
ATOM     31  C   UNL     1      33.188 -23.464 -15.377  0.00  0.00    +0.020 C 
ATOM     32  C   UNL     1      32.663 -24.027 -14.213  0.00  0.00    +0.012 C 
ATOM     33  C   UNL     1      32.334 -23.062 -16.404  0.00  0.00    +0.002 C 
ATOM     34  C   UNL     1      31.284 -24.188 -14.078  0.00  0.00    +0.068 C 
ATOM     35  C   UNL     1      30.955 -23.224 -16.269  0.00  0.00    +0.001 C 
ATOM     36  C   UNL     1      30.430 -23.787 -15.106  0.00  0.00    +0.010 C 
BRANCH  34  38
ATOM     37  N   UNL     1      30.307 -25.235 -11.920  0.00  0.00    -0.191 NA
ATOM     38  C   UNL     1      30.745 -24.766 -12.887  0.00  0.00    +0.100 C 
ENDBRANCH  34  38
ENDBRANCH  27  31
ENDBRANCH  23  25
ENDBRANCH   2  23
TORSDOF 8
ENDMDL
