MODEL 1
REMARK VINA RESULT:     -12.7      0.000      0.000
REMARK  Name = 24808489
REMARK  4 active torsions:
REMARK  status: ('A' for Active; 'I' for Inactive)
REMARK    1  A    between atoms: N_1  and  C_10
REMARK    2  A    between atoms: N_1  and  C_21
REMARK    3  A    between atoms: C_18  and  C_24
REMARK    4  A    between atoms: C_24  and  N_25
REMARK                            x       y       z     vdW  Elec       q    Type
REMARK                         _______ _______ _______ _____ _____    ______ ____
ROOT
ATOM      1  N   UNL     1      34.733 -22.591 -18.552  0.00  0.00    -0.311 N 
ATOM      2  H   UNL     1      35.442 -23.268 -18.470  0.00  0.00    +0.152 HD
ENDROOT
BRANCH   1  10
ATOM      3 BR   UNL     1      28.175 -23.229 -16.418  0.00  0.00    -0.049 Br
ATOM      4  O   UNL     1      35.962 -23.245 -16.429  0.00  0.00    -0.270 OA
ATOM      5  O   UNL     1      33.725 -24.408 -12.594  0.00  0.00    -0.270 OA
ATOM      6  N   UNL     1      34.805 -23.820 -14.534  0.00  0.00    -0.248 N 
ATOM      7  C   UNL     1      33.564 -23.208 -16.526  0.00  0.00    +0.068 C 
ATOM      8  C   UNL     1      32.306 -23.433 -15.781  0.00  0.00    +0.010 C 
ATOM      9  C   UNL     1      32.368 -23.842 -14.438  0.00  0.00    +0.054 C 
ATOM     10  C   UNL     1      33.626 -22.815 -17.811  0.00  0.00    +0.066 C 
ATOM     11  C   UNL     1      34.887 -23.416 -15.859  0.00  0.00    +0.253 C 
ATOM     12  C   UNL     1      31.033 -23.255 -16.351  0.00  0.00    +0.007 C 
ATOM     13  C   UNL     1      33.670 -24.051 -13.767  0.00  0.00    +0.252 C 
ATOM     14  C   UNL     1      31.196 -24.067 -13.697  0.00  0.00    +0.005 C 
ATOM     15  C   UNL     1      29.867 -23.479 -15.612  0.00  0.00    +0.035 C 
ATOM     16  C   UNL     1      29.949 -23.884 -14.286  0.00  0.00    +0.007 C 
ATOM     17  H   UNL     1      35.666 -23.963 -14.078  0.00  0.00    +0.158 HD
ENDBRANCH   1  10
BRANCH   1  21
ATOM     18  C   UNL     1      35.556 -19.399 -21.152  0.00  0.00    -0.043 C 
ATOM     19  C   UNL     1      34.249 -19.869 -21.015  0.00  0.00    -0.005 C 
ATOM     20  C   UNL     1      36.589 -19.991 -20.425  0.00  0.00    -0.005 C 
ATOM     21  C   UNL     1      35.009 -21.521 -19.425  0.00  0.00    +0.048 C 
ATOM     22  C   UNL     1      33.976 -20.930 -20.151  0.00  0.00    +0.014 C 
ATOM     23  C   UNL     1      36.316 -21.051 -19.561  0.00  0.00    +0.014 C 
BRANCH  18  24
ATOM     24  C   UNL     1      35.847 -18.266 -22.075  0.00  0.00    -0.050 C 
BRANCH  24  25
ATOM     25  N   UNL     1      34.913 -17.162 -21.912  0.00  0.00    +0.390 N 
ATOM     26  C   UNL     1      35.067 -16.486 -20.624  0.00  0.00    -0.077 C 
ATOM     27  C   UNL     1      35.104 -16.116 -22.916  0.00  0.00    -0.077 C 
ATOM     28  C   UNL     1      34.307 -15.184 -20.829  0.00  0.00    -0.025 C 
ATOM     29  C   UNL     1      34.328 -14.942 -22.335  0.00  0.00    -0.025 C 
ATOM     30  H   UNL     1      33.996 -17.601 -21.997  0.00  0.00    -0.079 HD
ENDBRANCH  24  25
ENDBRANCH  18  24
ENDBRANCH   1  21
TORSDOF 4
ENDMDL
MODEL 2
REMARK VINA RESULT:     -12.5      0.897      1.640
REMARK  Name = 24808489
REMARK  4 active torsions:
REMARK  status: ('A' for Active; 'I' for Inactive)
REMARK    1  A    between atoms: N_1  and  C_10
REMARK    2  A    between atoms: N_1  and  C_21
REMARK    3  A    between atoms: C_18  and  C_24
REMARK    4  A    between atoms: C_24  and  N_25
REMARK                            x       y       z     vdW  Elec       q    Type
REMARK                         _______ _______ _______ _____ _____    ______ ____
ROOT
ATOM      1  N   UNL     1      34.676 -22.784 -18.478  0.00  0.00    -0.311 N 
ATOM      2  H   UNL     1      35.341 -23.509 -18.461  0.00  0.00    +0.152 HD
ENDROOT
BRANCH   1  10
ATOM      3 BR   UNL     1      28.141 -23.361 -16.257  0.00  0.00    -0.049 Br
ATOM      4  O   UNL     1      35.928 -23.357 -16.345  0.00  0.00    -0.270 OA
ATOM      5  O   UNL     1      33.732 -24.384 -12.448  0.00  0.00    -0.270 OA
ATOM      6  N   UNL     1      34.791 -23.865 -14.419  0.00  0.00    -0.248 N 
ATOM      7  C   UNL     1      33.528 -23.329 -16.420  0.00  0.00    +0.068 C 
ATOM      8  C   UNL     1      32.279 -23.530 -15.654  0.00  0.00    +0.010 C 
ATOM      9  C   UNL     1      32.355 -23.890 -14.299  0.00  0.00    +0.054 C 
ATOM     10  C   UNL     1      33.577 -22.983 -17.718  0.00  0.00    +0.066 C 
ATOM     11  C   UNL     1      34.859 -23.509 -15.758  0.00  0.00    +0.253 C 
ATOM     12  C   UNL     1      31.000 -23.377 -16.218  0.00  0.00    +0.007 C 
ATOM     13  C   UNL     1      33.664 -24.070 -13.633  0.00  0.00    +0.252 C 
ATOM     14  C   UNL     1      31.191 -24.091 -13.538  0.00  0.00    +0.005 C 
ATOM     15  C   UNL     1      29.842 -23.577 -15.460  0.00  0.00    +0.035 C 
ATOM     16  C   UNL     1      29.938 -23.933 -14.121  0.00  0.00    +0.007 C 
ATOM     17  H   UNL     1      35.657 -23.989 -13.966  0.00  0.00    +0.158 HD
ENDBRANCH   1  10
BRANCH   1  21
ATOM     18  C   UNL     1      35.642 -19.492 -20.897  0.00  0.00    -0.043 C 
ATOM     19  C   UNL     1      36.654 -20.211 -20.261  0.00  0.00    -0.005 C 
ATOM     20  C   UNL     1      34.309 -19.866 -20.729  0.00  0.00    -0.005 C 
ATOM     21  C   UNL     1      35.000 -21.679 -19.289  0.00  0.00    +0.048 C 
ATOM     22  C   UNL     1      36.333 -21.305 -19.457  0.00  0.00    +0.014 C 
ATOM     23  C   UNL     1      33.988 -20.960 -19.925  0.00  0.00    +0.014 C 
BRANCH  18  24
ATOM     24  C   UNL     1      35.985 -18.323 -21.756  0.00  0.00    -0.050 C 
BRANCH  24  25
ATOM     25  N   UNL     1      34.896 -17.948 -22.646  0.00  0.00    +0.390 N 
ATOM     26  C   UNL     1      35.134 -16.667 -23.311  0.00  0.00    -0.077 C 
ATOM     27  C   UNL     1      34.704 -18.910 -23.730  0.00  0.00    -0.077 C 
ATOM     28  C   UNL     1      34.110 -16.672 -24.437  0.00  0.00    -0.025 C 
ATOM     29  C   UNL     1      33.826 -18.146 -24.710  0.00  0.00    -0.025 C 
ATOM     30  H   UNL     1      34.081 -17.905 -22.033  0.00  0.00    -0.079 HD
ENDBRANCH  24  25
ENDBRANCH  18  24
ENDBRANCH   1  21
TORSDOF 4
ENDMDL
MODEL 3
REMARK VINA RESULT:     -12.0      2.555      3.400
REMARK  Name = 24808489
REMARK  4 active torsions:
REMARK  status: ('A' for Active; 'I' for Inactive)
REMARK    1  A    between atoms: N_1  and  C_10
REMARK    2  A    between atoms: N_1  and  C_21
REMARK    3  A    between atoms: C_18  and  C_24
REMARK    4  A    between atoms: C_24  and  N_25
REMARK                            x       y       z     vdW  Elec       q    Type
REMARK                         _______ _______ _______ _____ _____    ______ ____
ROOT
ATOM      1  N   UNL     1      33.497 -22.643 -18.304  0.00  0.00    -0.311 N 
ATOM      2  H   UNL     1      32.598 -22.981 -18.517  0.00  0.00    +0.152 HD
ENDROOT
BRANCH   1  10
ATOM      3 BR   UNL     1      37.907 -24.932 -13.480  0.00  0.00    -0.049 Br
ATOM      4  O   UNL     1      31.319 -22.740 -17.004  0.00  0.00    -0.270 OA
ATOM      5  O   UNL     1      31.159 -24.175 -12.647  0.00  0.00    -0.270 OA
ATOM      6  N   UNL     1      31.283 -23.463 -14.828  0.00  0.00    -0.248 N 
ATOM      7  C   UNL     1      33.402 -23.396 -16.007  0.00  0.00    +0.068 C 
ATOM      8  C   UNL     1      34.068 -23.905 -14.789  0.00  0.00    +0.010 C 
ATOM      9  C   UNL     1      33.296 -24.169 -13.645  0.00  0.00    +0.054 C 
ATOM     10  C   UNL     1      34.037 -23.110 -17.157  0.00  0.00    +0.066 C 
ATOM     11  C   UNL     1      31.923 -23.162 -16.022  0.00  0.00    +0.253 C 
ATOM     12  C   UNL     1      35.451 -24.144 -14.712  0.00  0.00    +0.007 C 
ATOM     13  C   UNL     1      31.833 -23.943 -13.646  0.00  0.00    +0.252 C 
ATOM     14  C   UNL     1      33.891 -24.653 -12.468  0.00  0.00    +0.005 C 
ATOM     15  C   UNL     1      36.042 -24.625 -13.540  0.00  0.00    +0.035 C 
ATOM     16  C   UNL     1      35.263 -24.880 -12.419  0.00  0.00    +0.007 C 
ATOM     17  H   UNL     1      30.309 -23.315 -14.817  0.00  0.00    +0.158 HD
ENDBRANCH   1  10
BRANCH   1  21
ATOM     18  C   UNL     1      35.133 -19.953 -21.081  0.00  0.00    -0.043 C 
ATOM     19  C   UNL     1      35.973 -20.754 -20.306  0.00  0.00    -0.005 C 
ATOM     20  C   UNL     1      33.750 -20.046 -20.932  0.00  0.00    -0.005 C 
ATOM     21  C   UNL     1      34.045 -21.740 -19.235  0.00  0.00    +0.048 C 
ATOM     22  C   UNL     1      35.429 -21.647 -19.383  0.00  0.00    +0.014 C 
ATOM     23  C   UNL     1      33.206 -20.939 -20.010  0.00  0.00    +0.014 C 
BRANCH  18  24
ATOM     24  C   UNL     1      35.716 -18.998 -22.066  0.00  0.00    -0.050 C 
BRANCH  24  25
ATOM     25  N   UNL     1      34.877 -17.825 -22.264  0.00  0.00    +0.390 N 
ATOM     26  C   UNL     1      35.286 -16.698 -21.426  0.00  0.00    -0.077 C 
ATOM     27  C   UNL     1      34.938 -17.320 -23.636  0.00  0.00    -0.077 C 
ATOM     28  C   UNL     1      34.564 -15.520 -22.062  0.00  0.00    -0.025 C 
ATOM     29  C   UNL     1      34.332 -15.930 -23.513  0.00  0.00    -0.025 C 
ATOM     30  H   UNL     1      33.940 -18.148 -22.025  0.00  0.00    -0.079 HD
ENDBRANCH  24  25
ENDBRANCH  18  24
ENDBRANCH   1  21
TORSDOF 4
ENDMDL
MODEL 4
REMARK VINA RESULT:     -11.4      4.004      9.750
REMARK  Name = 24808489
REMARK  4 active torsions:
REMARK  status: ('A' for Active; 'I' for Inactive)
REMARK    1  A    between atoms: N_1  and  C_10
REMARK    2  A    between atoms: N_1  and  C_21
REMARK    3  A    between atoms: C_18  and  C_24
REMARK    4  A    between atoms: C_24  and  N_25
REMARK                            x       y       z     vdW  Elec       q    Type
REMARK                         _______ _______ _______ _____ _____    ______ ____
ROOT
ATOM      1  N   UNL     1      35.712 -18.588 -21.050  0.00  0.00    -0.311 N 
ATOM      2  H   UNL     1      36.606 -18.649 -21.455  0.00  0.00    +0.152 HD
ENDROOT
BRANCH   1  10
ATOM      3 BR   UNL     1      32.610 -12.510 -19.859  0.00  0.00    -0.049 Br
ATOM      4  O   UNL     1      35.616 -18.651 -23.586  0.00  0.00    -0.270 OA
ATOM      5  O   UNL     1      33.719 -15.258 -26.026  0.00  0.00    -0.270 OA
ATOM      6  N   UNL     1      34.659 -16.934 -24.767  0.00  0.00    -0.248 N 
ATOM      7  C   UNL     1      34.716 -16.804 -22.346  0.00  0.00    +0.068 C 
ATOM      8  C   UNL     1      34.031 -15.495 -22.425  0.00  0.00    +0.010 C 
ATOM      9  C   UNL     1      33.693 -14.973 -23.685  0.00  0.00    +0.054 C 
ATOM     10  C   UNL     1      35.085 -17.400 -21.198  0.00  0.00    +0.066 C 
ATOM     11  C   UNL     1      35.048 -17.562 -23.593  0.00  0.00    +0.253 C 
ATOM     12  C   UNL     1      33.694 -14.735 -21.291  0.00  0.00    +0.007 C 
ATOM     13  C   UNL     1      34.015 -15.713 -24.925  0.00  0.00    +0.252 C 
ATOM     14  C   UNL     1      33.043 -13.733 -23.802  0.00  0.00    +0.005 C 
ATOM     15  C   UNL     1      33.046 -13.501 -21.410  0.00  0.00    +0.035 C 
ATOM     16  C   UNL     1      32.720 -13.001 -22.664  0.00  0.00    +0.007 C 
ATOM     17  H   UNL     1      34.870 -17.417 -25.599  0.00  0.00    +0.158 HD
ENDBRANCH   1  10
BRANCH   1  21
ATOM     18  C   UNL     1      34.359 -22.049 -19.099  0.00  0.00    -0.043 C 
ATOM     19  C   UNL     1      35.718 -21.736 -19.102  0.00  0.00    -0.005 C 
ATOM     20  C   UNL     1      33.449 -21.213 -19.745  0.00  0.00    -0.005 C 
ATOM     21  C   UNL     1      35.258 -19.749 -20.396  0.00  0.00    +0.048 C 
ATOM     22  C   UNL     1      36.167 -20.586 -19.751  0.00  0.00    +0.014 C 
ATOM     23  C   UNL     1      33.898 -20.062 -20.394  0.00  0.00    +0.014 C 
BRANCH  18  24
ATOM     24  C   UNL     1      33.879 -23.279 -18.406  0.00  0.00    -0.050 C 
BRANCH  24  25
ATOM     25  N   UNL     1      33.487 -23.023 -17.028  0.00  0.00    +0.390 N 
ATOM     26  C   UNL     1      32.079 -23.331 -16.781  0.00  0.00    -0.077 C 
ATOM     27  C   UNL     1      34.229 -23.846 -16.074  0.00  0.00    -0.077 C 
ATOM     28  C   UNL     1      31.999 -23.371 -15.262  0.00  0.00    -0.025 C 
ATOM     29  C   UNL     1      33.413 -23.707 -14.797  0.00  0.00    -0.025 C 
ATOM     30  H   UNL     1      33.682 -22.030 -16.897  0.00  0.00    -0.079 HD
ENDBRANCH  24  25
ENDBRANCH  18  24
ENDBRANCH   1  21
TORSDOF 4
ENDMDL
MODEL 5
REMARK VINA RESULT:     -11.0      2.545      3.298
REMARK  Name = 24808489
REMARK  4 active torsions:
REMARK  status: ('A' for Active; 'I' for Inactive)
REMARK    1  A    between atoms: N_1  and  C_10
REMARK    2  A    between atoms: N_1  and  C_21
REMARK    3  A    between atoms: C_18  and  C_24
REMARK    4  A    between atoms: C_24  and  N_25
REMARK                            x       y       z     vdW  Elec       q    Type
REMARK                         _______ _______ _______ _____ _____    ______ ____
ROOT
ATOM      1  N   UNL     1      35.149 -22.290 -19.473  0.00  0.00    -0.311 N 
ATOM      2  H   UNL     1      34.941 -23.025 -20.092  0.00  0.00    +0.152 HD
ENDROOT
BRANCH   1  10
ATOM      3 BR   UNL     1      37.443 -23.858 -13.128  0.00  0.00    -0.049 Br
ATOM      4  O   UNL     1      32.646 -22.504 -19.111  0.00  0.00    -0.270 OA
ATOM      5  O   UNL     1      30.876 -23.671 -15.040  0.00  0.00    -0.270 OA
ATOM      6  N   UNL     1      31.803 -23.089 -17.060  0.00  0.00    -0.248 N 
ATOM      7  C   UNL     1      34.206 -22.902 -17.331  0.00  0.00    +0.068 C 
ATOM      8  C   UNL     1      34.370 -23.271 -15.908  0.00  0.00    +0.010 C 
ATOM      9  C   UNL     1      33.229 -23.532 -15.131  0.00  0.00    +0.054 C 
ATOM     10  C   UNL     1      35.224 -22.632 -18.168  0.00  0.00    +0.066 C 
ATOM     11  C   UNL     1      32.841 -22.807 -17.936  0.00  0.00    +0.253 C 
ATOM     12  C   UNL     1      35.625 -23.377 -15.281  0.00  0.00    +0.007 C 
ATOM     13  C   UNL     1      31.873 -23.442 -15.718  0.00  0.00    +0.252 C 
ATOM     14  C   UNL     1      33.343 -23.885 -13.776  0.00  0.00    +0.005 C 
ATOM     15  C   UNL     1      35.736 -23.728 -13.932  0.00  0.00    +0.035 C 
ATOM     16  C   UNL     1      34.597 -23.982 -13.180  0.00  0.00    +0.007 C 
ATOM     17  H   UNL     1      30.896 -23.031 -17.440  0.00  0.00    +0.158 HD
ENDBRANCH   1  10
BRANCH   1  21
ATOM     18  C   UNL     1      35.689 -18.521 -21.240  0.00  0.00    -0.043 C 
ATOM     19  C   UNL     1      36.776 -19.189 -20.675  0.00  0.00    -0.005 C 
ATOM     20  C   UNL     1      34.423 -19.105 -21.218  0.00  0.00    -0.005 C 
ATOM     21  C   UNL     1      35.330 -21.025 -20.065  0.00  0.00    +0.048 C 
ATOM     22  C   UNL     1      36.596 -20.441 -20.087  0.00  0.00    +0.014 C 
ATOM     23  C   UNL     1      34.243 -20.358 -20.630  0.00  0.00    +0.014 C 
BRANCH  18  24
ATOM     24  C   UNL     1      35.882 -17.182 -21.867  0.00  0.00    -0.050 C 
BRANCH  24  25
ATOM     25  N   UNL     1      34.723 -16.318 -21.698  0.00  0.00    +0.390 N 
ATOM     26  C   UNL     1      34.701 -15.664 -20.390  0.00  0.00    -0.077 C 
ATOM     27  C   UNL     1      34.695 -15.225 -22.669  0.00  0.00    -0.077 C 
ATOM     28  C   UNL     1      33.674 -14.557 -20.579  0.00  0.00    -0.025 C 
ATOM     29  C   UNL     1      33.669 -14.271 -22.077  0.00  0.00    -0.025 C 
ATOM     30  H   UNL     1      33.928 -16.946 -21.816  0.00  0.00    -0.079 HD
ENDBRANCH  24  25
ENDBRANCH  18  24
ENDBRANCH   1  21
TORSDOF 4
ENDMDL
MODEL 6
REMARK VINA RESULT:     -10.7      7.310     12.713
REMARK  Name = 24808489
REMARK  4 active torsions:
REMARK  status: ('A' for Active; 'I' for Inactive)
REMARK    1  A    between atoms: N_1  and  C_10
REMARK    2  A    between atoms: N_1  and  C_21
REMARK    3  A    between atoms: C_18  and  C_24
REMARK    4  A    between atoms: C_24  and  N_25
REMARK                            x       y       z     vdW  Elec       q    Type
REMARK                         _______ _______ _______ _____ _____    ______ ____
ROOT
ATOM      1  N   UNL     1      32.319 -12.756 -22.974  0.00  0.00    -0.311 N 
ATOM      2  H   UNL     1      31.359 -12.900 -22.815  0.00  0.00    +0.152 HD
ENDROOT
BRANCH   1  10
ATOM      3 BR   UNL     1      34.836  -6.817 -25.498  0.00  0.00    -0.049 Br
ATOM      4  O   UNL     1      31.527 -11.974 -20.693  0.00  0.00    -0.270 OA
ATOM      5  O   UNL     1      31.997  -7.619 -19.325  0.00  0.00    -0.270 OA
ATOM      6  N   UNL     1      31.781  -9.788 -20.049  0.00  0.00    -0.248 N 
ATOM      7  C   UNL     1      32.560 -10.462 -22.245  0.00  0.00    +0.068 C 
ATOM      8  C   UNL     1      33.000  -9.071 -22.488  0.00  0.00    +0.010 C 
ATOM      9  C   UNL     1      32.806  -8.105 -21.487  0.00  0.00    +0.054 C 
ATOM     10  C   UNL     1      32.696 -11.467 -23.127  0.00  0.00    +0.066 C 
ATOM     11  C   UNL     1      31.913 -10.836 -20.948  0.00  0.00    +0.253 C 
ATOM     12  C   UNL     1      33.614  -8.658 -23.684  0.00  0.00    +0.007 C 
ATOM     13  C   UNL     1      32.167  -8.462 -20.200  0.00  0.00    +0.252 C 
ATOM     14  C   UNL     1      33.209  -6.773 -21.679  0.00  0.00    +0.005 C 
ATOM     15  C   UNL     1      34.015  -7.332 -23.874  0.00  0.00    +0.035 C 
ATOM     16  C   UNL     1      33.814  -6.390 -22.873  0.00  0.00    +0.007 C 
ATOM     17  H   UNL     1      31.356 -10.014 -19.189  0.00  0.00    +0.158 HD
ENDBRANCH   1  10
BRANCH   1  21
ATOM     18  C   UNL     1      34.684 -16.222 -23.085  0.00  0.00    -0.043 C 
ATOM     19  C   UNL     1      34.541 -15.513 -21.892  0.00  0.00    -0.005 C 
ATOM     20  C   UNL     1      34.042 -15.779 -24.241  0.00  0.00    -0.005 C 
ATOM     21  C   UNL     1      33.113 -13.918 -23.012  0.00  0.00    +0.048 C 
ATOM     22  C   UNL     1      33.755 -14.361 -21.856  0.00  0.00    +0.014 C 
ATOM     23  C   UNL     1      33.256 -14.627 -24.205  0.00  0.00    +0.014 C 
BRANCH  18  24
ATOM     24  C   UNL     1      35.525 -17.453 -23.123  0.00  0.00    -0.050 C 
BRANCH  24  25
ATOM     25  N   UNL     1      35.401 -18.248 -21.911  0.00  0.00    +0.390 N 
ATOM     26  C   UNL     1      34.639 -19.478 -22.125  0.00  0.00    -0.077 C 
ATOM     27  C   UNL     1      36.697 -18.689 -21.397  0.00  0.00    -0.077 C 
ATOM     28  C   UNL     1      34.966 -20.302 -20.888  0.00  0.00    -0.025 C 
ATOM     29  C   UNL     1      36.318 -19.781 -20.409  0.00  0.00    -0.025 C 
ATOM     30  H   UNL     1      34.930 -17.625 -21.254  0.00  0.00    -0.079 HD
ENDBRANCH  24  25
ENDBRANCH  18  24
ENDBRANCH   1  21
TORSDOF 4
ENDMDL
MODEL 7
REMARK VINA RESULT:     -10.6      3.157      4.282
REMARK  Name = 24808489
REMARK  4 active torsions:
REMARK  status: ('A' for Active; 'I' for Inactive)
REMARK    1  A    between atoms: N_1  and  C_10
REMARK    2  A    between atoms: N_1  and  C_21
REMARK    3  A    between atoms: C_18  and  C_24
REMARK    4  A    between atoms: C_24  and  N_25
REMARK                            x       y       z     vdW  Elec       q    Type
REMARK                         _______ _______ _______ _____ _____    ______ ____
ROOT
ATOM      1  N   UNL     1      34.657 -22.756 -17.711  0.00  0.00    -0.311 N 
ATOM      2  H   UNL     1      33.712 -23.027 -17.673  0.00  0.00    +0.152 HD
ENDROOT
BRANCH   1  10
ATOM      3 BR   UNL     1      40.111 -25.541 -14.476  0.00  0.00    -0.049 Br
ATOM      4  O   UNL     1      32.901 -22.959 -15.888  0.00  0.00    -0.270 OA
ATOM      5  O   UNL     1      33.858 -24.808 -11.798  0.00  0.00    -0.270 OA
ATOM      6  N   UNL     1      33.421 -23.890 -13.858  0.00  0.00    -0.248 N 
ATOM      7  C   UNL     1      35.151 -23.727 -15.551  0.00  0.00    +0.068 C 
ATOM      8  C   UNL     1      36.099 -24.358 -14.608  0.00  0.00    +0.010 C 
ATOM      9  C   UNL     1      35.651 -24.725 -13.327  0.00  0.00    +0.054 C 
ATOM     10  C   UNL     1      35.467 -23.336 -16.799  0.00  0.00    +0.066 C 
ATOM     11  C   UNL     1      33.731 -23.481 -15.147  0.00  0.00    +0.253 C 
ATOM     12  C   UNL     1      37.444 -24.615 -14.928  0.00  0.00    +0.007 C 
ATOM     13  C   UNL     1      34.250 -24.487 -12.916  0.00  0.00    +0.252 C 
ATOM     14  C   UNL     1      36.521 -25.326 -12.403  0.00  0.00    +0.005 C 
ATOM     15  C   UNL     1      38.309 -25.214 -14.006  0.00  0.00    +0.035 C 
ATOM     16  C   UNL     1      37.848 -25.569 -12.745  0.00  0.00    +0.007 C 
ATOM     17  H   UNL     1      32.492 -23.735 -13.573  0.00  0.00    +0.158 HD
ENDBRANCH   1  10
BRANCH   1  21
ATOM     18  C   UNL     1      35.624 -19.954 -20.683  0.00  0.00    -0.043 C 
ATOM     19  C   UNL     1      34.293 -20.320 -20.476  0.00  0.00    -0.005 C 
ATOM     20  C   UNL     1      36.632 -20.519 -19.903  0.00  0.00    -0.005 C 
ATOM     21  C   UNL     1      34.981 -21.817 -18.709  0.00  0.00    +0.048 C 
ATOM     22  C   UNL     1      33.973 -21.252 -19.489  0.00  0.00    +0.014 C 
ATOM     23  C   UNL     1      36.311 -21.450 -18.916  0.00  0.00    +0.014 C 
BRANCH  18  24
ATOM     24  C   UNL     1      35.966 -18.959 -21.740  0.00  0.00    -0.050 C 
BRANCH  24  25
ATOM     25  N   UNL     1      34.833 -18.648 -22.598  0.00  0.00    +0.390 N 
ATOM     26  C   UNL     1      35.011 -17.392 -23.326  0.00  0.00    -0.077 C 
ATOM     27  C   UNL     1      34.623 -19.660 -23.633  0.00  0.00    -0.077 C 
ATOM     28  C   UNL     1      33.944 -17.469 -24.408  0.00  0.00    -0.025 C 
ATOM     29  C   UNL     1      33.687 -18.960 -24.608  0.00  0.00    -0.025 C 
ATOM     30  H   UNL     1      34.042 -18.600 -21.955  0.00  0.00    -0.079 HD
ENDBRANCH  24  25
ENDBRANCH  18  24
ENDBRANCH   1  21
TORSDOF 4
ENDMDL
MODEL 8
REMARK VINA RESULT:     -10.3      8.011     13.787
REMARK  Name = 24808489
REMARK  4 active torsions:
REMARK  status: ('A' for Active; 'I' for Inactive)
REMARK    1  A    between atoms: N_1  and  C_10
REMARK    2  A    between atoms: N_1  and  C_21
REMARK    3  A    between atoms: C_18  and  C_24
REMARK    4  A    between atoms: C_24  and  N_25
REMARK                            x       y       z     vdW  Elec       q    Type
REMARK                         _______ _______ _______ _____ _____    ______ ____
ROOT
ATOM      1  N   UNL     1      32.636 -11.764 -22.777  0.00  0.00    -0.311 N 
ATOM      2  H   UNL     1      31.881 -11.764 -22.147  0.00  0.00    +0.152 HD
ENDROOT
BRANCH   1  10
ATOM      3 BR   UNL     1      35.176  -6.668 -26.720  0.00  0.00    -0.049 Br
ATOM      4  O   UNL     1      31.621 -10.406 -20.888  0.00  0.00    -0.270 OA
ATOM      5  O   UNL     1      31.830  -5.822 -20.813  0.00  0.00    -0.270 OA
ATOM      6  N   UNL     1      31.747  -8.117 -20.890  0.00  0.00    -0.248 N 
ATOM      7  C   UNL     1      32.739  -9.348 -22.730  0.00  0.00    +0.068 C 
ATOM      8  C   UNL     1      33.154  -8.063 -23.333  0.00  0.00    +0.010 C 
ATOM      9  C   UNL     1      32.841  -6.862 -22.673  0.00  0.00    +0.054 C 
ATOM     10  C   UNL     1      32.984 -10.555 -23.269  0.00  0.00    +0.066 C 
ATOM     11  C   UNL     1      31.991  -9.370 -21.433  0.00  0.00    +0.253 C 
ATOM     12  C   UNL     1      33.858  -7.976 -24.547  0.00  0.00    +0.007 C 
ATOM     13  C   UNL     1      32.103  -6.870 -21.390  0.00  0.00    +0.252 C 
ATOM     14  C   UNL     1      33.218  -5.621 -23.213  0.00  0.00    +0.005 C 
ATOM     15  C   UNL     1      34.232  -6.740 -25.084  0.00  0.00    +0.035 C 
ATOM     16  C   UNL     1      33.913  -5.564 -24.418  0.00  0.00    +0.007 C 
ATOM     17  H   UNL     1      31.255  -8.110 -20.037  0.00  0.00    +0.158 HD
ENDBRANCH   1  10
BRANCH   1  21
ATOM     18  C   UNL     1      34.338 -15.518 -23.571  0.00  0.00    -0.043 C 
ATOM     19  C   UNL     1      34.463 -14.949 -22.304  0.00  0.00    -0.005 C 
ATOM     20  C   UNL     1      33.648 -14.840 -24.575  0.00  0.00    -0.005 C 
ATOM     21  C   UNL     1      33.208 -13.023 -23.044  0.00  0.00    +0.048 C 
ATOM     22  C   UNL     1      33.898 -13.702 -22.040  0.00  0.00    +0.014 C 
ATOM     23  C   UNL     1      33.083 -13.592 -24.312  0.00  0.00    +0.014 C 
BRANCH  18  24
ATOM     24  C   UNL     1      34.944 -16.852 -23.853  0.00  0.00    -0.050 C 
BRANCH  24  25
ATOM     25  N   UNL     1      34.797 -17.774 -22.737  0.00  0.00    +0.390 N 
ATOM     26  C   UNL     1      34.394 -19.113 -23.168  0.00  0.00    -0.077 C 
ATOM     27  C   UNL     1      36.049 -17.971 -22.007  0.00  0.00    -0.077 C 
ATOM     28  C   UNL     1      34.681 -19.967 -21.943  0.00  0.00    -0.025 C 
ATOM     29  C   UNL     1      35.766 -19.216 -21.178  0.00  0.00    -0.025 C 
ATOM     30  H   UNL     1      34.084 -17.340 -22.150  0.00  0.00    -0.079 HD
ENDBRANCH  24  25
ENDBRANCH  18  24
ENDBRANCH   1  21
TORSDOF 4
ENDMDL
MODEL 9
REMARK VINA RESULT:     -10.3      3.417      4.950
REMARK  Name = 24808489
REMARK  4 active torsions:
REMARK  status: ('A' for Active; 'I' for Inactive)
REMARK    1  A    between atoms: N_1  and  C_10
REMARK    2  A    between atoms: N_1  and  C_21
REMARK    3  A    between atoms: C_18  and  C_24
REMARK    4  A    between atoms: C_24  and  N_25
REMARK                            x       y       z     vdW  Elec       q    Type
REMARK                         _______ _______ _______ _____ _____    ______ ____
ROOT
ATOM      1  N   UNL     1      33.912 -23.952 -16.534  0.00  0.00    -0.311 N 
ATOM      2  H   UNL     1      33.085 -24.425 -16.289  0.00  0.00    +0.152 HD
ENDROOT
BRANCH   1  10
ATOM      3 BR   UNL     1      40.300 -25.893 -14.694  0.00  0.00    -0.049 Br
ATOM      4  O   UNL     1      32.848 -23.682 -14.245  0.00  0.00    -0.270 OA
ATOM      5  O   UNL     1      35.188 -24.468 -10.376  0.00  0.00    -0.270 OA
ATOM      6  N   UNL     1      34.053 -24.085 -12.336  0.00  0.00    -0.248 N 
ATOM      7  C   UNL     1      35.137 -24.361 -14.489  0.00  0.00    +0.068 C 
ATOM      8  C   UNL     1      36.380 -24.746 -13.785  0.00  0.00    +0.010 C 
ATOM      9  C   UNL     1      36.391 -24.781 -12.381  0.00  0.00    +0.054 C 
ATOM     10  C   UNL     1      35.010 -24.295 -15.826  0.00  0.00    +0.066 C 
ATOM     11  C   UNL     1      33.906 -24.011 -13.714  0.00  0.00    +0.253 C 
ATOM     12  C   UNL     1      37.568 -25.086 -14.456  0.00  0.00    +0.007 C 
ATOM     13  C   UNL     1      35.180 -24.438 -11.603  0.00  0.00    +0.252 C 
ATOM     14  C   UNL     1      37.551 -25.142 -11.676  0.00  0.00    +0.005 C 
ATOM     15  C   UNL     1      38.723 -25.445 -13.753  0.00  0.00    +0.035 C 
ATOM     16  C   UNL     1      38.714 -25.473 -12.364  0.00  0.00    +0.007 C 
ATOM     17  H   UNL     1      33.254 -23.857 -11.809  0.00  0.00    +0.158 HD
ENDBRANCH   1  10
BRANCH   1  21
ATOM     18  C   UNL     1      33.550 -21.142 -19.632  0.00  0.00    -0.043 C 
ATOM     19  C   UNL     1      32.420 -21.548 -18.922  0.00  0.00    -0.005 C 
ATOM     20  C   UNL     1      34.801 -21.670 -19.312  0.00  0.00    -0.005 C 
ATOM     21  C   UNL     1      33.791 -23.010 -17.574  0.00  0.00    +0.048 C 
ATOM     22  C   UNL     1      32.540 -22.482 -17.893  0.00  0.00    +0.014 C 
ATOM     23  C   UNL     1      34.922 -22.604 -18.283  0.00  0.00    +0.014 C 
BRANCH  18  24
ATOM     24  C   UNL     1      33.421 -20.144 -20.732  0.00  0.00    -0.050 C 
BRANCH  24  25
ATOM     25  N   UNL     1      34.690 -19.879 -21.393  0.00  0.00    +0.390 N 
ATOM     26  C   UNL     1      34.538 -19.676 -22.834  0.00  0.00    -0.077 C 
ATOM     27  C   UNL     1      35.331 -18.659 -20.903  0.00  0.00    -0.077 C 
ATOM     28  C   UNL     1      35.865 -19.047 -23.232  0.00  0.00    -0.025 C 
ATOM     29  C   UNL     1      36.388 -18.381 -21.962  0.00  0.00    -0.025 C 
ATOM     30  H   UNL     1      35.252 -20.706 -21.189  0.00  0.00    -0.079 HD
ENDBRANCH  24  25
ENDBRANCH  18  24
ENDBRANCH   1  21
TORSDOF 4
ENDMDL
