MODEL 1
REMARK VINA RESULT:     -11.5      0.000      0.000
REMARK  Name = 24894149
REMARK  3 active torsions:
REMARK  status: ('A' for Active; 'I' for Inactive)
REMARK    1  A    between atoms: C_15  and  C_23
REMARK    2  A    between atoms: C_28  and  C_29
REMARK    3  A    between atoms: C_29  and  N_30
REMARK                            x       y       z     vdW  Elec       q    Type
REMARK                         _______ _______ _______ _____ _____    ______ ____
ROOT
ATOM      1  F   UNL     1      31.335  -7.774 -22.796  0.00  0.00    -0.204 F 
ATOM      2  O   UNL     1      33.801 -16.634 -25.558  0.00  0.00    -0.270 OA
ATOM      3  N   UNL     1      33.488 -15.006 -23.908  0.00  0.00    -0.276 N 
ATOM      4  N   UNL     1      34.790 -11.069 -23.445  0.00  0.00    -0.318 N 
ATOM      5  N   UNL     1      32.468 -11.810 -22.868  0.00  0.00    -0.242 NA
ATOM      6  N   UNL     1      30.840 -10.290 -22.282  0.00  0.00    -0.343 N 
ATOM      7  C   UNL     1      33.809 -12.139 -23.377  0.00  0.00    +0.145 C 
ATOM      8  C   UNL     1      33.639 -12.717 -24.804  0.00  0.00    +0.063 C 
ATOM      9  C   UNL     1      34.388 -13.234 -22.448  0.00  0.00    +0.063 C 
ATOM     10  C   UNL     1      32.876 -14.041 -24.819  0.00  0.00    +0.097 C 
ATOM     11  C   UNL     1      33.612 -14.550 -22.519  0.00  0.00    +0.097 C 
ATOM     12  C   UNL     1      34.351  -9.758 -23.420  0.00  0.00    +0.051 C 
ATOM     13  C   UNL     1      32.104 -10.570 -22.750  0.00  0.00    +0.125 C 
ATOM     14  C   UNL     1      33.025  -9.444 -23.096  0.00  0.00    +0.071 C 
ATOM     15  C   UNL     1      33.903 -16.247 -24.395  0.00  0.00    +0.249 C 
ATOM     16  C   UNL     1      35.247  -8.715 -23.697  0.00  0.00    +0.015 C 
ATOM     17  C   UNL     1      32.601  -8.108 -23.085  0.00  0.00    +0.144 C 
ATOM     18  C   UNL     1      34.826  -7.386 -23.678  0.00  0.00    +0.004 C 
ATOM     19  C   UNL     1      33.502  -7.084 -23.378  0.00  0.00    +0.030 C 
ATOM     20  H   UNL     1      35.751 -11.274 -23.507  0.00  0.00    +0.148 HD
ATOM     21  H   UNL     1      30.225 -11.023 -22.052  0.00  0.00    +0.144 HD
ATOM     22  H   UNL     1      30.550  -9.354 -22.177  0.00  0.00    +0.144 HD
ENDROOT
BRANCH  15  23
ATOM     23  C   UNL     1      34.515 -17.191 -23.452  0.00  0.00    +0.054 C 
ATOM     24  C   UNL     1      35.221 -16.713 -22.347  0.00  0.00    +0.004 C 
ATOM     25  C   UNL     1      34.390 -18.565 -23.659  0.00  0.00    +0.004 C 
ATOM     26  C   UNL     1      35.803 -17.610 -21.451  0.00  0.00    -0.006 C 
ATOM     27  C   UNL     1      34.971 -19.461 -22.763  0.00  0.00    -0.006 C 
ATOM     28  C   UNL     1      35.677 -18.984 -21.658  0.00  0.00    -0.044 C 
BRANCH  28  29
ATOM     29  C   UNL     1      36.298 -19.943 -20.701  0.00  0.00    -0.059 C 
BRANCH  29  30
ATOM     30  N   UNL     1      35.302 -20.678 -19.921  0.00  0.00    +0.383 N 
ATOM     31  H   UNL     1      35.457 -20.512 -18.927  0.00  0.00    -0.089 HD
ATOM     32  H   UNL     1      35.386 -21.676 -20.116  0.00  0.00    -0.089 HD
ATOM     33  H   UNL     1      34.367 -20.361 -20.178  0.00  0.00    -0.089 HD
ENDBRANCH  29  30
ENDBRANCH  28  29
ENDBRANCH  15  23
TORSDOF 3
ENDMDL
MODEL 2
REMARK VINA RESULT:     -11.0      8.013     13.950
REMARK  Name = 24894149
REMARK  3 active torsions:
REMARK  status: ('A' for Active; 'I' for Inactive)
REMARK    1  A    between atoms: C_15  and  C_23
REMARK    2  A    between atoms: C_28  and  C_29
REMARK    3  A    between atoms: C_29  and  N_30
REMARK                            x       y       z     vdW  Elec       q    Type
REMARK                         _______ _______ _______ _____ _____    ______ ____
ROOT
ATOM      1  F   UNL     1      37.087 -27.234 -12.237  0.00  0.00    -0.204 F 
ATOM      2  O   UNL     1      32.335 -22.062 -18.785  0.00  0.00    -0.270 OA
ATOM      3  N   UNL     1      34.321 -22.840 -17.824  0.00  0.00    -0.276 N 
ATOM      4  N   UNL     1      35.817 -22.906 -13.929  0.00  0.00    -0.318 N 
ATOM      5  N   UNL     1      36.069 -24.827 -15.516  0.00  0.00    -0.242 NA
ATOM      6  N   UNL     1      36.931 -26.846 -14.819  0.00  0.00    -0.343 N 
ATOM      7  C   UNL     1      35.565 -23.473 -15.244  0.00  0.00    +0.145 C 
ATOM      8  C   UNL     1      34.032 -23.490 -15.466  0.00  0.00    +0.063 C 
ATOM      9  C   UNL     1      36.221 -22.530 -16.282  0.00  0.00    +0.063 C 
ATOM     10  C   UNL     1      33.649 -23.770 -16.918  0.00  0.00    +0.097 C 
ATOM     11  C   UNL     1      35.784 -22.825 -17.718  0.00  0.00    +0.097 C 
ATOM     12  C   UNL     1      36.145 -23.755 -12.889  0.00  0.00    +0.051 C 
ATOM     13  C   UNL     1      36.474 -25.579 -14.538  0.00  0.00    +0.125 C 
ATOM     14  C   UNL     1      36.468 -25.097 -13.123  0.00  0.00    +0.071 C 
ATOM     15  C   UNL     1      33.562 -22.053 -18.693  0.00  0.00    +0.249 C 
ATOM     16  C   UNL     1      36.183 -23.267 -11.573  0.00  0.00    +0.015 C 
ATOM     17  C   UNL     1      36.790 -25.941 -12.050  0.00  0.00    +0.144 C 
ATOM     18  C   UNL     1      36.510 -24.105 -10.509  0.00  0.00    +0.004 C 
ATOM     19  C   UNL     1      36.808 -25.443 -10.747  0.00  0.00    +0.030 C 
ATOM     20  H   UNL     1      35.755 -21.935 -13.782  0.00  0.00    +0.148 HD
ATOM     21  H   UNL     1      36.939 -27.174 -15.747  0.00  0.00    +0.144 HD
ATOM     22  H   UNL     1      37.251 -27.427 -14.090  0.00  0.00    +0.144 HD
ENDROOT
BRANCH  15  23
ATOM     23  C   UNL     1      34.270 -21.129 -19.586  0.00  0.00    +0.054 C 
ATOM     24  C   UNL     1      33.552 -20.342 -20.487  0.00  0.00    +0.004 C 
ATOM     25  C   UNL     1      35.661 -21.036 -19.534  0.00  0.00    +0.004 C 
ATOM     26  C   UNL     1      34.225 -19.463 -21.336  0.00  0.00    -0.006 C 
ATOM     27  C   UNL     1      36.334 -20.157 -20.382  0.00  0.00    -0.006 C 
ATOM     28  C   UNL     1      35.616 -19.370 -21.283  0.00  0.00    -0.044 C 
BRANCH  28  29
ATOM     29  C   UNL     1      36.336 -18.432 -22.190  0.00  0.00    -0.059 C 
BRANCH  29  30
ATOM     30  N   UNL     1      35.475 -17.354 -22.677  0.00  0.00    +0.383 N 
ATOM     31  H   UNL     1      35.137 -17.584 -23.611  0.00  0.00    -0.089 HD
ATOM     32  H   UNL     1      36.006 -16.484 -22.712  0.00  0.00    -0.089 HD
ATOM     33  H   UNL     1      34.681 -17.241 -22.046  0.00  0.00    -0.089 HD
ENDBRANCH  29  30
ENDBRANCH  28  29
ENDBRANCH  15  23
TORSDOF 3
ENDMDL
MODEL 3
REMARK VINA RESULT:     -10.0      3.545      9.369
REMARK  Name = 24894149
REMARK  3 active torsions:
REMARK  status: ('A' for Active; 'I' for Inactive)
REMARK    1  A    between atoms: C_15  and  C_23
REMARK    2  A    between atoms: C_28  and  C_29
REMARK    3  A    between atoms: C_29  and  N_30
REMARK                            x       y       z     vdW  Elec       q    Type
REMARK                         _______ _______ _______ _____ _____    ______ ____
ROOT
ATOM      1  F   UNL     1      37.396 -21.928 -19.647  0.00  0.00    -0.204 F 
ATOM      2  O   UNL     1      33.633 -15.359 -25.555  0.00  0.00    -0.270 OA
ATOM      3  N   UNL     1      34.533 -15.995 -23.491  0.00  0.00    -0.276 N 
ATOM      4  N   UNL     1      33.694 -19.066 -20.794  0.00  0.00    -0.318 N 
ATOM      5  N   UNL     1      36.027 -18.356 -21.363  0.00  0.00    -0.242 NA
ATOM      6  N   UNL     1      37.853 -19.540 -20.609  0.00  0.00    -0.343 N 
ATOM      7  C   UNL     1      34.577 -18.195 -21.551  0.00  0.00    +0.145 C 
ATOM      8  C   UNL     1      34.273 -18.405 -23.055  0.00  0.00    +0.063 C 
ATOM      9  C   UNL     1      34.230 -16.738 -21.159  0.00  0.00    +0.063 C 
ATOM     10  C   UNL     1      34.907 -17.334 -23.942  0.00  0.00    +0.097 C 
ATOM     11  C   UNL     1      34.860 -15.701 -22.091  0.00  0.00    +0.097 C 
ATOM     12  C   UNL     1      34.207 -20.232 -20.256  0.00  0.00    +0.051 C 
ATOM     13  C   UNL     1      36.492 -19.408 -20.762  0.00  0.00    +0.125 C 
ATOM     14  C   UNL     1      35.587 -20.468 -20.223  0.00  0.00    +0.071 C 
ATOM     15  C   UNL     1      33.909 -15.117 -24.381  0.00  0.00    +0.249 C 
ATOM     16  C   UNL     1      33.340 -21.190 -19.708  0.00  0.00    +0.015 C 
ATOM     17  C   UNL     1      36.082 -21.662 -19.679  0.00  0.00    +0.144 C 
ATOM     18  C   UNL     1      33.835 -22.373 -19.162  0.00  0.00    +0.004 C 
ATOM     19  C   UNL     1      35.205 -22.611 -19.153  0.00  0.00    +0.030 C 
ATOM     20  H   UNL     1      32.747 -18.830 -20.665  0.00  0.00    +0.148 HD
ATOM     21  H   UNL     1      38.459 -18.848 -20.961  0.00  0.00    +0.144 HD
ATOM     22  H   UNL     1      38.223 -20.328 -20.147  0.00  0.00    +0.144 HD
ENDROOT
BRANCH  15  23
ATOM     23  C   UNL     1      33.545 -13.782 -23.893  0.00  0.00    +0.054 C 
ATOM     24  C   UNL     1      32.462 -13.627 -23.027  0.00  0.00    +0.004 C 
ATOM     25  C   UNL     1      34.283 -12.667 -24.294  0.00  0.00    +0.004 C 
ATOM     26  C   UNL     1      32.117 -12.357 -22.564  0.00  0.00    -0.006 C 
ATOM     27  C   UNL     1      33.937 -11.398 -23.830  0.00  0.00    -0.006 C 
ATOM     28  C   UNL     1      32.854 -11.243 -22.964  0.00  0.00    -0.044 C 
BRANCH  28  29
ATOM     29  C   UNL     1      32.485  -9.886 -22.469  0.00  0.00    -0.059 C 
BRANCH  29  30
ATOM     30  N   UNL     1      31.737  -9.934 -21.212  0.00  0.00    +0.383 N 
ATOM     31  H   UNL     1      32.355  -9.686 -20.439  0.00  0.00    -0.089 HD
ATOM     32  H   UNL     1      31.374 -10.876 -21.069  0.00  0.00    -0.089 HD
ATOM     33  H   UNL     1      30.961  -9.274 -21.253  0.00  0.00    -0.089 HD
ENDBRANCH  29  30
ENDBRANCH  28  29
ENDBRANCH  15  23
TORSDOF 3
ENDMDL
MODEL 4
REMARK VINA RESULT:      -9.7      5.444      8.774
REMARK  Name = 24894149
REMARK  3 active torsions:
REMARK  status: ('A' for Active; 'I' for Inactive)
REMARK    1  A    between atoms: C_15  and  C_23
REMARK    2  A    between atoms: C_28  and  C_29
REMARK    3  A    between atoms: C_29  and  N_30
REMARK                            x       y       z     vdW  Elec       q    Type
REMARK                         _______ _______ _______ _____ _____    ______ ____
ROOT
ATOM      1  F   UNL     1      34.851 -17.828 -25.539  0.00  0.00    -0.204 F 
ATOM      2  O   UNL     1      37.071 -22.523 -17.461  0.00  0.00    -0.270 OA
ATOM      3  N   UNL     1      35.522 -21.777 -19.048  0.00  0.00    -0.276 N 
ATOM      4  N   UNL     1      34.668 -18.055 -20.730  0.00  0.00    -0.318 N 
ATOM      5  N   UNL     1      34.713 -20.173 -22.066  0.00  0.00    -0.242 NA
ATOM      6  N   UNL     1      34.528 -20.141 -24.361  0.00  0.00    -0.343 N 
ATOM      7  C   UNL     1      34.872 -19.494 -20.771  0.00  0.00    +0.145 C 
ATOM      8  C   UNL     1      36.306 -19.783 -20.263  0.00  0.00    +0.063 C 
ATOM      9  C   UNL     1      33.848 -20.129 -19.799  0.00  0.00    +0.063 C 
ATOM     10  C   UNL     1      36.539 -21.264 -19.963  0.00  0.00    +0.097 C 
ATOM     11  C   UNL     1      34.138 -21.602 -19.503  0.00  0.00    +0.097 C 
ATOM     12  C   UNL     1      34.730 -17.339 -21.910  0.00  0.00    +0.051 C 
ATOM     13  C   UNL     1      34.667 -19.481 -23.162  0.00  0.00    +0.125 C 
ATOM     14  C   UNL     1      34.746 -17.987 -23.152  0.00  0.00    +0.071 C 
ATOM     15  C   UNL     1      35.912 -22.374 -17.847  0.00  0.00    +0.249 C 
ATOM     16  C   UNL     1      34.750 -15.936 -21.877  0.00  0.00    +0.015 C 
ATOM     17  C   UNL     1      34.817 -17.239 -24.335  0.00  0.00    +0.144 C 
ATOM     18  C   UNL     1      34.814 -15.193 -23.055  0.00  0.00    +0.004 C 
ATOM     19  C   UNL     1      34.852 -15.845 -24.283  0.00  0.00    +0.030 C 
ATOM     20  H   UNL     1      34.489 -17.599 -19.876  0.00  0.00    +0.148 HD
ATOM     21  H   UNL     1      34.476 -21.124 -24.380  0.00  0.00    +0.144 HD
ATOM     22  H   UNL     1      34.482 -19.630 -25.203  0.00  0.00    +0.144 HD
ENDROOT
BRANCH  15  23
ATOM     23  C   UNL     1      34.863 -22.876 -16.951  0.00  0.00    +0.054 C 
ATOM     24  C   UNL     1      35.138 -23.073 -15.598  0.00  0.00    +0.004 C 
ATOM     25  C   UNL     1      33.592 -23.156 -17.453  0.00  0.00    +0.004 C 
ATOM     26  C   UNL     1      34.140 -23.550 -14.747  0.00  0.00    -0.006 C 
ATOM     27  C   UNL     1      32.595 -23.632 -16.602  0.00  0.00    -0.006 C 
ATOM     28  C   UNL     1      32.870 -23.829 -15.248  0.00  0.00    -0.044 C 
BRANCH  28  29
ATOM     29  C   UNL     1      31.804 -24.339 -14.340  0.00  0.00    -0.059 C 
BRANCH  29  30
ATOM     30  N   UNL     1      32.302 -25.347 -13.404  0.00  0.00    +0.383 N 
ATOM     31  H   UNL     1      31.638 -26.119 -13.348  0.00  0.00    -0.089 HD
ATOM     32  H   UNL     1      32.414 -24.928 -12.481  0.00  0.00    -0.089 HD
ATOM     33  H   UNL     1      33.204 -25.697 -13.729  0.00  0.00    -0.089 HD
ENDBRANCH  29  30
ENDBRANCH  28  29
ENDBRANCH  15  23
TORSDOF 3
ENDMDL
MODEL 5
REMARK VINA RESULT:      -9.4      5.043     10.462
REMARK  Name = 24894149
REMARK  3 active torsions:
REMARK  status: ('A' for Active; 'I' for Inactive)
REMARK    1  A    between atoms: C_15  and  C_23
REMARK    2  A    between atoms: C_28  and  C_29
REMARK    3  A    between atoms: C_29  and  N_30
REMARK                            x       y       z     vdW  Elec       q    Type
REMARK                         _______ _______ _______ _____ _____    ______ ____
ROOT
ATOM      1  F   UNL     1      31.896 -10.943 -18.568  0.00  0.00    -0.204 F 
ATOM      2  O   UNL     1      35.820  -5.423 -25.375  0.00  0.00    -0.270 OA
ATOM      3  N   UNL     1      33.976  -6.182 -24.151  0.00  0.00    -0.276 N 
ATOM      4  N   UNL     1      32.460  -9.964 -23.251  0.00  0.00    -0.318 N 
ATOM      5  N   UNL     1      32.548  -8.100 -21.580  0.00  0.00    -0.242 NA
ATOM      6  N   UNL     1      32.020  -8.456 -19.366  0.00  0.00    -0.343 N 
ATOM      7  C   UNL     1      32.819  -8.590 -22.940  0.00  0.00    +0.145 C 
ATOM      8  C   UNL     1      34.337  -8.426 -23.203  0.00  0.00    +0.063 C 
ATOM      9  C   UNL     1      32.031  -7.680 -23.914  0.00  0.00    +0.063 C 
ATOM     10  C   UNL     1      34.780  -6.964 -23.214  0.00  0.00    +0.097 C 
ATOM     11  C   UNL     1      32.529  -6.233 -23.915  0.00  0.00    +0.097 C 
ATOM     12  C   UNL     1      32.263 -10.853 -22.212  0.00  0.00    +0.051 C 
ATOM     13  C   UNL     1      32.259  -8.939 -20.633  0.00  0.00    +0.125 C 
ATOM     14  C   UNL     1      32.167 -10.410 -20.886  0.00  0.00    +0.071 C 
ATOM     15  C   UNL     1      34.607  -5.469 -25.173  0.00  0.00    +0.249 C 
ATOM     16  C   UNL     1      32.127 -12.224 -22.480  0.00  0.00    +0.015 C 
ATOM     17  C   UNL     1      31.975 -11.332 -19.848  0.00  0.00    +0.144 C 
ATOM     18  C   UNL     1      31.928 -13.139 -21.447  0.00  0.00    +0.004 C 
ATOM     19  C   UNL     1      31.857 -12.693 -20.132  0.00  0.00    +0.030 C 
ATOM     20  H   UNL     1      32.360 -10.256 -24.186  0.00  0.00    +0.148 HD
ATOM     21  H   UNL     1      32.078  -7.490 -19.188  0.00  0.00    +0.144 HD
ATOM     22  H   UNL     1      31.791  -9.078 -18.637  0.00  0.00    +0.144 HD
ENDROOT
BRANCH  15  23
ATOM     23  C   UNL     1      33.768  -4.697 -26.098  0.00  0.00    +0.054 C 
ATOM     24  C   UNL     1      33.721  -5.040 -27.449  0.00  0.00    +0.004 C 
ATOM     25  C   UNL     1      33.017  -3.621 -25.625  0.00  0.00    +0.004 C 
ATOM     26  C   UNL     1      32.924  -4.307 -28.328  0.00  0.00    -0.006 C 
ATOM     27  C   UNL     1      32.219  -2.888 -26.503  0.00  0.00    -0.006 C 
ATOM     28  C   UNL     1      32.172  -3.231 -27.855  0.00  0.00    -0.044 C 
BRANCH  28  29
ATOM     29  C   UNL     1      31.320  -2.447 -28.793  0.00  0.00    -0.059 C 
BRANCH  29  30
ATOM     30  N   UNL     1      30.978  -3.199 -30.000  0.00  0.00    +0.383 N 
ATOM     31  H   UNL     1      31.541  -2.863 -30.781  0.00  0.00    -0.089 HD
ATOM     32  H   UNL     1      29.989  -3.069 -30.213  0.00  0.00    -0.089 HD
ATOM     33  H   UNL     1      31.165  -4.190 -29.847  0.00  0.00    -0.089 HD
ENDBRANCH  29  30
ENDBRANCH  28  29
ENDBRANCH  15  23
TORSDOF 3
ENDMDL
MODEL 6
REMARK VINA RESULT:      -9.2      3.197      8.774
REMARK  Name = 24894149
REMARK  3 active torsions:
REMARK  status: ('A' for Active; 'I' for Inactive)
REMARK    1  A    between atoms: C_15  and  C_23
REMARK    2  A    between atoms: C_28  and  C_29
REMARK    3  A    between atoms: C_29  and  N_30
REMARK                            x       y       z     vdW  Elec       q    Type
REMARK                         _______ _______ _______ _____ _____    ______ ____
ROOT
ATOM      1  F   UNL     1      33.946 -18.877 -24.542  0.00  0.00    -0.204 F 
ATOM      2  O   UNL     1      30.843 -10.252 -21.678  0.00  0.00    -0.270 OA
ATOM      3  N   UNL     1      32.213 -11.611 -23.002  0.00  0.00    -0.276 N 
ATOM      4  N   UNL     1      34.815 -14.767 -22.182  0.00  0.00    -0.318 N 
ATOM      5  N   UNL     1      33.266 -14.758 -24.150  0.00  0.00    -0.242 NA
ATOM      6  N   UNL     1      33.017 -16.620 -25.483  0.00  0.00    -0.343 N 
ATOM      7  C   UNL     1      33.783 -14.087 -22.948  0.00  0.00    +0.145 C 
ATOM      8  C   UNL     1      32.584 -13.830 -22.002  0.00  0.00    +0.063 C 
ATOM      9  C   UNL     1      34.372 -12.730 -23.406  0.00  0.00    +0.063 C 
ATOM     10  C   UNL     1      31.566 -12.855 -22.590  0.00  0.00    +0.097 C 
ATOM     11  C   UNL     1      33.313 -11.774 -23.958  0.00  0.00    +0.097 C 
ATOM     12  C   UNL     1      34.987 -16.128 -22.356  0.00  0.00    +0.051 C 
ATOM     13  C   UNL     1      33.522 -16.013 -24.355  0.00  0.00    +0.125 C 
ATOM     14  C   UNL     1      34.361 -16.809 -23.407  0.00  0.00    +0.071 C 
ATOM     15  C   UNL     1      31.765 -10.395 -22.480  0.00  0.00    +0.249 C 
ATOM     16  C   UNL     1      35.821 -16.844 -21.484  0.00  0.00    +0.015 C 
ATOM     17  C   UNL     1      34.544 -18.191 -23.557  0.00  0.00    +0.144 C 
ATOM     18  C   UNL     1      36.007 -18.217 -21.639  0.00  0.00    +0.004 C 
ATOM     19  C   UNL     1      35.364 -18.891 -22.672  0.00  0.00    +0.030 C 
ATOM     20  H   UNL     1      35.382 -14.267 -21.552  0.00  0.00    +0.148 HD
ATOM     21  H   UNL     1      32.462 -16.106 -26.113  0.00  0.00    +0.144 HD
ATOM     22  H   UNL     1      33.209 -17.571 -25.659  0.00  0.00    +0.144 HD
ENDROOT
BRANCH  15  23
ATOM     23  C   UNL     1      32.440  -9.166 -22.914  0.00  0.00    +0.054 C 
ATOM     24  C   UNL     1      33.457  -8.615 -22.134  0.00  0.00    +0.004 C 
ATOM     25  C   UNL     1      32.065  -8.548 -24.108  0.00  0.00    +0.004 C 
ATOM     26  C   UNL     1      34.098  -7.447 -22.547  0.00  0.00    -0.006 C 
ATOM     27  C   UNL     1      32.707  -7.381 -24.521  0.00  0.00    -0.006 C 
ATOM     28  C   UNL     1      33.724  -6.831 -23.741  0.00  0.00    -0.044 C 
BRANCH  28  29
ATOM     29  C   UNL     1      34.408  -5.583 -24.183  0.00  0.00    -0.059 C 
BRANCH  29  30
ATOM     30  N   UNL     1      35.250  -5.795 -25.361  0.00  0.00    +0.383 N 
ATOM     31  H   UNL     1      36.111  -6.265 -25.084  0.00  0.00    -0.089 HD
ATOM     32  H   UNL     1      35.476  -4.894 -25.784  0.00  0.00    -0.089 HD
ATOM     33  H   UNL     1      34.750  -6.371 -26.038  0.00  0.00    -0.089 HD
ENDBRANCH  29  30
ENDBRANCH  28  29
ENDBRANCH  15  23
TORSDOF 3
ENDMDL
MODEL 7
REMARK VINA RESULT:      -8.7      6.022      9.670
REMARK  Name = 24894149
REMARK  3 active torsions:
REMARK  status: ('A' for Active; 'I' for Inactive)
REMARK    1  A    between atoms: C_15  and  C_23
REMARK    2  A    between atoms: C_28  and  C_29
REMARK    3  A    between atoms: C_29  and  N_30
REMARK                            x       y       z     vdW  Elec       q    Type
REMARK                         _______ _______ _______ _____ _____    ______ ____
ROOT
ATOM      1  F   UNL     1      31.179 -11.483 -20.786  0.00  0.00    -0.204 F 
ATOM      2  O   UNL     1      33.522  -4.965 -27.437  0.00  0.00    -0.270 OA
ATOM      3  N   UNL     1      34.080  -6.705 -25.975  0.00  0.00    -0.276 N 
ATOM      4  N   UNL     1      33.442  -7.380 -21.907  0.00  0.00    -0.318 N 
ATOM      5  N   UNL     1      33.213  -9.177 -23.637  0.00  0.00    -0.242 NA
ATOM      6  N   UNL     1      32.387 -11.258 -23.095  0.00  0.00    -0.343 N 
ATOM      7  C   UNL     1      33.505  -7.774 -23.305  0.00  0.00    +0.145 C 
ATOM      8  C   UNL     1      32.504  -6.890 -24.091  0.00  0.00    +0.063 C 
ATOM      9  C   UNL     1      34.942  -7.482 -23.800  0.00  0.00    +0.063 C 
ATOM     10  C   UNL     1      32.694  -6.985 -25.604  0.00  0.00    +0.097 C 
ATOM     11  C   UNL     1      35.078  -7.558 -25.322  0.00  0.00    +0.097 C 
ATOM     12  C   UNL     1      32.753  -8.183 -21.018  0.00  0.00    +0.051 C 
ATOM     13  C   UNL     1      32.659  -9.952 -22.756  0.00  0.00    +0.125 C 
ATOM     14  C   UNL     1      32.324  -9.466 -21.382  0.00  0.00    +0.071 C 
ATOM     15  C   UNL     1      34.356  -5.683 -26.886  0.00  0.00    +0.249 C 
ATOM     16  C   UNL     1      32.495  -7.725 -19.717  0.00  0.00    +0.015 C 
ATOM     17  C   UNL     1      31.619 -10.258 -20.465  0.00  0.00    +0.144 C 
ATOM     18  C   UNL     1      31.800  -8.517 -18.804  0.00  0.00    +0.004 C 
ATOM     19  C   UNL     1      31.358  -9.781 -19.180  0.00  0.00    +0.030 C 
ATOM     20  H   UNL     1      33.884  -6.556 -21.600  0.00  0.00    +0.148 HD
ATOM     21  H   UNL     1      32.603 -11.589 -23.996  0.00  0.00    +0.144 HD
ATOM     22  H   UNL     1      31.975 -11.863 -22.435  0.00  0.00    +0.144 HD
ENDROOT
BRANCH  15  23
ATOM     23  C   UNL     1      35.759  -5.427 -27.234  0.00  0.00    +0.054 C 
ATOM     24  C   UNL     1      36.361  -6.140 -28.272  0.00  0.00    +0.004 C 
ATOM     25  C   UNL     1      36.491  -4.472 -26.528  0.00  0.00    +0.004 C 
ATOM     26  C   UNL     1      37.694  -5.897 -28.602  0.00  0.00    -0.006 C 
ATOM     27  C   UNL     1      37.823  -4.228 -26.860  0.00  0.00    -0.006 C 
ATOM     28  C   UNL     1      38.425  -4.941 -27.897  0.00  0.00    -0.044 C 
BRANCH  28  29
ATOM     29  C   UNL     1      39.850  -4.680 -28.250  0.00  0.00    -0.059 C 
BRANCH  29  30
ATOM     30  N   UNL     1      40.780  -5.261 -27.281  0.00  0.00    +0.383 N 
ATOM     31  H   UNL     1      41.553  -4.614 -27.122  0.00  0.00    -0.089 HD
ATOM     32  H   UNL     1      41.143  -6.142 -27.644  0.00  0.00    -0.089 HD
ATOM     33  H   UNL     1      40.292  -5.431 -26.401  0.00  0.00    -0.089 HD
ENDBRANCH  29  30
ENDBRANCH  28  29
ENDBRANCH  15  23
TORSDOF 3
ENDMDL
