MODEL 1
REMARK VINA RESULT:     -11.7      0.000      0.000
REMARK  Name = 447994
REMARK  10 active torsions:
REMARK  status: ('A' for Active; 'I' for Inactive)
REMARK    1  A    between atoms: C_2  and  C_10
REMARK    2  A    between atoms: C_3  and  C_17
REMARK    3  A    between atoms: C_12  and  C_14
REMARK    4  A    between atoms: C_14  and  O_15
REMARK    5  A    between atoms: C_18  and  C_19
REMARK    6  A    between atoms: C_19  and  O_20
REMARK    7  A    between atoms: O_20  and  C_21
REMARK    8  A    between atoms: C_22  and  C_30
REMARK    9  A    between atoms: C_23  and  O_27
REMARK   10  A    between atoms: C_30  and  O_31
REMARK                            x       y       z     vdW  Elec       q    Type
REMARK                         _______ _______ _______ _____ _____    ______ ____
ROOT
ATOM      1  F   UNL     1      37.658 -18.569 -21.758  0.00  0.00    -0.204 F 
ATOM      2  C   UNL     1      35.413 -19.314 -21.509  0.00  0.00    +0.065 C 
ATOM      3  C   UNL     1      34.914 -20.992 -19.844  0.00  0.00    +0.000 C 
ATOM      4  C   UNL     1      34.492 -20.134 -20.860  0.00  0.00    +0.005 C 
ATOM      5  C   UNL     1      36.759 -19.351 -21.144  0.00  0.00    +0.143 C 
ATOM      6  C   UNL     1      36.260 -21.029 -19.479  0.00  0.00    +0.002 C 
ATOM      7  C   UNL     1      37.183 -20.209 -20.129  0.00  0.00    +0.030 C 
ENDROOT
BRANCH   2  10
ATOM      8  O   UNL     1      34.537 -19.037 -23.686  0.00  0.00    -0.353 OA
ATOM      9  N   UNL     1      34.146 -18.067 -24.601  0.00  0.00    -0.070 NA
ATOM     10  C   UNL     1      34.972 -18.428 -22.558  0.00  0.00    +0.179 C 
ATOM     11  C   UNL     1      34.883 -17.073 -22.690  0.00  0.00    +0.069 C 
ATOM     12  C   UNL     1      34.361 -16.902 -23.984  0.00  0.00    +0.198 C 
BRANCH  12  14
ATOM     13  O   UNL     1      33.641 -15.574 -25.817  0.00  0.00    -0.243 OA
ATOM     14  C   UNL     1      34.060 -15.671 -24.653  0.00  0.00    +0.359 C 
BRANCH  14  15
ATOM     15  O   UNL     1      34.269 -14.538 -23.906  0.00  0.00    -0.476 OA
ATOM     16  H   UNL     1      33.543 -14.001 -23.655  0.00  0.00    +0.295 HD
ENDBRANCH  14  15
ENDBRANCH  12  14
ENDBRANCH   2  10
BRANCH   3  17
ATOM     17  C   UNL     1      33.953 -21.848 -19.166  0.00  0.00    -0.001 C 
ATOM     18  C   UNL     1      34.225 -22.690 -18.144  0.00  0.00    +0.021 C 
BRANCH  18  19
ATOM     19  C   UNL     1      33.198 -23.541 -17.468  0.00  0.00    +0.232 C 
BRANCH  19  20
ATOM     20  O   UNL     1      33.057 -23.104 -16.124  0.00  0.00    -0.470 OA
BRANCH  20  21
ATOM     21  C   UNL     1      32.088 -23.716 -15.372  0.00  0.00    +0.148 C 
ATOM     22  C   UNL     1      32.425 -24.460 -14.248  0.00  0.00    +0.143 C 
ATOM     23  C   UNL     1      31.424 -25.074 -13.497  0.00  0.00    +0.143 C 
ATOM     24  C   UNL     1      30.757 -23.578 -15.755  0.00  0.00    +0.037 C 
ATOM     25  C   UNL     1      30.088 -24.939 -13.874  0.00  0.00    +0.037 C 
ATOM     26  C   UNL     1      29.755 -24.191 -15.004  0.00  0.00    +0.006 C 
BRANCH  23  27
ATOM     27  O   UNL     1      31.727 -25.808 -12.389  0.00  0.00    -0.505 OA
ATOM     28  H   UNL     1      31.046 -26.239 -11.912  0.00  0.00    +0.292 HD
ENDBRANCH  23  27
BRANCH  22  30
ATOM     29  O   UNL     1      34.713 -25.046 -14.584  0.00  0.00    -0.245 OA
ATOM     30  C   UNL     1      33.823 -24.601 -13.851  0.00  0.00    +0.347 C 
BRANCH  30  31
ATOM     31  O   UNL     1      34.023 -24.176 -12.569  0.00  0.00    -0.441 OA
ATOM     32  C   UNL     1      35.309 -24.439 -11.997  0.00  0.00    +0.256 C 
ENDBRANCH  30  31
ENDBRANCH  22  30
ENDBRANCH  20  21
ENDBRANCH  19  20
ENDBRANCH  18  19
ENDBRANCH   3  17
TORSDOF 10
ENDMDL
MODEL 2
REMARK VINA RESULT:     -11.4      2.763      4.299
REMARK  Name = 447994
REMARK  10 active torsions:
REMARK  status: ('A' for Active; 'I' for Inactive)
REMARK    1  A    between atoms: C_2  and  C_10
REMARK    2  A    between atoms: C_3  and  C_17
REMARK    3  A    between atoms: C_12  and  C_14
REMARK    4  A    between atoms: C_14  and  O_15
REMARK    5  A    between atoms: C_18  and  C_19
REMARK    6  A    between atoms: C_19  and  O_20
REMARK    7  A    between atoms: O_20  and  C_21
REMARK    8  A    between atoms: C_22  and  C_30
REMARK    9  A    between atoms: C_23  and  O_27
REMARK   10  A    between atoms: C_30  and  O_31
REMARK                            x       y       z     vdW  Elec       q    Type
REMARK                         _______ _______ _______ _____ _____    ______ ____
ROOT
ATOM      1  F   UNL     1      32.217 -20.668 -20.676  0.00  0.00    -0.204 F 
ATOM      2  C   UNL     1      34.539 -20.491 -20.193  0.00  0.00    +0.065 C 
ATOM      3  C   UNL     1      35.491 -21.908 -18.483  0.00  0.00    +0.000 C 
ATOM      4  C   UNL     1      35.640 -20.913 -19.449  0.00  0.00    +0.005 C 
ATOM      5  C   UNL     1      33.286 -21.063 -19.970  0.00  0.00    +0.143 C 
ATOM      6  C   UNL     1      34.238 -22.480 -18.260  0.00  0.00    +0.002 C 
ATOM      7  C   UNL     1      33.135 -22.057 -19.004  0.00  0.00    +0.030 C 
ENDROOT
BRANCH   2  10
ATOM      8  O   UNL     1      35.364 -18.356 -20.783  0.00  0.00    -0.353 OA
ATOM      9  N   UNL     1      35.441 -17.459 -21.841  0.00  0.00    -0.070 NA
ATOM     10  C   UNL     1      34.699 -19.462 -21.192  0.00  0.00    +0.179 C 
ATOM     11  C   UNL     1      34.327 -19.334 -22.498  0.00  0.00    +0.069 C 
ATOM     12  C   UNL     1      34.815 -18.065 -22.854  0.00  0.00    +0.198 C 
BRANCH  12  14
ATOM     13  O   UNL     1      34.034 -17.815 -25.085  0.00  0.00    -0.243 OA
ATOM     14  C   UNL     1      34.709 -17.409 -24.125  0.00  0.00    +0.359 C 
BRANCH  14  15
ATOM     15  O   UNL     1      35.429 -16.246 -24.240  0.00  0.00    -0.476 OA
ATOM     16  H   UNL     1      35.188 -15.606 -24.881  0.00  0.00    +0.295 HD
ENDBRANCH  14  15
ENDBRANCH  12  14
ENDBRANCH   2  10
BRANCH   3  17
ATOM     17  C   UNL     1      36.639 -22.349 -17.708  0.00  0.00    -0.001 C 
ATOM     18  C   UNL     1      36.749 -22.309 -16.360  0.00  0.00    +0.021 C 
BRANCH  18  19
ATOM     19  C   UNL     1      37.947 -22.788 -15.606  0.00  0.00    +0.232 C 
BRANCH  19  20
ATOM     20  O   UNL     1      37.574 -23.015 -14.254  0.00  0.00    -0.470 OA
BRANCH  20  21
ATOM     21  C   UNL     1      37.560 -24.317 -13.825  0.00  0.00    +0.148 C 
ATOM     22  C   UNL     1      37.022 -24.652 -12.588  0.00  0.00    +0.143 C 
ATOM     23  C   UNL     1      37.017 -25.982 -12.172  0.00  0.00    +0.143 C 
ATOM     24  C   UNL     1      38.094 -25.299 -14.653  0.00  0.00    +0.037 C 
ATOM     25  C   UNL     1      37.550 -26.973 -12.997  0.00  0.00    +0.037 C 
ATOM     26  C   UNL     1      38.089 -26.631 -14.238  0.00  0.00    +0.006 C 
BRANCH  23  27
ATOM     27  O   UNL     1      36.495 -26.338 -10.964  0.00  0.00    -0.505 OA
ATOM     28  H   UNL     1      36.117 -25.687 -10.407  0.00  0.00    +0.292 HD
ENDBRANCH  23  27
BRANCH  22  30
ATOM     29  O   UNL     1      37.111 -22.669 -11.264  0.00  0.00    -0.245 OA
ATOM     30  C   UNL     1      36.463 -23.616 -11.725  0.00  0.00    +0.347 C 
BRANCH  30  31
ATOM     31  O   UNL     1      35.133 -23.825 -11.492  0.00  0.00    -0.441 OA
ATOM     32  C   UNL     1      34.287 -23.921 -12.643  0.00  0.00    +0.256 C 
ENDBRANCH  30  31
ENDBRANCH  22  30
ENDBRANCH  20  21
ENDBRANCH  19  20
ENDBRANCH  18  19
ENDBRANCH   3  17
TORSDOF 10
ENDMDL
MODEL 3
REMARK VINA RESULT:     -11.4      1.152      2.498
REMARK  Name = 447994
REMARK  10 active torsions:
REMARK  status: ('A' for Active; 'I' for Inactive)
REMARK    1  A    between atoms: C_2  and  C_10
REMARK    2  A    between atoms: C_3  and  C_17
REMARK    3  A    between atoms: C_12  and  C_14
REMARK    4  A    between atoms: C_14  and  O_15
REMARK    5  A    between atoms: C_18  and  C_19
REMARK    6  A    between atoms: C_19  and  O_20
REMARK    7  A    between atoms: O_20  and  C_21
REMARK    8  A    between atoms: C_22  and  C_30
REMARK    9  A    between atoms: C_23  and  O_27
REMARK   10  A    between atoms: C_30  and  O_31
REMARK                            x       y       z     vdW  Elec       q    Type
REMARK                         _______ _______ _______ _____ _____    ______ ____
ROOT
ATOM      1  F   UNL     1      37.556 -18.605 -21.692  0.00  0.00    -0.204 F 
ATOM      2  C   UNL     1      35.296 -19.322 -21.509  0.00  0.00    +0.065 C 
ATOM      3  C   UNL     1      34.730 -21.000 -19.865  0.00  0.00    +0.000 C 
ATOM      4  C   UNL     1      34.346 -20.133 -20.888  0.00  0.00    +0.005 C 
ATOM      5  C   UNL     1      36.631 -19.378 -21.106  0.00  0.00    +0.143 C 
ATOM      6  C   UNL     1      36.065 -21.056 -19.463  0.00  0.00    +0.002 C 
ATOM      7  C   UNL     1      37.015 -20.245 -20.083  0.00  0.00    +0.030 C 
ENDROOT
BRANCH   2  10
ATOM      8  O   UNL     1      34.482 -19.026 -23.707  0.00  0.00    -0.353 OA
ATOM      9  N   UNL     1      34.129 -18.048 -24.629  0.00  0.00    -0.070 NA
ATOM     10  C   UNL     1      34.895 -18.426 -22.566  0.00  0.00    +0.179 C 
ATOM     11  C   UNL     1      34.828 -17.070 -22.694  0.00  0.00    +0.069 C 
ATOM     12  C   UNL     1      34.344 -16.888 -24.001  0.00  0.00    +0.198 C 
BRANCH  12  14
ATOM     13  O   UNL     1      33.714 -15.542 -25.856  0.00  0.00    -0.243 OA
ATOM     14  C   UNL     1      34.078 -15.650 -24.674  0.00  0.00    +0.359 C 
BRANCH  14  15
ATOM     15  O   UNL     1      34.255 -14.524 -23.909  0.00  0.00    -0.476 OA
ATOM     16  H   UNL     1      33.777 -13.742 -24.108  0.00  0.00    +0.295 HD
ENDBRANCH  14  15
ENDBRANCH  12  14
ENDBRANCH   2  10
BRANCH   3  17
ATOM     17  C   UNL     1      33.739 -21.846 -19.217  0.00  0.00    -0.001 C 
ATOM     18  C   UNL     1      33.973 -22.699 -18.194  0.00  0.00    +0.021 C 
BRANCH  18  19
ATOM     19  C   UNL     1      32.917 -23.539 -17.550  0.00  0.00    +0.232 C 
BRANCH  19  20
ATOM     20  O   UNL     1      32.501 -22.906 -16.349  0.00  0.00    -0.470 OA
BRANCH  20  21
ATOM     21  C   UNL     1      32.657 -23.619 -15.188  0.00  0.00    +0.148 C 
ATOM     22  C   UNL     1      31.551 -24.044 -14.461  0.00  0.00    +0.143 C 
ATOM     23  C   UNL     1      31.733 -24.768 -13.284  0.00  0.00    +0.143 C 
ATOM     24  C   UNL     1      33.945 -23.910 -14.749  0.00  0.00    +0.037 C 
ATOM     25  C   UNL     1      33.021 -25.064 -12.839  0.00  0.00    +0.037 C 
ATOM     26  C   UNL     1      34.127 -24.634 -13.572  0.00  0.00    +0.006 C 
BRANCH  23  27
ATOM     27  O   UNL     1      30.666 -25.199 -12.553  0.00  0.00    -0.505 OA
ATOM     28  H   UNL     1      30.790 -25.496 -11.673  0.00  0.00    +0.292 HD
ENDBRANCH  23  27
BRANCH  22  30
ATOM     29  O   UNL     1      29.642 -22.647 -14.764  0.00  0.00    -0.245 OA
ATOM     30  C   UNL     1      30.202 -23.736 -14.927  0.00  0.00    +0.347 C 
BRANCH  30  31
ATOM     31  O   UNL     1      29.640 -24.804 -15.566  0.00  0.00    -0.441 OA
ATOM     32  C   UNL     1      28.412 -24.563 -16.262  0.00  0.00    +0.256 C 
ENDBRANCH  30  31
ENDBRANCH  22  30
ENDBRANCH  20  21
ENDBRANCH  19  20
ENDBRANCH  18  19
ENDBRANCH   3  17
TORSDOF 10
ENDMDL
MODEL 4
REMARK VINA RESULT:     -11.1      2.730      3.931
REMARK  Name = 447994
REMARK  10 active torsions:
REMARK  status: ('A' for Active; 'I' for Inactive)
REMARK    1  A    between atoms: C_2  and  C_10
REMARK    2  A    between atoms: C_3  and  C_17
REMARK    3  A    between atoms: C_12  and  C_14
REMARK    4  A    between atoms: C_14  and  O_15
REMARK    5  A    between atoms: C_18  and  C_19
REMARK    6  A    between atoms: C_19  and  O_20
REMARK    7  A    between atoms: O_20  and  C_21
REMARK    8  A    between atoms: C_22  and  C_30
REMARK    9  A    between atoms: C_23  and  O_27
REMARK   10  A    between atoms: C_30  and  O_31
REMARK                            x       y       z     vdW  Elec       q    Type
REMARK                         _______ _______ _______ _____ _____    ______ ____
ROOT
ATOM      1  F   UNL     1      32.210 -20.616 -20.751  0.00  0.00    -0.204 F 
ATOM      2  C   UNL     1      34.524 -20.511 -20.215  0.00  0.00    +0.065 C 
ATOM      3  C   UNL     1      35.393 -21.964 -18.491  0.00  0.00    +0.000 C 
ATOM      4  C   UNL     1      35.595 -20.970 -19.449  0.00  0.00    +0.005 C 
ATOM      5  C   UNL     1      33.250 -21.046 -20.024  0.00  0.00    +0.143 C 
ATOM      6  C   UNL     1      34.119 -22.498 -18.299  0.00  0.00    +0.002 C 
ATOM      7  C   UNL     1      33.047 -22.039 -19.066  0.00  0.00    +0.030 C 
ENDROOT
BRANCH   2  10
ATOM      8  O   UNL     1      35.529 -18.458 -20.813  0.00  0.00    -0.353 OA
ATOM      9  N   UNL     1      35.645 -17.552 -21.861  0.00  0.00    -0.070 NA
ATOM     10  C   UNL     1      34.738 -19.484 -21.205  0.00  0.00    +0.179 C 
ATOM     11  C   UNL     1      34.319 -19.294 -22.489  0.00  0.00    +0.069 C 
ATOM     12  C   UNL     1      34.914 -18.073 -22.850  0.00  0.00    +0.198 C 
BRANCH  12  14
ATOM     13  O   UNL     1      34.221 -17.811 -25.108  0.00  0.00    -0.243 OA
ATOM     14  C   UNL     1      34.813 -17.385 -24.104  0.00  0.00    +0.359 C 
BRANCH  14  15
ATOM     15  O   UNL     1      35.437 -16.163 -24.148  0.00  0.00    -0.476 OA
ATOM     16  H   UNL     1      36.291 -16.085 -24.527  0.00  0.00    +0.295 HD
ENDBRANCH  14  15
ENDBRANCH  12  14
ENDBRANCH   2  10
BRANCH   3  17
ATOM     17  C   UNL     1      36.510 -22.443 -17.692  0.00  0.00    -0.001 C 
ATOM     18  C   UNL     1      36.626 -22.339 -16.348  0.00  0.00    +0.021 C 
BRANCH  18  19
ATOM     19  C   UNL     1      37.789 -22.861 -15.568  0.00  0.00    +0.232 C 
BRANCH  19  20
ATOM     20  O   UNL     1      37.547 -24.222 -15.244  0.00  0.00    -0.470 OA
BRANCH  20  21
ATOM     21  C   UNL     1      36.589 -24.473 -14.296  0.00  0.00    +0.148 C 
ATOM     22  C   UNL     1      36.947 -24.848 -13.006  0.00  0.00    +0.143 C 
ATOM     23  C   UNL     1      35.956 -25.097 -12.057  0.00  0.00    +0.143 C 
ATOM     24  C   UNL     1      35.249 -24.343 -14.648  0.00  0.00    +0.037 C 
ATOM     25  C   UNL     1      34.611 -24.968 -12.403  0.00  0.00    +0.037 C 
ATOM     26  C   UNL     1      34.258 -24.591 -13.699  0.00  0.00    +0.006 C 
BRANCH  23  27
ATOM     27  O   UNL     1      36.280 -25.465 -10.785  0.00  0.00    -0.505 OA
ATOM     28  H   UNL     1      36.757 -24.876 -10.234  0.00  0.00    +0.292 HD
ENDBRANCH  23  27
BRANCH  22  30
ATOM     29  O   UNL     1      38.991 -24.137 -12.002  0.00  0.00    -0.245 OA
ATOM     30  C   UNL     1      38.355 -24.981 -12.643  0.00  0.00    +0.347 C 
BRANCH  30  31
ATOM     31  O   UNL     1      38.878 -26.158 -13.100  0.00  0.00    -0.441 OA
ATOM     32  C   UNL     1      40.119 -26.076 -13.810  0.00  0.00    +0.256 C 
ENDBRANCH  30  31
ENDBRANCH  22  30
ENDBRANCH  20  21
ENDBRANCH  19  20
ENDBRANCH  18  19
ENDBRANCH   3  17
TORSDOF 10
ENDMDL
MODEL 5
REMARK VINA RESULT:     -11.0      4.780     12.004
REMARK  Name = 447994
REMARK  10 active torsions:
REMARK  status: ('A' for Active; 'I' for Inactive)
REMARK    1  A    between atoms: C_2  and  C_10
REMARK    2  A    between atoms: C_3  and  C_17
REMARK    3  A    between atoms: C_12  and  C_14
REMARK    4  A    between atoms: C_14  and  O_15
REMARK    5  A    between atoms: C_18  and  C_19
REMARK    6  A    between atoms: C_19  and  O_20
REMARK    7  A    between atoms: O_20  and  C_21
REMARK    8  A    between atoms: C_22  and  C_30
REMARK    9  A    between atoms: C_23  and  O_27
REMARK   10  A    between atoms: C_30  and  O_31
REMARK                            x       y       z     vdW  Elec       q    Type
REMARK                         _______ _______ _______ _____ _____    ______ ____
ROOT
ATOM      1  F   UNL     1      34.671 -19.931 -23.932  0.00  0.00    -0.204 F 
ATOM      2  C   UNL     1      35.047 -18.130 -22.425  0.00  0.00    +0.065 C 
ATOM      3  C   UNL     1      34.600 -15.873 -23.163  0.00  0.00    +0.000 C 
ATOM      4  C   UNL     1      35.021 -16.759 -22.171  0.00  0.00    +0.005 C 
ATOM      5  C   UNL     1      34.652 -18.616 -23.672  0.00  0.00    +0.143 C 
ATOM      6  C   UNL     1      34.205 -16.359 -24.409  0.00  0.00    +0.002 C 
ATOM      7  C   UNL     1      34.231 -17.731 -24.664  0.00  0.00    +0.030 C 
ENDROOT
BRANCH   2  10
ATOM      8  O   UNL     1      36.639 -18.708 -20.777  0.00  0.00    -0.353 OA
ATOM      9  N   UNL     1      36.932 -19.670 -19.818  0.00  0.00    -0.070 NA
ATOM     10  C   UNL     1      35.483 -19.043 -21.397  0.00  0.00    +0.179 C 
ATOM     11  C   UNL     1      34.989 -20.204 -20.879  0.00  0.00    +0.069 C 
ATOM     12  C   UNL     1      35.933 -20.553 -19.898  0.00  0.00    +0.198 C 
BRANCH  12  14
ATOM     13  O   UNL     1      35.202 -22.699 -19.185  0.00  0.00    -0.243 OA
ATOM     14  C   UNL     1      35.917 -21.696 -19.032  0.00  0.00    +0.359 C 
BRANCH  14  15
ATOM     15  O   UNL     1      36.775 -21.626 -17.962  0.00  0.00    -0.476 OA
ATOM     16  H   UNL     1      37.687 -21.805 -18.081  0.00  0.00    +0.295 HD
ENDBRANCH  14  15
ENDBRANCH  12  14
ENDBRANCH   2  10
BRANCH   3  17
ATOM     17  C   UNL     1      34.573 -14.443 -22.898  0.00  0.00    -0.001 C 
ATOM     18  C   UNL     1      33.919 -13.514 -23.631  0.00  0.00    +0.021 C 
BRANCH  18  19
ATOM     19  C   UNL     1      33.908 -12.054 -23.310  0.00  0.00    +0.232 C 
BRANCH  19  20
ATOM     20  O   UNL     1      32.561 -11.626 -23.178  0.00  0.00    -0.470 OA
BRANCH  20  21
ATOM     21  C   UNL     1      32.222 -10.997 -22.008  0.00  0.00    +0.148 C 
ATOM     22  C   UNL     1      32.266  -9.611 -21.908  0.00  0.00    +0.143 C 
ATOM     23  C   UNL     1      31.917  -8.992 -20.708  0.00  0.00    +0.143 C 
ATOM     24  C   UNL     1      31.831 -11.772 -20.921  0.00  0.00    +0.037 C 
ATOM     25  C   UNL     1      31.524  -9.763 -19.615  0.00  0.00    +0.037 C 
ATOM     26  C   UNL     1      31.481 -11.153 -19.722  0.00  0.00    +0.006 C 
BRANCH  23  27
ATOM     27  O   UNL     1      31.950  -7.635 -20.583  0.00  0.00    -0.505 OA
ATOM     28  H   UNL     1      32.405  -7.242 -19.865  0.00  0.00    +0.292 HD
ENDBRANCH  23  27
BRANCH  22  30
ATOM     29  O   UNL     1      32.033  -8.708 -24.103  0.00  0.00    -0.245 OA
ATOM     30  C   UNL     1      32.677  -8.803 -23.053  0.00  0.00    +0.347 C 
BRANCH  30  31
ATOM     31  O   UNL     1      33.861  -8.166 -22.814  0.00  0.00    -0.441 OA
ATOM     32  C   UNL     1      34.971  -8.545 -23.634  0.00  0.00    +0.256 C 
ENDBRANCH  30  31
ENDBRANCH  22  30
ENDBRANCH  20  21
ENDBRANCH  19  20
ENDBRANCH  18  19
ENDBRANCH   3  17
TORSDOF 10
ENDMDL
MODEL 6
REMARK VINA RESULT:     -10.8      2.116      3.967
REMARK  Name = 447994
REMARK  10 active torsions:
REMARK  status: ('A' for Active; 'I' for Inactive)
REMARK    1  A    between atoms: C_2  and  C_10
REMARK    2  A    between atoms: C_3  and  C_17
REMARK    3  A    between atoms: C_12  and  C_14
REMARK    4  A    between atoms: C_14  and  O_15
REMARK    5  A    between atoms: C_18  and  C_19
REMARK    6  A    between atoms: C_19  and  O_20
REMARK    7  A    between atoms: O_20  and  C_21
REMARK    8  A    between atoms: C_22  and  C_30
REMARK    9  A    between atoms: C_23  and  O_27
REMARK   10  A    between atoms: C_30  and  O_31
REMARK                            x       y       z     vdW  Elec       q    Type
REMARK                         _______ _______ _______ _____ _____    ______ ____
ROOT
ATOM      1  F   UNL     1      32.186 -20.645 -20.815  0.00  0.00    -0.204 F 
ATOM      2  C   UNL     1      34.517 -20.474 -20.381  0.00  0.00    +0.065 C 
ATOM      3  C   UNL     1      35.470 -21.769 -18.577  0.00  0.00    +0.000 C 
ATOM      4  C   UNL     1      35.623 -20.857 -19.621  0.00  0.00    +0.005 C 
ATOM      5  C   UNL     1      33.258 -21.003 -20.095  0.00  0.00    +0.143 C 
ATOM      6  C   UNL     1      34.211 -22.297 -18.292  0.00  0.00    +0.002 C 
ATOM      7  C   UNL     1      33.105 -21.914 -19.050  0.00  0.00    +0.030 C 
ENDROOT
BRANCH   2  10
ATOM      8  O   UNL     1      34.664 -20.067 -22.704  0.00  0.00    -0.353 OA
ATOM      9  N   UNL     1      34.829 -19.049 -23.635  0.00  0.00    -0.070 NA
ATOM     10  C   UNL     1      34.680 -19.531 -21.461  0.00  0.00    +0.179 C 
ATOM     11  C   UNL     1      34.849 -18.180 -21.531  0.00  0.00    +0.069 C 
ATOM     12  C   UNL     1      34.937 -17.932 -22.911  0.00  0.00    +0.198 C 
BRANCH  12  14
ATOM     13  O   UNL     1      35.396 -15.601 -22.996  0.00  0.00    -0.243 OA
ATOM     14  C   UNL     1      35.119 -16.669 -23.566  0.00  0.00    +0.359 C 
BRANCH  14  15
ATOM     15  O   UNL     1      34.964 -16.694 -24.929  0.00  0.00    -0.476 OA
ATOM     16  H   UNL     1      34.308 -17.240 -25.317  0.00  0.00    +0.295 HD
ENDBRANCH  14  15
ENDBRANCH  12  14
ENDBRANCH   2  10
BRANCH   3  17
ATOM     17  C   UNL     1      36.623 -22.169 -17.786  0.00  0.00    -0.001 C 
ATOM     18  C   UNL     1      36.621 -22.433 -16.459  0.00  0.00    +0.021 C 
BRANCH  18  19
ATOM     19  C   UNL     1      37.831 -22.856 -15.690  0.00  0.00    +0.232 C 
BRANCH  19  20
ATOM     20  O   UNL     1      37.648 -24.195 -15.253  0.00  0.00    -0.470 OA
BRANCH  20  21
ATOM     21  C   UNL     1      37.290 -24.375 -13.942  0.00  0.00    +0.148 C 
ATOM     22  C   UNL     1      35.965 -24.615 -13.594  0.00  0.00    +0.143 C 
ATOM     23  C   UNL     1      35.623 -24.797 -12.255  0.00  0.00    +0.143 C 
ATOM     24  C   UNL     1      38.278 -24.316 -12.964  0.00  0.00    +0.037 C 
ATOM     25  C   UNL     1      36.608 -24.739 -11.270  0.00  0.00    +0.037 C 
ATOM     26  C   UNL     1      37.936 -24.498 -11.625  0.00  0.00    +0.006 C 
BRANCH  23  27
ATOM     27  O   UNL     1      34.333 -25.035 -11.887  0.00  0.00    -0.505 OA
ATOM     28  H   UNL     1      33.696 -25.268 -12.534  0.00  0.00    +0.292 HD
ENDBRANCH  23  27
BRANCH  22  30
ATOM     29  O   UNL     1      34.887 -25.537 -15.512  0.00  0.00    -0.245 OA
ATOM     30  C   UNL     1      34.934 -24.677 -14.626  0.00  0.00    +0.347 C 
BRANCH  30  31
ATOM     31  O   UNL     1      34.027 -23.665 -14.485  0.00  0.00    -0.441 OA
ATOM     32  C   UNL     1      32.734 -23.877 -15.060  0.00  0.00    +0.256 C 
ENDBRANCH  30  31
ENDBRANCH  22  30
ENDBRANCH  20  21
ENDBRANCH  19  20
ENDBRANCH  18  19
ENDBRANCH   3  17
TORSDOF 10
ENDMDL
MODEL 7
REMARK VINA RESULT:     -10.4      3.389      5.714
REMARK  Name = 447994
REMARK  10 active torsions:
REMARK  status: ('A' for Active; 'I' for Inactive)
REMARK    1  A    between atoms: C_2  and  C_10
REMARK    2  A    between atoms: C_3  and  C_17
REMARK    3  A    between atoms: C_12  and  C_14
REMARK    4  A    between atoms: C_14  and  O_15
REMARK    5  A    between atoms: C_18  and  C_19
REMARK    6  A    between atoms: C_19  and  O_20
REMARK    7  A    between atoms: O_20  and  C_21
REMARK    8  A    between atoms: C_22  and  C_30
REMARK    9  A    between atoms: C_23  and  O_27
REMARK   10  A    between atoms: C_30  and  O_31
REMARK                            x       y       z     vdW  Elec       q    Type
REMARK                         _______ _______ _______ _____ _____    ______ ____
ROOT
ATOM      1  F   UNL     1      33.608 -15.320 -25.460  0.00  0.00    -0.204 F 
ATOM      2  C   UNL     1      34.126 -15.392 -23.140  0.00  0.00    +0.065 C 
ATOM      3  C   UNL     1      35.139 -17.387 -22.228  0.00  0.00    +0.000 C 
ATOM      4  C   UNL     1      34.644 -16.096 -22.053  0.00  0.00    +0.005 C 
ATOM      5  C   UNL     1      34.103 -15.982 -24.404  0.00  0.00    +0.143 C 
ATOM      6  C   UNL     1      35.116 -17.977 -23.493  0.00  0.00    +0.002 C 
ATOM      7  C   UNL     1      34.598 -17.274 -24.581  0.00  0.00    +0.030 C 
ENDROOT
BRANCH   2  10
ATOM      8  O   UNL     1      34.303 -13.080 -23.591  0.00  0.00    -0.353 OA
ATOM      9  N   UNL     1      33.701 -11.856 -23.324  0.00  0.00    -0.070 NA
ATOM     10  C   UNL     1      33.616 -14.056 -22.954  0.00  0.00    +0.179 C 
ATOM     11  C   UNL     1      32.566 -13.523 -22.265  0.00  0.00    +0.069 C 
ATOM     12  C   UNL     1      32.666 -12.146 -22.530  0.00  0.00    +0.198 C 
BRANCH  12  14
ATOM     13  O   UNL     1      32.148  -9.910 -21.913  0.00  0.00    -0.243 OA
ATOM     14  C   UNL     1      31.812 -11.097 -22.056  0.00  0.00    +0.359 C 
BRANCH  14  15
ATOM     15  O   UNL     1      30.531 -11.485 -21.748  0.00  0.00    -0.476 OA
ATOM     16  H   UNL     1      30.254 -12.364 -21.917  0.00  0.00    +0.295 HD
ENDBRANCH  14  15
ENDBRANCH  12  14
ENDBRANCH   2  10
BRANCH   3  17
ATOM     17  C   UNL     1      35.680 -18.121 -21.095  0.00  0.00    -0.001 C 
ATOM     18  C   UNL     1      36.228 -19.356 -21.138  0.00  0.00    +0.021 C 
BRANCH  18  19
ATOM     19  C   UNL     1      36.785 -20.065 -19.946  0.00  0.00    +0.232 C 
BRANCH  19  20
ATOM     20  O   UNL     1      35.988 -21.211 -19.683  0.00  0.00    -0.470 OA
BRANCH  20  21
ATOM     21  C   UNL     1      36.006 -21.698 -18.402  0.00  0.00    +0.148 C 
ATOM     22  C   UNL     1      34.955 -22.471 -17.921  0.00  0.00    +0.143 C 
ATOM     23  C   UNL     1      34.993 -22.956 -16.615  0.00  0.00    +0.143 C 
ATOM     24  C   UNL     1      37.096 -21.405 -17.590  0.00  0.00    +0.037 C 
ATOM     25  C   UNL     1      36.084 -22.667 -15.795  0.00  0.00    +0.037 C 
ATOM     26  C   UNL     1      37.135 -21.891 -16.283  0.00  0.00    +0.006 C 
BRANCH  23  27
ATOM     27  O   UNL     1      33.977 -23.718 -16.119  0.00  0.00    -0.505 OA
ATOM     28  H   UNL     1      33.939 -24.634 -16.315  0.00  0.00    +0.292 HD
ENDBRANCH  23  27
BRANCH  22  30
ATOM     29  O   UNL     1      33.688 -23.822 -19.425  0.00  0.00    -0.245 OA
ATOM     30  C   UNL     1      33.813 -22.776 -18.779  0.00  0.00    +0.347 C 
BRANCH  30  31
ATOM     31  O   UNL     1      32.903 -21.758 -18.777  0.00  0.00    -0.441 OA
ATOM     32  C   UNL     1      32.838 -20.950 -19.957  0.00  0.00    +0.256 C 
ENDBRANCH  30  31
ENDBRANCH  22  30
ENDBRANCH  20  21
ENDBRANCH  19  20
ENDBRANCH  18  19
ENDBRANCH   3  17
TORSDOF 10
ENDMDL
MODEL 8
REMARK VINA RESULT:      -9.9      1.425      2.671
REMARK  Name = 447994
REMARK  10 active torsions:
REMARK  status: ('A' for Active; 'I' for Inactive)
REMARK    1  A    between atoms: C_2  and  C_10
REMARK    2  A    between atoms: C_3  and  C_17
REMARK    3  A    between atoms: C_12  and  C_14
REMARK    4  A    between atoms: C_14  and  O_15
REMARK    5  A    between atoms: C_18  and  C_19
REMARK    6  A    between atoms: C_19  and  O_20
REMARK    7  A    between atoms: O_20  and  C_21
REMARK    8  A    between atoms: C_22  and  C_30
REMARK    9  A    between atoms: C_23  and  O_27
REMARK   10  A    between atoms: C_30  and  O_31
REMARK                            x       y       z     vdW  Elec       q    Type
REMARK                         _______ _______ _______ _____ _____    ______ ____
ROOT
ATOM      1  F   UNL     1      37.820 -18.656 -21.642  0.00  0.00    -0.204 F 
ATOM      2  C   UNL     1      35.529 -19.186 -21.286  0.00  0.00    +0.065 C 
ATOM      3  C   UNL     1      34.962 -20.959 -19.746  0.00  0.00    +0.000 C 
ATOM      4  C   UNL     1      34.569 -19.967 -20.643  0.00  0.00    +0.005 C 
ATOM      5  C   UNL     1      36.884 -19.398 -21.032  0.00  0.00    +0.143 C 
ATOM      6  C   UNL     1      36.318 -21.170 -19.492  0.00  0.00    +0.002 C 
ATOM      7  C   UNL     1      37.279 -20.390 -20.135  0.00  0.00    +0.030 C 
ENDROOT
BRANCH   2  10
ATOM      8  O   UNL     1      35.359 -16.889 -21.816  0.00  0.00    -0.353 OA
ATOM      9  N   UNL     1      34.914 -16.016 -22.802  0.00  0.00    -0.070 NA
ATOM     10  C   UNL     1      35.117 -18.160 -22.214  0.00  0.00    +0.179 C 
ATOM     11  C   UNL     1      34.522 -18.166 -23.441  0.00  0.00    +0.069 C 
ATOM     12  C   UNL     1      34.419 -16.802 -23.761  0.00  0.00    +0.198 C 
BRANCH  12  14
ATOM     13  O   UNL     1      34.231 -15.146 -25.456  0.00  0.00    -0.243 OA
ATOM     14  C   UNL     1      33.866 -16.219 -24.949  0.00  0.00    +0.359 C 
BRANCH  14  15
ATOM     15  O   UNL     1      32.855 -16.940 -25.534  0.00  0.00    -0.476 OA
ATOM     16  H   UNL     1      33.055 -17.592 -26.178  0.00  0.00    +0.295 HD
ENDBRANCH  14  15
ENDBRANCH  12  14
ENDBRANCH   2  10
BRANCH   3  17
ATOM     17  C   UNL     1      33.961 -21.773 -19.075  0.00  0.00    -0.001 C 
ATOM     18  C   UNL     1      34.191 -22.632 -18.056  0.00  0.00    +0.021 C 
BRANCH  18  19
ATOM     19  C   UNL     1      33.124 -23.438 -17.387  0.00  0.00    +0.232 C 
BRANCH  19  20
ATOM     20  O   UNL     1      33.738 -24.492 -16.660  0.00  0.00    -0.470 OA
BRANCH  20  21
ATOM     21  C   UNL     1      34.451 -24.141 -15.543  0.00  0.00    +0.148 C 
ATOM     22  C   UNL     1      33.891 -24.264 -14.275  0.00  0.00    +0.143 C 
ATOM     23  C   UNL     1      34.634 -23.902 -13.153  0.00  0.00    +0.143 C 
ATOM     24  C   UNL     1      35.747 -23.661 -15.700  0.00  0.00    +0.037 C 
ATOM     25  C   UNL     1      35.935 -23.420 -13.303  0.00  0.00    +0.037 C 
ATOM     26  C   UNL     1      36.490 -23.300 -14.576  0.00  0.00    +0.006 C 
BRANCH  23  27
ATOM     27  O   UNL     1      34.111 -24.013 -11.899  0.00  0.00    -0.505 OA
ATOM     28  H   UNL     1      33.481 -23.388 -11.597  0.00  0.00    +0.292 HD
ENDBRANCH  23  27
BRANCH  22  30
ATOM     29  O   UNL     1      32.239 -25.802 -13.505  0.00  0.00    -0.245 OA
ATOM     30  C   UNL     1      32.531 -24.769 -14.118  0.00  0.00    +0.347 C 
BRANCH  30  31
ATOM     31  O   UNL     1      31.623 -23.956 -14.734  0.00  0.00    -0.441 OA
ATOM     32  C   UNL     1      31.247 -22.765 -14.033  0.00  0.00    +0.256 C 
ENDBRANCH  30  31
ENDBRANCH  22  30
ENDBRANCH  20  21
ENDBRANCH  19  20
ENDBRANCH  18  19
ENDBRANCH   3  17
TORSDOF 10
ENDMDL
MODEL 9
REMARK VINA RESULT:      -9.8      9.354     15.619
REMARK  Name = 447994
REMARK  10 active torsions:
REMARK  status: ('A' for Active; 'I' for Inactive)
REMARK    1  A    between atoms: C_2  and  C_10
REMARK    2  A    between atoms: C_3  and  C_17
REMARK    3  A    between atoms: C_12  and  C_14
REMARK    4  A    between atoms: C_14  and  O_15
REMARK    5  A    between atoms: C_18  and  C_19
REMARK    6  A    between atoms: C_19  and  O_20
REMARK    7  A    between atoms: O_20  and  C_21
REMARK    8  A    between atoms: C_22  and  C_30
REMARK    9  A    between atoms: C_23  and  O_27
REMARK   10  A    between atoms: C_30  and  O_31
REMARK                            x       y       z     vdW  Elec       q    Type
REMARK                         _______ _______ _______ _____ _____    ______ ____
ROOT
ATOM      1  F   UNL     1      31.907 -13.358 -20.204  0.00  0.00    -0.204 F 
ATOM      2  C   UNL     1      32.540 -12.220 -22.194  0.00  0.00    +0.065 C 
ATOM      3  C   UNL     1      31.865  -9.919 -22.492  0.00  0.00    +0.000 C 
ATOM      4  C   UNL     1      32.522 -11.056 -22.962  0.00  0.00    +0.005 C 
ATOM      5  C   UNL     1      31.899 -12.247 -20.954  0.00  0.00    +0.143 C 
ATOM      6  C   UNL     1      31.225  -9.947 -21.252  0.00  0.00    +0.002 C 
ATOM      7  C   UNL     1      31.242 -11.111 -20.483  0.00  0.00    +0.030 C 
ENDROOT
BRANCH   2  10
ATOM      8  O   UNL     1      34.355 -13.723 -22.022  0.00  0.00    -0.353 OA
ATOM      9  N   UNL     1      34.898 -14.865 -22.600  0.00  0.00    -0.070 NA
ATOM     10  C   UNL     1      33.221 -13.393 -22.684  0.00  0.00    +0.179 C 
ATOM     11  C   UNL     1      32.985 -14.283 -23.690  0.00  0.00    +0.069 C 
ATOM     12  C   UNL     1      34.062 -15.181 -23.593  0.00  0.00    +0.198 C 
BRANCH  12  14
ATOM     13  O   UNL     1      33.789 -16.564 -25.506  0.00  0.00    -0.243 OA
ATOM     14  C   UNL     1      34.325 -16.328 -24.411  0.00  0.00    +0.359 C 
BRANCH  14  15
ATOM     15  O   UNL     1      35.247 -17.208 -23.900  0.00  0.00    -0.476 OA
ATOM     16  H   UNL     1      35.131 -17.562 -23.040  0.00  0.00    +0.295 HD
ENDBRANCH  14  15
ENDBRANCH  12  14
ENDBRANCH   2  10
BRANCH   3  17
ATOM     17  C   UNL     1      31.846  -8.705 -23.292  0.00  0.00    -0.001 C 
ATOM     18  C   UNL     1      32.917  -8.132 -23.888  0.00  0.00    +0.021 C 
BRANCH  18  19
ATOM     19  C   UNL     1      32.845  -6.888 -24.715  0.00  0.00    +0.232 C 
BRANCH  19  20
ATOM     20  O   UNL     1      31.653  -6.191 -24.387  0.00  0.00    -0.470 OA
BRANCH  20  21
ATOM     21  C   UNL     1      31.780  -4.865 -24.060  0.00  0.00    +0.148 C 
ATOM     22  C   UNL     1      31.700  -4.449 -22.736  0.00  0.00    +0.143 C 
ATOM     23  C   UNL     1      31.834  -3.096 -22.427  0.00  0.00    +0.143 C 
ATOM     24  C   UNL     1      31.992  -3.943 -25.080  0.00  0.00    +0.037 C 
ATOM     25  C   UNL     1      32.047  -2.166 -23.444  0.00  0.00    +0.037 C 
ATOM     26  C   UNL     1      32.126  -2.590 -24.770  0.00  0.00    +0.006 C 
BRANCH  23  27
ATOM     27  O   UNL     1      31.761  -2.661 -21.137  0.00  0.00    -0.505 OA
ATOM     28  H   UNL     1      32.543  -2.568 -20.629  0.00  0.00    +0.292 HD
ENDBRANCH  23  27
BRANCH  22  30
ATOM     29  O   UNL     1      30.368  -5.859 -21.348  0.00  0.00    -0.245 OA
ATOM     30  C   UNL     1      31.479  -5.422 -21.671  0.00  0.00    +0.347 C 
BRANCH  30  31
ATOM     31  O   UNL     1      32.654  -5.789 -21.079  0.00  0.00    -0.441 OA
ATOM     32  C   UNL     1      32.589  -6.863 -20.134  0.00  0.00    +0.256 C 
ENDBRANCH  30  31
ENDBRANCH  22  30
ENDBRANCH  20  21
ENDBRANCH  19  20
ENDBRANCH  18  19
ENDBRANCH   3  17
TORSDOF 10
ENDMDL
