MODEL 1
REMARK VINA RESULT:     -12.8      0.000      0.000
REMARK  Name = 447767
REMARK  2 active torsions:
REMARK  status: ('A' for Active; 'I' for Inactive)
REMARK    1  A    between atoms: N_2  and  C_10
REMARK    2  A    between atoms: C_8  and  C_24
REMARK                            x       y       z     vdW  Elec       q    Type
REMARK                         _______ _______ _______ _____ _____    ______ ____
ROOT
ATOM      1  O   UNL     1      31.295 -12.311 -20.648  0.00  0.00    -0.270 OA
ATOM      2  N   UNL     1      32.937  -8.302 -23.113  0.00  0.00    +0.396 N 
ATOM      3  N   UNL     1      32.203 -10.955 -22.322  0.00  0.00    -0.280 N 
ATOM      4  C   UNL     1      33.873  -9.420 -23.304  0.00  0.00    -0.054 C 
ATOM      5  C   UNL     1      32.113  -8.522 -21.916  0.00  0.00    -0.054 C 
ATOM      6  C   UNL     1      33.126 -10.747 -23.444  0.00  0.00    +0.071 C 
ATOM      7  C   UNL     1      31.323  -9.824 -22.039  0.00  0.00    +0.071 C 
ATOM      8  C   UNL     1      32.068 -12.137 -21.589  0.00  0.00    +0.249 C 
ATOM      9  H   UNL     1      32.322  -8.255 -23.924  0.00  0.00    -0.079 HD
ENDROOT
BRANCH   2  10
ATOM     10  C   UNL     1      33.662  -7.036 -23.011  0.00  0.00    -0.011 C 
ATOM     11  C   UNL     1      32.753  -5.883 -22.607  0.00  0.00    -0.038 C 
ATOM     12  C   UNL     1      34.176  -6.557 -24.362  0.00  0.00    -0.038 C 
ATOM     13  C   UNL     1      32.754  -4.880 -23.603  0.00  0.00    -0.006 C 
ATOM     14  C   UNL     1      33.628  -5.294 -24.680  0.00  0.00    -0.006 C 
ATOM     15  C   UNL     1      32.012  -5.740 -21.446  0.00  0.00    -0.006 C 
ATOM     16  C   UNL     1      35.067  -7.189 -25.214  0.00  0.00    -0.006 C 
ATOM     17  C   UNL     1      32.000  -3.729 -23.446  0.00  0.00    -0.000 C 
ATOM     18  C   UNL     1      33.961  -4.659 -25.865  0.00  0.00    -0.000 C 
ATOM     19  C   UNL     1      31.252  -4.581 -21.287  0.00  0.00    -0.000 C 
ATOM     20  C   UNL     1      35.403  -6.548 -26.408  0.00  0.00    -0.000 C 
ATOM     21  C   UNL     1      31.245  -3.585 -22.278  0.00  0.00    -0.000 C 
ATOM     22  C   UNL     1      34.855  -5.296 -26.731  0.00  0.00    -0.000 C 
ENDBRANCH   2  10
BRANCH   8  24
ATOM     23  N   UNL     1      35.164 -16.480 -23.243  0.00  0.00    -0.312 N 
ATOM     24  C   UNL     1      32.906 -13.284 -21.962  0.00  0.00    +0.054 C 
ATOM     25  C   UNL     1      32.857 -13.772 -23.271  0.00  0.00    +0.006 C 
ATOM     26  C   UNL     1      33.736 -13.866 -21.009  0.00  0.00    +0.006 C 
ATOM     27  C   UNL     1      33.665 -14.871 -23.621  0.00  0.00    +0.015 C 
ATOM     28  C   UNL     1      34.490 -15.438 -22.648  0.00  0.00    +0.048 C 
ATOM     29  C   UNL     1      34.547 -14.957 -21.335  0.00  0.00    +0.015 C 
ATOM     30  C   UNL     1      33.868 -15.610 -24.821  0.00  0.00    +0.017 C 
ATOM     31  C   UNL     1      34.793 -16.592 -24.557  0.00  0.00    +0.062 C 
ATOM     32  H   UNL     1      35.817 -17.061 -22.791  0.00  0.00    +0.152 HD
ENDBRANCH   8  24
TORSDOF 2
ENDMDL
MODEL 2
REMARK VINA RESULT:     -12.1      0.552      1.261
REMARK  Name = 447767
REMARK  2 active torsions:
REMARK  status: ('A' for Active; 'I' for Inactive)
REMARK    1  A    between atoms: N_2  and  C_10
REMARK    2  A    between atoms: C_8  and  C_24
REMARK                            x       y       z     vdW  Elec       q    Type
REMARK                         _______ _______ _______ _____ _____    ______ ____
ROOT
ATOM      1  O   UNL     1      31.637 -12.277 -20.273  0.00  0.00    -0.270 OA
ATOM      2  N   UNL     1      32.844  -8.189 -22.856  0.00  0.00    +0.396 N 
ATOM      3  N   UNL     1      32.226 -10.863 -22.039  0.00  0.00    -0.280 N 
ATOM      4  C   UNL     1      33.701  -9.309 -23.272  0.00  0.00    -0.054 C 
ATOM      5  C   UNL     1      32.266  -8.449 -21.530  0.00  0.00    -0.054 C 
ATOM      6  C   UNL     1      32.913 -10.620 -23.313  0.00  0.00    +0.071 C 
ATOM      7  C   UNL     1      31.442  -9.734 -21.544  0.00  0.00    +0.071 C 
ATOM      8  C   UNL     1      32.214 -12.073 -21.340  0.00  0.00    +0.249 C 
ATOM      9  H   UNL     1      32.081  -8.100 -23.528  0.00  0.00    -0.079 HD
ENDROOT
BRANCH   2  10
ATOM     10  C   UNL     1      33.600  -6.937 -22.851  0.00  0.00    -0.011 C 
ATOM     11  C   UNL     1      32.716  -5.731 -22.564  0.00  0.00    -0.038 C 
ATOM     12  C   UNL     1      34.147  -6.589 -24.229  0.00  0.00    -0.038 C 
ATOM     13  C   UNL     1      32.759  -4.819 -23.643  0.00  0.00    -0.006 C 
ATOM     14  C   UNL     1      33.637  -5.346 -24.664  0.00  0.00    -0.006 C 
ATOM     15  C   UNL     1      31.960  -5.470 -21.432  0.00  0.00    -0.006 C 
ATOM     16  C   UNL     1      35.035  -7.314 -25.007  0.00  0.00    -0.006 C 
ATOM     17  C   UNL     1      32.032  -3.640 -23.599  0.00  0.00    -0.000 C 
ATOM     18  C   UNL     1      34.006  -4.823 -25.894  0.00  0.00    -0.000 C 
ATOM     19  C   UNL     1      31.228  -4.283 -21.388  0.00  0.00    -0.000 C 
ATOM     20  C   UNL     1      35.406  -6.788 -26.246  0.00  0.00    -0.000 C 
ATOM     21  C   UNL     1      31.263  -3.377 -22.461  0.00  0.00    -0.000 C 
ATOM     22  C   UNL     1      34.896  -5.556 -26.685  0.00  0.00    -0.000 C 
ENDBRANCH   2  10
BRANCH   8  24
ATOM     23  N   UNL     1      35.020 -16.488 -23.293  0.00  0.00    -0.312 N 
ATOM     24  C   UNL     1      32.939 -13.214 -21.916  0.00  0.00    +0.054 C 
ATOM     25  C   UNL     1      33.565 -14.128 -21.065  0.00  0.00    +0.006 C 
ATOM     26  C   UNL     1      32.988 -13.368 -23.297  0.00  0.00    +0.006 C 
ATOM     27  C   UNL     1      34.256 -15.220 -21.624  0.00  0.00    +0.015 C 
ATOM     28  C   UNL     1      34.292 -15.354 -23.013  0.00  0.00    +0.048 C 
ATOM     29  C   UNL     1      33.668 -14.445 -23.875  0.00  0.00    +0.015 C 
ATOM     30  C   UNL     1      34.988 -16.314 -21.080  0.00  0.00    +0.017 C 
ATOM     31  C   UNL     1      35.445 -17.075 -22.131  0.00  0.00    +0.062 C 
ATOM     32  H   UNL     1      35.208 -16.828 -24.197  0.00  0.00    +0.152 HD
ENDBRANCH   8  24
TORSDOF 2
ENDMDL
MODEL 3
REMARK VINA RESULT:     -11.4      2.549      5.021
REMARK  Name = 447767
REMARK  2 active torsions:
REMARK  status: ('A' for Active; 'I' for Inactive)
REMARK    1  A    between atoms: N_2  and  C_10
REMARK    2  A    between atoms: C_8  and  C_24
REMARK                            x       y       z     vdW  Elec       q    Type
REMARK                         _______ _______ _______ _____ _____    ______ ____
ROOT
ATOM      1  O   UNL     1      34.138 -15.660 -25.399  0.00  0.00    -0.270 OA
ATOM      2  N   UNL     1      32.874 -11.503 -22.956  0.00  0.00    +0.396 N 
ATOM      3  N   UNL     1      34.070 -13.970 -23.785  0.00  0.00    -0.280 N 
ATOM      4  C   UNL     1      33.026 -12.612 -22.002  0.00  0.00    -0.054 C 
ATOM      5  C   UNL     1      32.652 -12.020 -24.313  0.00  0.00    -0.054 C 
ATOM      6  C   UNL     1      34.194 -13.519 -22.393  0.00  0.00    +0.071 C 
ATOM      7  C   UNL     1      33.819 -12.903 -24.751  0.00  0.00    +0.071 C 
ATOM      8  C   UNL     1      34.242 -15.282 -24.233  0.00  0.00    +0.249 C 
ATOM      9  H   UNL     1      33.736 -10.957 -22.955  0.00  0.00    -0.079 HD
ENDROOT
BRANCH   2  10
ATOM     10  C   UNL     1      31.775 -10.626 -22.554  0.00  0.00    -0.011 C 
ATOM     11  C   UNL     1      31.927  -9.218 -23.113  0.00  0.00    -0.038 C 
ATOM     12  C   UNL     1      31.772 -10.357 -21.055  0.00  0.00    -0.038 C 
ATOM     13  C   UNL     1      32.001  -8.274 -22.063  0.00  0.00    -0.006 C 
ATOM     14  C   UNL     1      31.905  -8.974 -20.800  0.00  0.00    -0.006 C 
ATOM     15  C   UNL     1      31.975  -8.822 -24.439  0.00  0.00    -0.006 C 
ATOM     16  C   UNL     1      31.642 -11.269 -20.020  0.00  0.00    -0.006 C 
ATOM     17  C   UNL     1      32.135  -6.923 -22.337  0.00  0.00    -0.000 C 
ATOM     18  C   UNL     1      31.921  -8.494 -19.500  0.00  0.00    -0.000 C 
ATOM     19  C   UNL     1      32.111  -7.461 -24.716  0.00  0.00    -0.000 C 
ATOM     20  C   UNL     1      31.658 -10.786 -18.710  0.00  0.00    -0.000 C 
ATOM     21  C   UNL     1      32.191  -6.520 -23.676  0.00  0.00    -0.000 C 
ATOM     22  C   UNL     1      31.797  -9.412 -18.454  0.00  0.00    -0.000 C 
ENDBRANCH   2  10
BRANCH   8  24
ATOM     23  N   UNL     1      35.507 -19.376 -20.653  0.00  0.00    -0.312 N 
ATOM     24  C   UNL     1      34.584 -16.313 -23.244  0.00  0.00    +0.054 C 
ATOM     25  C   UNL     1      34.545 -17.660 -23.616  0.00  0.00    +0.006 C 
ATOM     26  C   UNL     1      34.944 -15.934 -21.955  0.00  0.00    +0.006 C 
ATOM     27  C   UNL     1      34.876 -18.642 -22.663  0.00  0.00    +0.015 C 
ATOM     28  C   UNL     1      35.235 -18.237 -21.375  0.00  0.00    +0.048 C 
ATOM     29  C   UNL     1      35.278 -16.892 -20.993  0.00  0.00    +0.015 C 
ATOM     30  C   UNL     1      34.944 -20.064 -22.687  0.00  0.00    +0.017 C 
ATOM     31  C   UNL     1      35.333 -20.486 -21.438  0.00  0.00    +0.062 C 
ATOM     32  H   UNL     1      35.786 -19.392 -19.709  0.00  0.00    +0.152 HD
ENDBRANCH   8  24
TORSDOF 2
ENDMDL
MODEL 4
REMARK VINA RESULT:     -10.4      2.253      8.644
REMARK  Name = 447767
REMARK  2 active torsions:
REMARK  status: ('A' for Active; 'I' for Inactive)
REMARK    1  A    between atoms: N_2  and  C_10
REMARK    2  A    between atoms: C_8  and  C_24
REMARK                            x       y       z     vdW  Elec       q    Type
REMARK                         _______ _______ _______ _____ _____    ______ ____
ROOT
ATOM      1  O   UNL     1      35.407  -6.670 -23.383  0.00  0.00    -0.270 OA
ATOM      2  N   UNL     1      32.325 -10.588 -23.395  0.00  0.00    +0.396 N 
ATOM      3  N   UNL     1      33.570  -8.045 -23.829  0.00  0.00    -0.280 N 
ATOM      4  C   UNL     1      31.550  -9.347 -23.250  0.00  0.00    -0.054 C 
ATOM      5  C   UNL     1      33.725 -10.366 -23.006  0.00  0.00    -0.054 C 
ATOM      6  C   UNL     1      32.139  -8.224 -24.106  0.00  0.00    +0.071 C 
ATOM      7  C   UNL     1      34.357  -9.275 -23.868  0.00  0.00    +0.071 C 
ATOM      8  C   UNL     1      34.208  -6.821 -23.615  0.00  0.00    +0.249 C 
ATOM      9  H   UNL     1      32.303 -10.868 -24.375  0.00  0.00    -0.079 HD
ENDROOT
BRANCH   2  10
ATOM     10  C   UNL     1      31.734 -11.660 -22.596  0.00  0.00    -0.011 C 
ATOM     11  C   UNL     1      31.614 -11.283 -21.126  0.00  0.00    -0.038 C 
ATOM     12  C   UNL     1      32.635 -12.886 -22.521  0.00  0.00    -0.038 C 
ATOM     13  C   UNL     1      32.352 -12.182 -20.323  0.00  0.00    -0.006 C 
ATOM     14  C   UNL     1      32.979 -13.166 -21.180  0.00  0.00    -0.006 C 
ATOM     15  C   UNL     1      30.893 -10.243 -20.562  0.00  0.00    -0.006 C 
ATOM     16  C   UNL     1      33.085 -13.684 -23.560  0.00  0.00    -0.006 C 
ATOM     17  C   UNL     1      32.383 -12.036 -18.945  0.00  0.00    -0.000 C 
ATOM     18  C   UNL     1      33.790 -14.245 -20.870  0.00  0.00    -0.000 C 
ATOM     19  C   UNL     1      30.923 -10.096 -19.175  0.00  0.00    -0.000 C 
ATOM     20  C   UNL     1      33.903 -14.772 -23.248  0.00  0.00    -0.000 C 
ATOM     21  C   UNL     1      31.661 -10.983 -18.374  0.00  0.00    -0.000 C 
ATOM     22  C   UNL     1      34.252 -15.049 -21.916  0.00  0.00    -0.000 C 
ENDBRANCH   2  10
BRANCH   8  24
ATOM     23  N   UNL     1      31.072  -2.201 -23.600  0.00  0.00    -0.312 N 
ATOM     24  C   UNL     1      33.399  -5.596 -23.675  0.00  0.00    +0.054 C 
ATOM     25  C   UNL     1      32.687  -5.189 -22.543  0.00  0.00    +0.006 C 
ATOM     26  C   UNL     1      33.356  -4.860 -24.854  0.00  0.00    +0.006 C 
ATOM     27  C   UNL     1      31.916  -4.013 -22.608  0.00  0.00    +0.015 C 
ATOM     28  C   UNL     1      31.888  -3.291 -23.803  0.00  0.00    +0.048 C 
ATOM     29  C   UNL     1      32.597  -3.689 -24.942  0.00  0.00    +0.015 C 
ATOM     30  C   UNL     1      31.089  -3.317 -21.681  0.00  0.00    +0.017 C 
ATOM     31  C   UNL     1      30.584  -2.209 -22.321  0.00  0.00    +0.062 C 
ATOM     32  H   UNL     1      30.869  -1.515 -24.276  0.00  0.00    +0.152 HD
ENDBRANCH   8  24
TORSDOF 2
ENDMDL
MODEL 5
REMARK VINA RESULT:     -10.2      2.028      3.521
REMARK  Name = 447767
REMARK  2 active torsions:
REMARK  status: ('A' for Active; 'I' for Inactive)
REMARK    1  A    between atoms: N_2  and  C_10
REMARK    2  A    between atoms: C_8  and  C_24
REMARK                            x       y       z     vdW  Elec       q    Type
REMARK                         _______ _______ _______ _____ _____    ______ ____
ROOT
ATOM      1  O   UNL     1      31.758  -8.306 -19.811  0.00  0.00    -0.270 OA
ATOM      2  N   UNL     1      32.084  -5.468 -23.895  0.00  0.00    +0.396 N 
ATOM      3  N   UNL     1      31.587  -7.581 -22.026  0.00  0.00    -0.280 N 
ATOM      4  C   UNL     1      32.460  -6.852 -24.221  0.00  0.00    -0.054 C 
ATOM      5  C   UNL     1      32.207  -5.230 -22.450  0.00  0.00    -0.054 C 
ATOM      6  C   UNL     1      31.582  -7.854 -23.469  0.00  0.00    +0.071 C 
ATOM      7  C   UNL     1      31.314  -6.191 -21.668  0.00  0.00    +0.071 C 
ATOM      8  C   UNL     1      31.754  -8.535 -21.019  0.00  0.00    +0.249 C 
ATOM      9  H   UNL     1      31.110  -5.327 -24.163  0.00  0.00    -0.079 HD
ENDROOT
BRANCH   2  10
ATOM     10  C   UNL     1      32.910  -4.521 -24.644  0.00  0.00    -0.011 C 
ATOM     11  C   UNL     1      32.071  -3.549 -25.463  0.00  0.00    -0.038 C 
ATOM     12  C   UNL     1      33.727  -5.205 -25.731  0.00  0.00    -0.038 C 
ATOM     13  C   UNL     1      32.378  -3.669 -26.838  0.00  0.00    -0.006 C 
ATOM     14  C   UNL     1      33.394  -4.686 -27.002  0.00  0.00    -0.006 C 
ATOM     15  C   UNL     1      31.137  -2.631 -25.013  0.00  0.00    -0.006 C 
ATOM     16  C   UNL     1      34.694  -6.188 -25.587  0.00  0.00    -0.006 C 
ATOM     17  C   UNL     1      31.738  -2.875 -27.775  0.00  0.00    -0.000 C 
ATOM     18  C   UNL     1      34.021  -5.158 -28.144  0.00  0.00    -0.000 C 
ATOM     19  C   UNL     1      30.492  -1.831 -25.957  0.00  0.00    -0.000 C 
ATOM     20  C   UNL     1      35.325  -6.664 -26.738  0.00  0.00    -0.000 C 
ATOM     21  C   UNL     1      30.789  -1.951 -27.325  0.00  0.00    -0.000 C 
ATOM     22  C   UNL     1      34.991  -6.154 -28.003  0.00  0.00    -0.000 C 
ENDBRANCH   2  10
BRANCH   8  24
ATOM     23  N   UNL     1      32.599 -13.790 -22.705  0.00  0.00    -0.312 N 
ATOM     24  C   UNL     1      31.934  -9.938 -21.416  0.00  0.00    +0.054 C 
ATOM     25  C   UNL     1      32.770 -10.244 -22.493  0.00  0.00    +0.006 C 
ATOM     26  C   UNL     1      31.272 -10.939 -20.713  0.00  0.00    +0.006 C 
ATOM     27  C   UNL     1      32.940 -11.591 -22.865  0.00  0.00    +0.015 C 
ATOM     28  C   UNL     1      32.264 -12.579 -22.145  0.00  0.00    +0.048 C 
ATOM     29  C   UNL     1      31.425 -12.284 -21.065  0.00  0.00    +0.015 C 
ATOM     30  C   UNL     1      33.690 -12.254 -23.878  0.00  0.00    +0.017 C 
ATOM     31  C   UNL     1      33.459 -13.604 -23.754  0.00  0.00    +0.062 C 
ATOM     32  H   UNL     1      32.267 -14.665 -22.398  0.00  0.00    +0.152 HD
ENDBRANCH   8  24
TORSDOF 2
ENDMDL
MODEL 6
REMARK VINA RESULT:     -10.1      9.501     15.618
REMARK  Name = 447767
REMARK  2 active torsions:
REMARK  status: ('A' for Active; 'I' for Inactive)
REMARK    1  A    between atoms: N_2  and  C_10
REMARK    2  A    between atoms: C_8  and  C_24
REMARK                            x       y       z     vdW  Elec       q    Type
REMARK                         _______ _______ _______ _____ _____    ______ ____
ROOT
ATOM      1  O   UNL     1      36.626 -21.995 -20.030  0.00  0.00    -0.270 OA
ATOM      2  N   UNL     1      32.404 -22.733 -17.485  0.00  0.00    +0.396 N 
ATOM      3  N   UNL     1      34.358 -22.057 -19.467  0.00  0.00    -0.280 N 
ATOM      4  C   UNL     1      32.352 -21.431 -18.166  0.00  0.00    -0.054 C 
ATOM      5  C   UNL     1      33.796 -23.183 -17.344  0.00  0.00    -0.054 C 
ATOM      6  C   UNL     1      33.000 -21.505 -19.550  0.00  0.00    +0.071 C 
ATOM      7  C   UNL     1      34.464 -23.303 -18.712  0.00  0.00    +0.071 C 
ATOM      8  C   UNL     1      35.488 -21.532 -20.098  0.00  0.00    +0.249 C 
ATOM      9  H   UNL     1      31.901 -23.414 -18.054  0.00  0.00    -0.079 HD
ENDROOT
BRANCH   2  10
ATOM     10  C   UNL     1      31.754 -22.656 -16.178  0.00  0.00    -0.011 C 
ATOM     11  C   UNL     1      32.521 -23.422 -15.107  0.00  0.00    -0.038 C 
ATOM     12  C   UNL     1      30.412 -23.375 -16.159  0.00  0.00    -0.038 C 
ATOM     13  C   UNL     1      31.714 -24.442 -14.555  0.00  0.00    -0.006 C 
ATOM     14  C   UNL     1      30.419 -24.413 -15.201  0.00  0.00    -0.006 C 
ATOM     15  C   UNL     1      33.814 -23.208 -14.660  0.00  0.00    -0.006 C 
ATOM     16  C   UNL     1      29.284 -23.106 -16.918  0.00  0.00    -0.006 C 
ATOM     17  C   UNL     1      32.204 -25.266 -13.555  0.00  0.00    -0.000 C 
ATOM     18  C   UNL     1      29.296 -25.201 -15.004  0.00  0.00    -0.000 C 
ATOM     19  C   UNL     1      34.308 -24.038 -13.652  0.00  0.00    -0.000 C 
ATOM     20  C   UNL     1      28.153 -23.900 -16.721  0.00  0.00    -0.000 C 
ATOM     21  C   UNL     1      33.512 -25.057 -13.105  0.00  0.00    -0.000 C 
ATOM     22  C   UNL     1      28.159 -24.937 -15.774  0.00  0.00    -0.000 C 
ENDBRANCH   2  10
BRANCH   8  24
ATOM     23  N   UNL     1      34.749 -17.100 -23.413  0.00  0.00    -0.312 N 
ATOM     24  C   UNL     1      35.325 -20.329 -20.925  0.00  0.00    +0.054 C 
ATOM     25  C   UNL     1      34.696 -20.431 -22.168  0.00  0.00    +0.006 C 
ATOM     26  C   UNL     1      35.797 -19.106 -20.458  0.00  0.00    +0.006 C 
ATOM     27  C   UNL     1      34.541 -19.273 -22.954  0.00  0.00    +0.015 C 
ATOM     28  C   UNL     1      35.023 -18.058 -22.464  0.00  0.00    +0.048 C 
ATOM     29  C   UNL     1      35.655 -17.944 -21.221  0.00  0.00    +0.015 C 
ATOM     30  C   UNL     1      33.968 -19.010 -24.230  0.00  0.00    +0.017 C 
ATOM     31  C   UNL     1      34.112 -17.666 -24.485  0.00  0.00    +0.062 C 
ATOM     32  H   UNL     1      34.977 -16.146 -23.334  0.00  0.00    +0.152 HD
ENDBRANCH   8  24
TORSDOF 2
ENDMDL
