MODEL 1
REMARK VINA RESULT:     -11.9      0.000      0.000
REMARK  Name = 9910098
REMARK  9 active torsions:
REMARK  status: ('A' for Active; 'I' for Inactive)
REMARK    1  A    between atoms: N_1  and  C1*_12
REMARK    2  A    between atoms: C_9  and  O_25
REMARK    3  A    between atoms: C2*_11  and  O2*_15
REMARK    4  A    between atoms: C3*_13  and  O3*_17
REMARK    5  A    between atoms: C4*_14  and  C5*_19
REMARK    6  A    between atoms: C5*_19  and  O5*_20
REMARK    7  A    between atoms: O_25  and  C_26
REMARK    8  A    between atoms: C_26  and  C_27
REMARK    9  A    between atoms: C_27  and  C_29
REMARK                            x       y       z     vdW  Elec       q    Type
REMARK                         _______ _______ _______ _____ _____    ______ ____
ROOT
ATOM      1  N   UNL     1      34.744 -23.735 -14.739  0.00  0.00    -0.236 N 
ATOM      2  N   UNL     1      32.536 -23.731 -14.417  0.00  0.00    -0.240 NA
ATOM      3  N   UNL     1      34.823 -23.080 -17.078  0.00  0.00    -0.294 NA
ATOM      4  N   UNL     1      32.581 -22.729 -17.978  0.00  0.00    -0.295 NA
ATOM      5  C   UNL     1      34.186 -23.375 -15.934  0.00  0.00    +0.223 C 
ATOM      6  C   UNL     1      33.711 -23.939 -13.861  0.00  0.00    +0.224 C 
ATOM      7  C   UNL     1      32.818 -23.377 -15.713  0.00  0.00    +0.167 C 
ATOM      8  C   UNL     1      32.006 -23.039 -16.791  0.00  0.00    +0.214 C 
ATOM      9  C   UNL     1      33.934 -22.770 -18.046  0.00  0.00    +0.313 C 
ATOM     10  N   UNL     1      30.607 -23.018 -16.657  0.00  0.00    -0.331 N 
ATOM     11  H   UNL     1      30.043 -22.777 -17.426  0.00  0.00    +0.145 HD
ATOM     12  H   UNL     1      30.192 -23.244 -15.793  0.00  0.00    +0.145 HD
ENDROOT
BRANCH   1  15
ATOM     13  O4* UNL     1      36.677 -25.063 -15.112  0.00  0.00    -0.333 OA
ATOM     14  C2* UNL     1      36.478 -24.029 -12.955  0.00  0.00    +0.187 C 
ATOM     15  C1* UNL     1      36.170 -23.886 -14.446  0.00  0.00    +0.226 C 
ATOM     16  C3* UNL     1      36.749 -25.515 -12.808  0.00  0.00    +0.171 C 
ATOM     17  C4* UNL     1      37.379 -25.861 -14.146  0.00  0.00    +0.175 C 
BRANCH  14  18
ATOM     18  O2* UNL     1      37.637 -23.259 -12.638  0.00  0.00    -0.378 OA
ATOM     19  H2* UNL     1      37.810 -23.314 -11.685  0.00  0.00    +0.211 HD
ENDBRANCH  14  18
BRANCH  16  20
ATOM     20  O3* UNL     1      37.596 -25.828 -11.724  0.00  0.00    -0.379 OA
ATOM     21  H3* UNL     1      37.904 -25.009 -11.307  0.00  0.00    +0.211 HD
ENDBRANCH  16  20
BRANCH  17  22
ATOM     22  C5* UNL     1      37.259 -27.330 -14.509  0.00  0.00    +0.169 C 
BRANCH  22  23
ATOM     23  O5* UNL     1      36.741 -27.433 -15.824  0.00  0.00    -0.379 OA
ATOM     24  H5* UNL     1      36.535 -26.547 -16.161  0.00  0.00    +0.211 HD
ENDBRANCH  22  23
ENDBRANCH  17  22
ENDBRANCH   1  15
BRANCH   9  25
ATOM     25  O   UNL     1      34.477 -22.442 -19.269  0.00  0.00    -0.399 OA
BRANCH  25  26
ATOM     26  C   UNL     1      34.217 -21.131 -19.747  0.00  0.00    +0.227 C 
BRANCH  26  27
ATOM     27  C   UNL     1      35.505 -20.511 -20.278  0.00  0.00    +0.075 C 
BRANCH  27  29
ATOM     28 CL   UNL     1      34.492 -16.513 -24.638  0.00  0.00    -0.082 Cl
ATOM     29  C   UNL     1      35.249 -19.505 -21.373  0.00  0.00    -0.018 C 
ATOM     30  C   UNL     1      34.650 -19.922 -22.552  0.00  0.00    -0.003 C 
ATOM     31  C   UNL     1      35.619 -18.183 -21.182  0.00  0.00    -0.003 C 
ATOM     32  C   UNL     1      34.414 -18.993 -23.565  0.00  0.00    +0.011 C 
ATOM     33  C   UNL     1      35.384 -17.254 -22.196  0.00  0.00    +0.011 C 
ATOM     34  C   UNL     1      34.781 -17.659 -23.387  0.00  0.00    +0.058 C 
ENDBRANCH  27  29
ENDBRANCH  26  27
ENDBRANCH  25  26
ENDBRANCH   9  25
TORSDOF 9
ENDMDL
MODEL 2
REMARK VINA RESULT:     -11.5      1.261      1.923
REMARK  Name = 9910098
REMARK  9 active torsions:
REMARK  status: ('A' for Active; 'I' for Inactive)
REMARK    1  A    between atoms: N_1  and  C1*_12
REMARK    2  A    between atoms: C_9  and  O_25
REMARK    3  A    between atoms: C2*_11  and  O2*_15
REMARK    4  A    between atoms: C3*_13  and  O3*_17
REMARK    5  A    between atoms: C4*_14  and  C5*_19
REMARK    6  A    between atoms: C5*_19  and  O5*_20
REMARK    7  A    between atoms: O_25  and  C_26
REMARK    8  A    between atoms: C_26  and  C_27
REMARK    9  A    between atoms: C_27  and  C_29
REMARK                            x       y       z     vdW  Elec       q    Type
REMARK                         _______ _______ _______ _____ _____    ______ ____
ROOT
ATOM      1  N   UNL     1      34.375 -24.190 -14.469  0.00  0.00    -0.236 N 
ATOM      2  N   UNL     1      32.166 -23.896 -14.342  0.00  0.00    -0.240 NA
ATOM      3  N   UNL     1      34.759 -23.455 -16.753  0.00  0.00    -0.294 NA
ATOM      4  N   UNL     1      32.679 -22.763 -17.826  0.00  0.00    -0.295 NA
ATOM      5  C   UNL     1      33.984 -23.707 -15.688  0.00  0.00    +0.223 C 
ATOM      6  C   UNL     1      33.246 -24.287 -13.698  0.00  0.00    +0.224 C 
ATOM      7  C   UNL     1      32.613 -23.531 -15.587  0.00  0.00    +0.167 C 
ATOM      8  C   UNL     1      31.959 -23.039 -16.712  0.00  0.00    +0.214 C 
ATOM      9  C   UNL     1      34.015 -22.985 -17.777  0.00  0.00    +0.313 C 
ATOM     10  N   UNL     1      30.568 -22.832 -16.700  0.00  0.00    -0.331 N 
ATOM     11  H   UNL     1      30.116 -22.484 -17.502  0.00  0.00    +0.145 HD
ATOM     12  H   UNL     1      30.048 -23.034 -15.889  0.00  0.00    +0.145 HD
ENDROOT
BRANCH   1  15
ATOM     13  O4* UNL     1      35.680 -25.388 -12.888  0.00  0.00    -0.333 OA
ATOM     14  C2* UNL     1      36.611 -23.341 -13.726  0.00  0.00    +0.187 C 
ATOM     15  C1* UNL     1      35.734 -24.548 -14.061  0.00  0.00    +0.226 C 
ATOM     16  C3* UNL     1      36.633 -23.352 -12.209  0.00  0.00    +0.171 C 
ATOM     17  C4* UNL     1      36.560 -24.836 -11.897  0.00  0.00    +0.175 C 
BRANCH  14  18
ATOM     18  O2* UNL     1      37.917 -23.544 -14.263  0.00  0.00    -0.378 OA
ATOM     19  H2* UNL     1      38.575 -23.451 -13.556  0.00  0.00    +0.211 HD
ENDBRANCH  14  18
BRANCH  16  20
ATOM     20  O3* UNL     1      37.784 -22.748 -11.658  0.00  0.00    -0.379 OA
ATOM     21  H3* UNL     1      37.877 -21.849 -12.009  0.00  0.00    +0.211 HD
ENDBRANCH  16  20
BRANCH  17  22
ATOM     22  C5* UNL     1      36.023 -25.137 -10.509  0.00  0.00    +0.169 C 
BRANCH  22  23
ATOM     23  O5* UNL     1      36.450 -24.114  -9.626  0.00  0.00    -0.379 OA
ATOM     24  H5* UNL     1      36.992 -24.500  -8.920  0.00  0.00    +0.211 HD
ENDBRANCH  22  23
ENDBRANCH  17  22
ENDBRANCH   1  15
BRANCH   9  25
ATOM     25  O   UNL     1      34.709 -22.685 -18.929  0.00  0.00    -0.399 OA
BRANCH  25  26
ATOM     26  C   UNL     1      34.378 -21.461 -19.567  0.00  0.00    +0.227 C 
BRANCH  26  27
ATOM     27  C   UNL     1      35.651 -20.757 -20.024  0.00  0.00    +0.075 C 
BRANCH  27  29
ATOM     28 CL   UNL     1      34.617 -16.761 -24.381  0.00  0.00    -0.082 Cl
ATOM     29  C   UNL     1      35.390 -19.751 -21.119  0.00  0.00    -0.018 C 
ATOM     30  C   UNL     1      34.663 -20.136 -22.235  0.00  0.00    -0.003 C 
ATOM     31  C   UNL     1      35.882 -18.462 -20.989  0.00  0.00    -0.003 C 
ATOM     32  C   UNL     1      34.423 -19.208 -23.247  0.00  0.00    +0.011 C 
ATOM     33  C   UNL     1      35.642 -17.534 -22.002  0.00  0.00    +0.011 C 
ATOM     34  C   UNL     1      34.912 -17.907 -23.131  0.00  0.00    +0.058 C 
ENDBRANCH  27  29
ENDBRANCH  26  27
ENDBRANCH  25  26
ENDBRANCH   9  25
TORSDOF 9
ENDMDL
MODEL 3
REMARK VINA RESULT:     -11.3      1.602      2.193
REMARK  Name = 9910098
REMARK  9 active torsions:
REMARK  status: ('A' for Active; 'I' for Inactive)
REMARK    1  A    between atoms: N_1  and  C1*_12
REMARK    2  A    between atoms: C_9  and  O_25
REMARK    3  A    between atoms: C2*_11  and  O2*_15
REMARK    4  A    between atoms: C3*_13  and  O3*_17
REMARK    5  A    between atoms: C4*_14  and  C5*_19
REMARK    6  A    between atoms: C5*_19  and  O5*_20
REMARK    7  A    between atoms: O_25  and  C_26
REMARK    8  A    between atoms: C_26  and  C_27
REMARK    9  A    between atoms: C_27  and  C_29
REMARK                            x       y       z     vdW  Elec       q    Type
REMARK                         _______ _______ _______ _____ _____    ______ ____
ROOT
ATOM      1  N   UNL     1      34.321 -24.212 -14.051  0.00  0.00    -0.236 N 
ATOM      2  N   UNL     1      32.435 -24.629 -12.935  0.00  0.00    -0.240 NA
ATOM      3  N   UNL     1      33.392 -23.451 -16.164  0.00  0.00    -0.294 NA
ATOM      4  N   UNL     1      30.952 -23.481 -16.123  0.00  0.00    -0.295 NA
ATOM      5  C   UNL     1      33.298 -23.908 -14.906  0.00  0.00    +0.223 C 
ATOM      6  C   UNL     1      33.750 -24.641 -12.882  0.00  0.00    +0.224 C 
ATOM      7  C   UNL     1      32.139 -24.173 -14.195  0.00  0.00    +0.167 C 
ATOM      8  C   UNL     1      30.933 -23.943 -14.850  0.00  0.00    +0.214 C 
ATOM      9  C   UNL     1      32.164 -23.268 -16.693  0.00  0.00    +0.313 C 
ATOM     10  N   UNL     1      29.708 -24.186 -14.205  0.00  0.00    -0.331 N 
ATOM     11  H   UNL     1      28.861 -24.019 -14.678  0.00  0.00    +0.145 HD
ATOM     12  H   UNL     1      29.697 -24.522 -13.279  0.00  0.00    +0.145 HD
ENDROOT
BRANCH   1  15
ATOM     13  O4* UNL     1      36.171 -25.231 -15.136  0.00  0.00    -0.333 OA
ATOM     14  C2* UNL     1      36.623 -24.101 -13.068  0.00  0.00    +0.187 C 
ATOM     15  C1* UNL     1      35.755 -24.110 -14.327  0.00  0.00    +0.226 C 
ATOM     16  C3* UNL     1      37.184 -25.510 -13.036  0.00  0.00    +0.171 C 
ATOM     17  C4* UNL     1      37.313 -25.839 -14.513  0.00  0.00    +0.175 C 
BRANCH  14  18
ATOM     18  O2* UNL     1      37.662 -23.134 -13.219  0.00  0.00    -0.378 OA
ATOM     19  H2* UNL     1      37.700 -22.843 -14.144  0.00  0.00    +0.211 HD
ENDBRANCH  14  18
BRANCH  16  20
ATOM     20  O3* UNL     1      38.419 -25.608 -12.359  0.00  0.00    -0.379 OA
ATOM     21  H3* UNL     1      39.057 -26.078 -12.918  0.00  0.00    +0.211 HD
ENDBRANCH  16  20
BRANCH  17  22
ATOM     22  C5* UNL     1      37.325 -27.329 -14.802  0.00  0.00    +0.169 C 
BRANCH  22  23
ATOM     23  O5* UNL     1      36.683 -27.556 -16.045  0.00  0.00    -0.379 OA
ATOM     24  H5* UNL     1      36.259 -26.737 -16.345  0.00  0.00    +0.211 HD
ENDBRANCH  22  23
ENDBRANCH  17  22
ENDBRANCH   1  15
BRANCH   9  25
ATOM     25  O   UNL     1      32.136 -22.794 -17.986  0.00  0.00    -0.399 OA
BRANCH  25  26
ATOM     26  C   UNL     1      33.373 -22.345 -18.522  0.00  0.00    +0.227 C 
BRANCH  26  27
ATOM     27  C   UNL     1      33.115 -21.358 -19.655  0.00  0.00    +0.075 C 
BRANCH  27  29
ATOM     28 CL   UNL     1      38.155 -18.738 -21.592  0.00  0.00    -0.082 Cl
ATOM     29  C   UNL     1      34.382 -20.698 -20.140  0.00  0.00    -0.018 C 
ATOM     30  C   UNL     1      34.303 -19.689 -21.088  0.00  0.00    -0.003 C 
ATOM     31  C   UNL     1      35.603 -21.113 -19.632  0.00  0.00    -0.003 C 
ATOM     32  C   UNL     1      35.474 -19.079 -21.538  0.00  0.00    +0.011 C 
ATOM     33  C   UNL     1      36.775 -20.505 -20.083  0.00  0.00    +0.011 C 
ATOM     34  C   UNL     1      36.710 -19.487 -21.036  0.00  0.00    +0.058 C 
ENDBRANCH  27  29
ENDBRANCH  26  27
ENDBRANCH  25  26
ENDBRANCH   9  25
TORSDOF 9
ENDMDL
MODEL 4
REMARK VINA RESULT:     -11.2      1.173      1.666
REMARK  Name = 9910098
REMARK  9 active torsions:
REMARK  status: ('A' for Active; 'I' for Inactive)
REMARK    1  A    between atoms: N_1  and  C1*_12
REMARK    2  A    between atoms: C_9  and  O_25
REMARK    3  A    between atoms: C2*_11  and  O2*_15
REMARK    4  A    between atoms: C3*_13  and  O3*_17
REMARK    5  A    between atoms: C4*_14  and  C5*_19
REMARK    6  A    between atoms: C5*_19  and  O5*_20
REMARK    7  A    between atoms: O_25  and  C_26
REMARK    8  A    between atoms: C_26  and  C_27
REMARK    9  A    between atoms: C_27  and  C_29
REMARK                            x       y       z     vdW  Elec       q    Type
REMARK                         _______ _______ _______ _____ _____    ______ ____
ROOT
ATOM      1  N   UNL     1      34.550 -24.404 -14.795  0.00  0.00    -0.236 N 
ATOM      2  N   UNL     1      32.435 -24.430 -14.086  0.00  0.00    -0.240 NA
ATOM      3  N   UNL     1      34.258 -23.277 -16.928  0.00  0.00    -0.294 NA
ATOM      4  N   UNL     1      31.917 -22.709 -17.319  0.00  0.00    -0.295 NA
ATOM      5  C   UNL     1      33.814 -23.793 -15.772  0.00  0.00    +0.223 C 
ATOM      6  C   UNL     1      33.675 -24.768 -13.805  0.00  0.00    +0.224 C 
ATOM      7  C   UNL     1      32.507 -23.818 -15.312  0.00  0.00    +0.167 C 
ATOM      8  C   UNL     1      31.540 -23.249 -16.135  0.00  0.00    +0.214 C 
ATOM      9  C   UNL     1      33.234 -22.757 -17.637  0.00  0.00    +0.313 C 
ATOM     10  N   UNL     1      30.188 -23.233 -15.750  0.00  0.00    -0.331 N 
ATOM     11  H   UNL     1      29.514 -22.827 -16.340  0.00  0.00    +0.145 HD
ATOM     12  H   UNL     1      29.918 -23.627 -14.889  0.00  0.00    +0.145 HD
ENDROOT
BRANCH   1  15
ATOM     13  O4* UNL     1      36.292 -25.845 -14.068  0.00  0.00    -0.333 OA
ATOM     14  C2* UNL     1      36.802 -23.502 -14.166  0.00  0.00    +0.187 C 
ATOM     15  C1* UNL     1      35.995 -24.636 -14.800  0.00  0.00    +0.226 C 
ATOM     16  C3* UNL     1      37.168 -24.067 -12.807  0.00  0.00    +0.171 C 
ATOM     17  C4* UNL     1      37.315 -25.549 -13.104  0.00  0.00    +0.175 C 
BRANCH  14  18
ATOM     18  O2* UNL     1      37.966 -23.255 -14.954  0.00  0.00    -0.378 OA
ATOM     19  H2* UNL     1      38.353 -22.402 -14.700  0.00  0.00    +0.211 HD
ENDBRANCH  14  18
BRANCH  16  20
ATOM     20  O3* UNL     1      38.348 -23.514 -12.266  0.00  0.00    -0.379 OA
ATOM     21  H3* UNL     1      38.150 -22.648 -11.877  0.00  0.00    +0.211 HD
ENDBRANCH  16  20
BRANCH  17  22
ATOM     22  C5* UNL     1      37.139 -26.432 -11.881  0.00  0.00    +0.169 C 
BRANCH  22  23
ATOM     23  O5* UNL     1      36.064 -25.927 -11.108  0.00  0.00    -0.379 OA
ATOM     24  H5* UNL     1      36.120 -26.280 -10.206  0.00  0.00    +0.211 HD
ENDBRANCH  22  23
ENDBRANCH  17  22
ENDBRANCH   1  15
BRANCH   9  25
ATOM     25  O   UNL     1      33.574 -22.191 -18.847  0.00  0.00    -0.399 OA
BRANCH  25  26
ATOM     26  C   UNL     1      34.843 -22.545 -19.377  0.00  0.00    +0.227 C 
BRANCH  26  27
ATOM     27  C   UNL     1      35.797 -21.362 -19.261  0.00  0.00    +0.075 C 
BRANCH  27  29
ATOM     28 CL   UNL     1      35.111 -17.434 -23.747  0.00  0.00    -0.082 Cl
ATOM     29  C   UNL     1      35.624 -20.373 -20.387  0.00  0.00    -0.018 C 
ATOM     30  C   UNL     1      34.444 -20.372 -21.115  0.00  0.00    -0.003 C 
ATOM     31  C   UNL     1      36.648 -19.484 -20.676  0.00  0.00    -0.003 C 
ATOM     32  C   UNL     1      34.285 -19.459 -22.158  0.00  0.00    +0.011 C 
ATOM     33  C   UNL     1      36.489 -18.572 -21.719  0.00  0.00    +0.011 C 
ATOM     34  C   UNL     1      35.307 -18.560 -22.460  0.00  0.00    +0.058 C 
ENDBRANCH  27  29
ENDBRANCH  26  27
ENDBRANCH  25  26
ENDBRANCH   9  25
TORSDOF 9
ENDMDL
MODEL 5
REMARK VINA RESULT:     -10.7      1.395      2.125
REMARK  Name = 9910098
REMARK  9 active torsions:
REMARK  status: ('A' for Active; 'I' for Inactive)
REMARK    1  A    between atoms: N_1  and  C1*_12
REMARK    2  A    between atoms: C_9  and  O_25
REMARK    3  A    between atoms: C2*_11  and  O2*_15
REMARK    4  A    between atoms: C3*_13  and  O3*_17
REMARK    5  A    between atoms: C4*_14  and  C5*_19
REMARK    6  A    between atoms: C5*_19  and  O5*_20
REMARK    7  A    between atoms: O_25  and  C_26
REMARK    8  A    between atoms: C_26  and  C_27
REMARK    9  A    between atoms: C_27  and  C_29
REMARK                            x       y       z     vdW  Elec       q    Type
REMARK                         _______ _______ _______ _____ _____    ______ ____
ROOT
ATOM      1  N   UNL     1      33.868 -24.052 -13.910  0.00  0.00    -0.236 N 
ATOM      2  N   UNL     1      31.652 -23.793 -13.986  0.00  0.00    -0.240 NA
ATOM      3  N   UNL     1      34.425 -23.525 -16.216  0.00  0.00    -0.294 NA
ATOM      4  N   UNL     1      32.429 -22.979 -17.509  0.00  0.00    -0.295 NA
ATOM      5  C   UNL     1      33.570 -23.693 -15.195  0.00  0.00    +0.223 C 
ATOM      6  C   UNL     1      32.682 -24.100 -13.224  0.00  0.00    +0.224 C 
ATOM      7  C   UNL     1      32.193 -23.536 -15.220  0.00  0.00    +0.167 C 
ATOM      8  C   UNL     1      31.625 -23.165 -16.435  0.00  0.00    +0.214 C 
ATOM      9  C   UNL     1      33.760 -23.168 -17.335  0.00  0.00    +0.313 C 
ATOM     10  N   UNL     1      30.236 -22.986 -16.552  0.00  0.00    -0.331 N 
ATOM     11  H   UNL     1      29.845 -22.723 -17.417  0.00  0.00    +0.145 HD
ATOM     12  H   UNL     1      29.654 -23.123 -15.769  0.00  0.00    +0.145 HD
ENDROOT
BRANCH   1  15
ATOM     13  O4* UNL     1      36.140 -23.367 -13.853  0.00  0.00    -0.333 OA
ATOM     14  C2* UNL     1      35.723 -25.728 -13.739  0.00  0.00    +0.187 C 
ATOM     15  C1* UNL     1      35.194 -24.342 -13.364  0.00  0.00    +0.226 C 
ATOM     16  C3* UNL     1      36.731 -25.419 -14.830  0.00  0.00    +0.171 C 
ATOM     17  C4* UNL     1      37.270 -24.067 -14.398  0.00  0.00    +0.175 C 
BRANCH  14  18
ATOM     18  O2* UNL     1      36.355 -26.314 -12.602  0.00  0.00    -0.378 OA
ATOM     19  H2* UNL     1      35.889 -26.040 -11.796  0.00  0.00    +0.211 HD
ENDBRANCH  14  18
BRANCH  16  20
ATOM     20  O3* UNL     1      37.752 -26.387 -14.943  0.00  0.00    -0.379 OA
ATOM     21  H3* UNL     1      37.563 -26.970 -15.695  0.00  0.00    +0.211 HD
ENDBRANCH  16  20
BRANCH  17  22
ATOM     22  C5* UNL     1      37.872 -23.263 -15.537  0.00  0.00    +0.169 C 
BRANCH  22  23
ATOM     23  O5* UNL     1      37.242 -21.995 -15.580  0.00  0.00    -0.379 OA
ATOM     24  H5* UNL     1      36.703 -21.927 -16.383  0.00  0.00    +0.211 HD
ENDBRANCH  22  23
ENDBRANCH  17  22
ENDBRANCH   1  15
BRANCH   9  25
ATOM     25  O   UNL     1      34.540 -22.963 -18.452  0.00  0.00    -0.399 OA
BRANCH  25  26
ATOM     26  C   UNL     1      35.561 -21.982 -18.339  0.00  0.00    +0.227 C 
BRANCH  26  27
ATOM     27  C   UNL     1      36.321 -21.876 -19.657  0.00  0.00    +0.075 C 
BRANCH  27  29
ATOM     28 CL   UNL     1      35.075 -16.802 -22.611  0.00  0.00    -0.082 Cl
ATOM     29  C   UNL     1      36.007 -20.599 -20.398  0.00  0.00    -0.018 C 
ATOM     30  C   UNL     1      34.727 -20.396 -20.890  0.00  0.00    -0.003 C 
ATOM     31  C   UNL     1      37.005 -19.653 -20.575  0.00  0.00    -0.003 C 
ATOM     32  C   UNL     1      34.438 -19.217 -21.576  0.00  0.00    +0.011 C 
ATOM     33  C   UNL     1      36.716 -18.474 -21.262  0.00  0.00    +0.011 C 
ATOM     34  C   UNL     1      35.432 -18.256 -21.762  0.00  0.00    +0.058 C 
ENDBRANCH  27  29
ENDBRANCH  26  27
ENDBRANCH  25  26
ENDBRANCH   9  25
TORSDOF 9
ENDMDL
MODEL 6
REMARK VINA RESULT:     -10.4      3.947      6.227
REMARK  Name = 9910098
REMARK  9 active torsions:
REMARK  status: ('A' for Active; 'I' for Inactive)
REMARK    1  A    between atoms: N_1  and  C1*_12
REMARK    2  A    between atoms: C_9  and  O_25
REMARK    3  A    between atoms: C2*_11  and  O2*_15
REMARK    4  A    between atoms: C3*_13  and  O3*_17
REMARK    5  A    between atoms: C4*_14  and  C5*_19
REMARK    6  A    between atoms: C5*_19  and  O5*_20
REMARK    7  A    between atoms: O_25  and  C_26
REMARK    8  A    between atoms: C_26  and  C_27
REMARK    9  A    between atoms: C_27  and  C_29
REMARK                            x       y       z     vdW  Elec       q    Type
REMARK                         _______ _______ _______ _____ _____    ______ ____
ROOT
ATOM      1  N   UNL     1      36.397 -23.417 -15.606  0.00  0.00    -0.236 N 
ATOM      2  N   UNL     1      36.520 -22.236 -17.495  0.00  0.00    -0.240 NA
ATOM      3  N   UNL     1      34.021 -23.926 -15.590  0.00  0.00    -0.294 NA
ATOM      4  N   UNL     1      32.896 -22.973 -17.535  0.00  0.00    -0.295 NA
ATOM      5  C   UNL     1      35.127 -23.374 -16.112  0.00  0.00    +0.223 C 
ATOM      6  C   UNL     1      37.196 -22.718 -16.474  0.00  0.00    +0.224 C 
ATOM      7  C   UNL     1      35.226 -22.639 -17.282  0.00  0.00    +0.167 C 
ATOM      8  C   UNL     1      34.052 -22.445 -18.004  0.00  0.00    +0.214 C 
ATOM      9  C   UNL     1      32.952 -23.670 -16.374  0.00  0.00    +0.313 C 
ATOM     10  N   UNL     1      34.059 -21.709 -19.201  0.00  0.00    -0.331 N 
ATOM     11  H   UNL     1      33.222 -21.578 -19.703  0.00  0.00    +0.145 HD
ATOM     12  H   UNL     1      34.901 -21.326 -19.538  0.00  0.00    +0.145 HD
ENDROOT
BRANCH   1  15
ATOM     13  O4* UNL     1      38.256 -23.922 -14.219  0.00  0.00    -0.333 OA
ATOM     14  C2* UNL     1      36.516 -25.570 -14.330  0.00  0.00    +0.187 C 
ATOM     15  C1* UNL     1      36.829 -24.074 -14.371  0.00  0.00    +0.226 C 
ATOM     16  C3* UNL     1      37.865 -26.204 -14.611  0.00  0.00    +0.171 C 
ATOM     17  C4* UNL     1      38.824 -25.217 -13.969  0.00  0.00    +0.175 C 
BRANCH  14  18
ATOM     18  O2* UNL     1      36.042 -25.916 -13.029  0.00  0.00    -0.378 OA
ATOM     19  H2* UNL     1      36.697 -26.479 -12.586  0.00  0.00    +0.211 HD
ENDBRANCH  14  18
BRANCH  16  20
ATOM     20  O3* UNL     1      37.999 -27.503 -14.074  0.00  0.00    -0.379 OA
ATOM     21  H3* UNL     1      37.289 -28.069 -14.415  0.00  0.00    +0.211 HD
ENDBRANCH  16  20
BRANCH  17  22
ATOM     22  C5* UNL     1      40.230 -25.282 -14.540  0.00  0.00    +0.169 C 
BRANCH  22  23
ATOM     23  O5* UNL     1      40.222 -26.138 -15.668  0.00  0.00    -0.379 OA
ATOM     24  H5* UNL     1      40.978 -26.745 -15.620  0.00  0.00    +0.211 HD
ENDBRANCH  22  23
ENDBRANCH  17  22
ENDBRANCH   1  15
BRANCH   9  25
ATOM     25  O   UNL     1      31.755 -24.195 -15.938  0.00  0.00    -0.399 OA
BRANCH  25  26
ATOM     26  C   UNL     1      31.674 -24.528 -14.560  0.00  0.00    +0.227 C 
BRANCH  26  27
ATOM     27  C   UNL     1      30.234 -24.874 -14.197  0.00  0.00    +0.075 C 
BRANCH  27  29
ATOM     28 CL   UNL     1      26.265 -22.021 -17.680  0.00  0.00    -0.082 Cl
ATOM     29  C   UNL     1      29.234 -24.157 -15.072  0.00  0.00    -0.018 C 
ATOM     30  C   UNL     1      28.657 -24.831 -16.137  0.00  0.00    -0.003 C 
ATOM     31  C   UNL     1      28.913 -22.837 -14.795  0.00  0.00    -0.003 C 
ATOM     32  C   UNL     1      27.735 -24.168 -16.946  0.00  0.00    +0.011 C 
ATOM     33  C   UNL     1      27.991 -22.174 -15.605  0.00  0.00    +0.011 C 
ATOM     34  C   UNL     1      27.401 -22.840 -16.681  0.00  0.00    +0.058 C 
ENDBRANCH  27  29
ENDBRANCH  26  27
ENDBRANCH  25  26
ENDBRANCH   9  25
TORSDOF 9
ENDMDL
MODEL 7
REMARK VINA RESULT:     -10.3      9.054     13.611
REMARK  Name = 9910098
REMARK  9 active torsions:
REMARK  status: ('A' for Active; 'I' for Inactive)
REMARK    1  A    between atoms: N_1  and  C1*_12
REMARK    2  A    between atoms: C_9  and  O_25
REMARK    3  A    between atoms: C2*_11  and  O2*_15
REMARK    4  A    between atoms: C3*_13  and  O3*_17
REMARK    5  A    between atoms: C4*_14  and  C5*_19
REMARK    6  A    between atoms: C5*_19  and  O5*_20
REMARK    7  A    between atoms: O_25  and  C_26
REMARK    8  A    between atoms: C_26  and  C_27
REMARK    9  A    between atoms: C_27  and  C_29
REMARK                            x       y       z     vdW  Elec       q    Type
REMARK                         _______ _______ _______ _____ _____    ______ ____
ROOT
ATOM      1  N   UNL     1      31.895 -10.477 -21.954  0.00  0.00    -0.236 N 
ATOM      2  N   UNL     1      31.496 -11.607 -20.072  0.00  0.00    -0.240 NA
ATOM      3  N   UNL     1      32.965 -12.221 -23.265  0.00  0.00    -0.294 NA
ATOM      4  N   UNL     1      33.117 -14.309 -22.010  0.00  0.00    -0.295 NA
ATOM      5  C   UNL     1      32.373 -11.741 -22.160  0.00  0.00    +0.223 C 
ATOM      6  C   UNL     1      31.379 -10.448 -20.684  0.00  0.00    +0.224 C 
ATOM      7  C   UNL     1      32.116 -12.425 -20.983  0.00  0.00    +0.167 C 
ATOM      8  C   UNL     1      32.512 -13.758 -20.930  0.00  0.00    +0.214 C 
ATOM      9  C   UNL     1      33.304 -13.517 -23.094  0.00  0.00    +0.313 C 
ATOM     10  N   UNL     1      32.293 -14.526 -19.774  0.00  0.00    -0.331 N 
ATOM     11  H   UNL     1      32.577 -15.468 -19.748  0.00  0.00    +0.145 HD
ATOM     12  H   UNL     1      31.853 -14.122 -18.991  0.00  0.00    +0.145 HD
ENDROOT
BRANCH   1  15
ATOM     13  O4* UNL     1      33.179  -9.380 -23.622  0.00  0.00    -0.333 OA
ATOM     14  C2* UNL     1      31.803  -7.989 -22.233  0.00  0.00    +0.187 C 
ATOM     15  C1* UNL     1      31.930  -9.360 -22.899  0.00  0.00    +0.226 C 
ATOM     16  C3* UNL     1      33.228  -7.470 -22.257  0.00  0.00    +0.171 C 
ATOM     17  C4* UNL     1      33.769  -8.073 -23.541  0.00  0.00    +0.175 C 
BRANCH  14  18
ATOM     18  O2* UNL     1      30.940  -7.164 -23.015  0.00  0.00    -0.378 OA
ATOM     19  H2* UNL     1      30.204  -7.698 -23.355  0.00  0.00    +0.211 HD
ENDBRANCH  14  18
BRANCH  16  20
ATOM     20  O3* UNL     1      33.314  -6.061 -22.253  0.00  0.00    -0.379 OA
ATOM     21  H3* UNL     1      34.023  -5.782 -21.654  0.00  0.00    +0.211 HD
ENDBRANCH  16  20
BRANCH  17  22
ATOM     22  C5* UNL     1      35.283  -8.190 -23.563  0.00  0.00    +0.169 C 
BRANCH  22  23
ATOM     23  O5* UNL     1      35.632  -9.562 -23.616  0.00  0.00    -0.379 OA
ATOM     24  H5* UNL     1      36.210  -9.779 -22.869  0.00  0.00    +0.211 HD
ENDBRANCH  22  23
ENDBRANCH  17  22
ENDBRANCH   1  15
BRANCH   9  25
ATOM     25  O   UNL     1      33.917 -14.119 -24.171  0.00  0.00    -0.399 OA
BRANCH  25  26
ATOM     26  C   UNL     1      33.526 -15.454 -24.457  0.00  0.00    +0.227 C 
BRANCH  26  27
ATOM     27  C   UNL     1      34.763 -16.335 -24.592  0.00  0.00    +0.075 C 
BRANCH  27  29
ATOM     28 CL   UNL     1      35.041 -20.533 -20.311  0.00  0.00    -0.082 Cl
ATOM     29  C   UNL     1      34.835 -17.391 -23.516  0.00  0.00    -0.018 C 
ATOM     30  C   UNL     1      34.405 -18.678 -23.798  0.00  0.00    -0.003 C 
ATOM     31  C   UNL     1      35.326 -17.054 -22.264  0.00  0.00    -0.003 C 
ATOM     32  C   UNL     1      34.470 -19.654 -22.803  0.00  0.00    +0.011 C 
ATOM     33  C   UNL     1      35.391 -18.030 -21.269  0.00  0.00    +0.011 C 
ATOM     34  C   UNL     1      34.962 -19.330 -21.539  0.00  0.00    +0.058 C 
ENDBRANCH  27  29
ENDBRANCH  26  27
ENDBRANCH  25  26
ENDBRANCH   9  25
TORSDOF 9
ENDMDL
MODEL 8
REMARK VINA RESULT:     -10.3      5.930     11.035
REMARK  Name = 9910098
REMARK  9 active torsions:
REMARK  status: ('A' for Active; 'I' for Inactive)
REMARK    1  A    between atoms: N_1  and  C1*_12
REMARK    2  A    between atoms: C_9  and  O_25
REMARK    3  A    between atoms: C2*_11  and  O2*_15
REMARK    4  A    between atoms: C3*_13  and  O3*_17
REMARK    5  A    between atoms: C4*_14  and  C5*_19
REMARK    6  A    between atoms: C5*_19  and  O5*_20
REMARK    7  A    between atoms: O_25  and  C_26
REMARK    8  A    between atoms: C_26  and  C_27
REMARK    9  A    between atoms: C_27  and  C_29
REMARK                            x       y       z     vdW  Elec       q    Type
REMARK                         _______ _______ _______ _____ _____    ______ ____
ROOT
ATOM      1  N   UNL     1      34.304 -15.595 -23.572  0.00  0.00    -0.236 N 
ATOM      2  N   UNL     1      33.719 -16.962 -25.236  0.00  0.00    -0.240 NA
ATOM      3  N   UNL     1      35.113 -17.224 -21.961  0.00  0.00    -0.294 NA
ATOM      4  N   UNL     1      34.935 -19.498 -22.832  0.00  0.00    -0.295 NA
ATOM      5  C   UNL     1      34.588 -16.861 -23.141  0.00  0.00    +0.223 C 
ATOM      6  C   UNL     1      33.784 -15.710 -24.835  0.00  0.00    +0.224 C 
ATOM      7  C   UNL     1      34.220 -17.693 -24.187  0.00  0.00    +0.167 C 
ATOM      8  C   UNL     1      34.410 -19.058 -24.001  0.00  0.00    +0.214 C 
ATOM      9  C   UNL     1      35.248 -18.566 -21.899  0.00  0.00    +0.313 C 
ATOM     10  N   UNL     1      34.061 -19.975 -25.008  0.00  0.00    -0.331 N 
ATOM     11  H   UNL     1      34.201 -20.939 -24.865  0.00  0.00    +0.145 HD
ATOM     12  H   UNL     1      33.679 -19.652 -25.856  0.00  0.00    +0.145 HD
ENDROOT
BRANCH   1  15
ATOM     13  O4* UNL     1      33.972 -14.492 -21.496  0.00  0.00    -0.333 OA
ATOM     14  C2* UNL     1      33.829 -13.136 -23.471  0.00  0.00    +0.187 C 
ATOM     15  C1* UNL     1      34.506 -14.349 -22.830  0.00  0.00    +0.226 C 
ATOM     16  C3* UNL     1      32.605 -12.934 -22.600  0.00  0.00    +0.171 C 
ATOM     17  C4* UNL     1      33.103 -13.379 -21.236  0.00  0.00    +0.175 C 
BRANCH  14  18
ATOM     18  O2* UNL     1      34.708 -12.014 -23.397  0.00  0.00    -0.378 OA
ATOM     19  H2* UNL     1      34.561 -11.439 -24.164  0.00  0.00    +0.211 HD
ENDBRANCH  14  18
BRANCH  16  20
ATOM     20  O3* UNL     1      32.137 -11.602 -22.587  0.00  0.00    -0.379 OA
ATOM     21  H3* UNL     1      32.250 -11.212 -23.467  0.00  0.00    +0.211 HD
ENDBRANCH  16  20
BRANCH  17  22
ATOM     22  C5* UNL     1      31.990 -13.804 -20.295  0.00  0.00    +0.169 C 
BRANCH  22  23
ATOM     23  O5* UNL     1      32.433 -14.921 -19.544  0.00  0.00    -0.379 OA
ATOM     24  H5* UNL     1      33.189 -15.333 -19.990  0.00  0.00    +0.211 HD
ENDBRANCH  22  23
ENDBRANCH  17  22
ENDBRANCH   1  15
BRANCH   9  25
ATOM     25  O   UNL     1      35.785 -19.057 -20.728  0.00  0.00    -0.399 OA
BRANCH  25  26
ATOM     26  C   UNL     1      35.361 -20.353 -20.331  0.00  0.00    +0.227 C 
BRANCH  26  27
ATOM     27  C   UNL     1      36.476 -21.044 -19.554  0.00  0.00    +0.075 C 
BRANCH  27  29
ATOM     28 CL   UNL     1      34.401 -24.087 -14.815  0.00  0.00    -0.082 Cl
ATOM     29  C   UNL     1      35.956 -21.811 -18.363  0.00  0.00    -0.018 C 
ATOM     30  C   UNL     1      34.689 -22.370 -18.417  0.00  0.00    -0.003 C 
ATOM     31  C   UNL     1      36.752 -21.940 -17.236  0.00  0.00    -0.003 C 
ATOM     32  C   UNL     1      34.206 -23.078 -17.316  0.00  0.00    +0.011 C 
ATOM     33  C   UNL     1      36.270 -22.647 -16.135  0.00  0.00    +0.011 C 
ATOM     34  C   UNL     1      34.997 -23.216 -16.175  0.00  0.00    +0.058 C 
ENDBRANCH  27  29
ENDBRANCH  26  27
ENDBRANCH  25  26
ENDBRANCH   9  25
TORSDOF 9
ENDMDL
MODEL 9
REMARK VINA RESULT:     -10.2      3.364      4.952
REMARK  Name = 9910098
REMARK  9 active torsions:
REMARK  status: ('A' for Active; 'I' for Inactive)
REMARK    1  A    between atoms: N_1  and  C1*_12
REMARK    2  A    between atoms: C_9  and  O_25
REMARK    3  A    between atoms: C2*_11  and  O2*_15
REMARK    4  A    between atoms: C3*_13  and  O3*_17
REMARK    5  A    between atoms: C4*_14  and  C5*_19
REMARK    6  A    between atoms: C5*_19  and  O5*_20
REMARK    7  A    between atoms: O_25  and  C_26
REMARK    8  A    between atoms: C_26  and  C_27
REMARK    9  A    between atoms: C_27  and  C_29
REMARK                            x       y       z     vdW  Elec       q    Type
REMARK                         _______ _______ _______ _____ _____    ______ ____
ROOT
ATOM      1  N   UNL     1      31.810 -23.191 -15.123  0.00  0.00    -0.236 N 
ATOM      2  N   UNL     1      33.902 -23.586 -14.452  0.00  0.00    -0.240 NA
ATOM      3  N   UNL     1      32.220 -22.632 -17.451  0.00  0.00    -0.294 NA
ATOM      4  N   UNL     1      34.599 -22.745 -17.986  0.00  0.00    -0.295 NA
ATOM      5  C   UNL     1      32.605 -22.992 -16.217  0.00  0.00    +0.223 C 
ATOM      6  C   UNL     1      32.637 -23.546 -14.088  0.00  0.00    +0.224 C 
ATOM      7  C   UNL     1      33.896 -23.243 -15.781  0.00  0.00    +0.167 C 
ATOM      8  C   UNL     1      34.914 -23.107 -16.719  0.00  0.00    +0.214 C 
ATOM      9  C   UNL     1      33.291 -22.532 -18.268  0.00  0.00    +0.313 C 
ATOM     10  N   UNL     1      36.254 -23.339 -16.363  0.00  0.00    -0.331 N 
ATOM     11  H   UNL     1      36.966 -23.241 -17.036  0.00  0.00    +0.145 HD
ATOM     12  H   UNL     1      36.480 -23.602 -15.441  0.00  0.00    +0.145 HD
ENDROOT
BRANCH   1  15
ATOM     13  O4* UNL     1      29.815 -24.033 -14.149  0.00  0.00    -0.333 OA
ATOM     14  C2* UNL     1      29.658 -23.230 -16.405  0.00  0.00    +0.187 C 
ATOM     15  C1* UNL     1      30.355 -23.048 -15.056  0.00  0.00    +0.226 C 
ATOM     16  C3* UNL     1      29.077 -24.626 -16.298  0.00  0.00    +0.171 C 
ATOM     17  C4* UNL     1      28.751 -24.727 -14.818  0.00  0.00    +0.175 C 
BRANCH  14  18
ATOM     18  O2* UNL     1      28.629 -22.250 -16.539  0.00  0.00    -0.378 OA
ATOM     19  H2* UNL     1      29.016 -21.363 -16.467  0.00  0.00    +0.211 HD
ENDBRANCH  14  18
BRANCH  16  20
ATOM     20  O3* UNL     1      27.938 -24.826 -17.108  0.00  0.00    -0.379 OA
ATOM     21  H3* UNL     1      27.161 -24.964 -16.545  0.00  0.00    +0.211 HD
ENDBRANCH  16  20
BRANCH  17  22
ATOM     22  C5* UNL     1      28.671 -26.156 -14.312  0.00  0.00    +0.169 C 
BRANCH  22  23
ATOM     23  O5* UNL     1      29.955 -26.550 -13.860  0.00  0.00    -0.379 OA
ATOM     24  H5* UNL     1      30.255 -25.941 -13.167  0.00  0.00    +0.211 HD
ENDBRANCH  22  23
ENDBRANCH  17  22
ENDBRANCH   1  15
BRANCH   9  25
ATOM     25  O   UNL     1      33.015 -22.172 -19.570  0.00  0.00    -0.399 OA
BRANCH  25  26
ATOM     26  C   UNL     1      33.204 -20.804 -19.901  0.00  0.00    +0.227 C 
BRANCH  26  27
ATOM     27  C   UNL     1      34.629 -20.587 -20.400  0.00  0.00    +0.075 C 
BRANCH  27  29
ATOM     28 CL   UNL     1      34.951 -16.345 -24.633  0.00  0.00    -0.082 Cl
ATOM     29  C   UNL     1      34.708 -19.519 -21.463  0.00  0.00    -0.018 C 
ATOM     30  C   UNL     1      34.267 -19.805 -22.746  0.00  0.00    -0.003 C 
ATOM     31  C   UNL     1      35.222 -18.274 -21.139  0.00  0.00    -0.003 C 
ATOM     32  C   UNL     1      34.342 -18.820 -23.730  0.00  0.00    +0.011 C 
ATOM     33  C   UNL     1      35.297 -17.288 -22.124  0.00  0.00    +0.011 C 
ATOM     34  C   UNL     1      34.856 -17.561 -23.419  0.00  0.00    +0.058 C 
ENDBRANCH  27  29
ENDBRANCH  26  27
ENDBRANCH  25  26
ENDBRANCH   9  25
TORSDOF 9
ENDMDL
