MODEL 1
REMARK VINA RESULT:     -11.3      0.000      0.000
REMARK  Name = 21874557
REMARK  4 active torsions:
REMARK  status: ('A' for Active; 'I' for Inactive)
REMARK    1  A    between atoms: N_1  and  C_18
REMARK    2  A    between atoms: C_9  and  C_14
REMARK    3  A    between atoms: C_18  and  C_19
REMARK    4  A    between atoms: C_23  and  N_26
REMARK                            x       y       z     vdW  Elec       q    Type
REMARK                         _______ _______ _______ _____ _____    ______ ____
ROOT
ATOM      1  N   UNL     1      35.154 -16.719 -21.823  0.00  0.00    -0.170 N 
ATOM      2  N   UNL     1      35.044 -16.378 -20.525  0.00  0.00    -0.042 NA
ATOM      3  N   UNL     1      34.304 -15.273 -20.460  0.00  0.00    -0.137 NA
ATOM      4  N   UNL     1      34.369 -15.849 -23.956  0.00  0.00    -0.310 NA
ATOM      5  N   UNL     1      33.038 -13.828 -23.616  0.00  0.00    -0.324 NA
ATOM      6  N   UNL     1      33.424 -14.695 -25.760  0.00  0.00    -0.283 N 
ATOM      7  C   UNL     1      34.488 -15.841 -22.621  0.00  0.00    +0.238 C 
ATOM      8  C   UNL     1      33.953 -14.926 -21.734  0.00  0.00    +0.181 C 
ATOM      9  C   UNL     1      33.203 -13.888 -22.272  0.00  0.00    +0.202 C 
ATOM     10  C   UNL     1      33.623 -14.798 -24.364  0.00  0.00    +0.198 C 
ATOM     11  H   UNL     1      33.819 -15.364 -26.364  0.00  0.00    +0.156 HD
ATOM     12  H   UNL     1      32.890 -13.954 -26.128  0.00  0.00    +0.156 HD
ENDROOT
BRANCH   9  14
ATOM     13  O   UNL     1      32.310 -11.715 -22.088  0.00  0.00    -0.448 OA
ATOM     14  C   UNL     1      32.601 -12.882 -21.455  0.00  0.00    +0.178 C 
ATOM     15  C   UNL     1      32.235 -12.818 -20.131  0.00  0.00    +0.043 C 
ATOM     16  C   UNL     1      31.685 -11.528 -19.937  0.00  0.00    +0.044 C 
ATOM     17  C   UNL     1      31.753 -10.896 -21.158  0.00  0.00    +0.180 C 
ENDBRANCH   9  14
BRANCH   1  18
ATOM     18  C   UNL     1      35.918 -17.907 -22.220  0.00  0.00    +0.145 C 
BRANCH  18  19
ATOM     19  C   UNL     1      35.699 -19.047 -21.286  0.00  0.00    -0.001 C 
ATOM     20  C   UNL     1      34.408 -19.527 -21.059  0.00  0.00    -0.006 C 
ATOM     21  C   UNL     1      34.204 -20.595 -20.184  0.00  0.00    -0.009 C 
ATOM     22  C   UNL     1      36.785 -19.636 -20.637  0.00  0.00    -0.001 C 
ATOM     23  C   UNL     1      35.291 -21.183 -19.537  0.00  0.00    +0.037 C 
ATOM     24  C   UNL     1      36.581 -20.704 -19.762  0.00  0.00    +0.013 C 
ATOM     25  C   UNL     1      32.812 -21.087 -19.960  0.00  0.00    +0.032 C 
BRANCH  23  26
ATOM     26  N   UNL     1      35.104 -22.264 -18.649  0.00  0.00    -0.357 N 
ATOM     27  H   UNL     1      35.375 -23.173 -18.916  0.00  0.00    +0.142 HD
ATOM     28  H   UNL     1      34.703 -22.111 -17.763  0.00  0.00    +0.142 HD
ENDBRANCH  23  26
ENDBRANCH  18  19
ENDBRANCH   1  18
TORSDOF 4
ENDMDL
MODEL 2
REMARK VINA RESULT:     -10.2      5.167      9.976
REMARK  Name = 21874557
REMARK  4 active torsions:
REMARK  status: ('A' for Active; 'I' for Inactive)
REMARK    1  A    between atoms: N_1  and  C_18
REMARK    2  A    between atoms: C_9  and  C_14
REMARK    3  A    between atoms: C_18  and  C_19
REMARK    4  A    between atoms: C_23  and  N_26
REMARK                            x       y       z     vdW  Elec       q    Type
REMARK                         _______ _______ _______ _____ _____    ______ ____
ROOT
ATOM      1  N   UNL     1      34.467 -22.778 -17.713  0.00  0.00    -0.170 N 
ATOM      2  N   UNL     1      33.355 -22.912 -18.461  0.00  0.00    -0.042 NA
ATOM      3  N   UNL     1      32.381 -23.344 -17.661  0.00  0.00    -0.137 NA
ATOM      4  N   UNL     1      35.087 -23.116 -15.385  0.00  0.00    -0.310 NA
ATOM      5  N   UNL     1      33.168 -23.905 -14.095  0.00  0.00    -0.324 NA
ATOM      6  N   UNL     1      35.260 -23.565 -13.094  0.00  0.00    -0.283 N 
ATOM      7  C   UNL     1      34.233 -23.120 -16.417  0.00  0.00    +0.238 C 
ATOM      8  C   UNL     1      32.899 -23.478 -16.403  0.00  0.00    +0.181 C 
ATOM      9  C   UNL     1      32.365 -23.883 -15.186  0.00  0.00    +0.202 C 
ATOM     10  C   UNL     1      34.460 -23.526 -14.259  0.00  0.00    +0.198 C 
ATOM     11  H   UNL     1      36.208 -23.303 -13.138  0.00  0.00    +0.156 HD
ATOM     12  H   UNL     1      34.869 -23.854 -12.238  0.00  0.00    +0.156 HD
ENDROOT
BRANCH   9  14
ATOM     13  O   UNL     1      30.085 -23.386 -15.520  0.00  0.00    -0.448 OA
ATOM     14  C   UNL     1      30.998 -24.277 -15.049  0.00  0.00    +0.178 C 
ATOM     15  C   UNL     1      30.370 -25.387 -14.535  0.00  0.00    +0.043 C 
ATOM     16  C   UNL     1      28.981 -25.164 -14.699  0.00  0.00    +0.044 C 
ATOM     17  C   UNL     1      28.861 -23.933 -15.303  0.00  0.00    +0.180 C 
ENDBRANCH   9  14
BRANCH   1  18
ATOM     18  C   UNL     1      35.720 -22.314 -18.317  0.00  0.00    +0.145 C 
BRANCH  18  19
ATOM     19  C   UNL     1      35.482 -21.293 -19.377  0.00  0.00    -0.001 C 
ATOM     20  C   UNL     1      36.553 -20.572 -19.906  0.00  0.00    -0.006 C 
ATOM     21  C   UNL     1      36.329 -19.617 -20.899  0.00  0.00    -0.009 C 
ATOM     22  C   UNL     1      34.187 -21.058 -19.841  0.00  0.00    -0.001 C 
ATOM     23  C   UNL     1      35.035 -19.383 -21.362  0.00  0.00    +0.037 C 
ATOM     24  C   UNL     1      33.963 -20.103 -20.833  0.00  0.00    +0.013 C 
ATOM     25  C   UNL     1      37.495 -18.860 -21.447  0.00  0.00    +0.032 C 
BRANCH  23  26
ATOM     26  N   UNL     1      34.789 -18.422 -22.365  0.00  0.00    -0.357 N 
ATOM     27  H   UNL     1      35.505 -18.173 -22.995  0.00  0.00    +0.142 HD
ATOM     28  H   UNL     1      33.903 -17.999 -22.437  0.00  0.00    +0.142 HD
ENDBRANCH  23  26
ENDBRANCH  18  19
ENDBRANCH   1  18
TORSDOF 4
ENDMDL
MODEL 3
REMARK VINA RESULT:     -10.1      4.915      9.111
REMARK  Name = 21874557
REMARK  4 active torsions:
REMARK  status: ('A' for Active; 'I' for Inactive)
REMARK    1  A    between atoms: N_1  and  C_18
REMARK    2  A    between atoms: C_9  and  C_14
REMARK    3  A    between atoms: C_18  and  C_19
REMARK    4  A    between atoms: C_23  and  N_26
REMARK                            x       y       z     vdW  Elec       q    Type
REMARK                         _______ _______ _______ _____ _____    ______ ____
ROOT
ATOM      1  N   UNL     1      34.337 -22.398 -18.600  0.00  0.00    -0.170 N 
ATOM      2  N   UNL     1      33.226 -21.874 -19.151  0.00  0.00    -0.042 NA
ATOM      3  N   UNL     1      32.213 -22.109 -18.319  0.00  0.00    -0.137 NA
ATOM      4  N   UNL     1      34.904 -23.605 -16.564  0.00  0.00    -0.310 NA
ATOM      5  N   UNL     1      32.916 -23.932 -15.182  0.00  0.00    -0.324 NA
ATOM      6  N   UNL     1      35.017 -24.726 -14.512  0.00  0.00    -0.283 N 
ATOM      7  C   UNL     1      34.063 -22.983 -17.402  0.00  0.00    +0.238 C 
ATOM      8  C   UNL     1      32.705 -22.788 -17.240  0.00  0.00    +0.181 C 
ATOM      9  C   UNL     1      32.128 -23.290 -16.079  0.00  0.00    +0.202 C 
ATOM     10  C   UNL     1      34.235 -24.048 -15.476  0.00  0.00    +0.198 C 
ATOM     11  H   UNL     1      35.983 -24.847 -14.659  0.00  0.00    +0.156 HD
ATOM     12  H   UNL     1      34.595 -25.076 -13.694  0.00  0.00    +0.156 HD
ENDROOT
BRANCH   9  14
ATOM     13  O   UNL     1      29.951 -22.877 -16.880  0.00  0.00    -0.448 OA
ATOM     14  C   UNL     1      30.734 -23.150 -15.802  0.00  0.00    +0.178 C 
ATOM     15  C   UNL     1      29.972 -23.231 -14.660  0.00  0.00    +0.043 C 
ATOM     16  C   UNL     1      28.636 -22.991 -15.060  0.00  0.00    +0.044 C 
ATOM     17  C   UNL     1      28.676 -22.782 -16.420  0.00  0.00    +0.180 C 
ENDBRANCH   9  14
BRANCH   1  18
ATOM     18  C   UNL     1      35.629 -22.298 -19.287  0.00  0.00    +0.145 C 
BRANCH  18  19
ATOM     19  C   UNL     1      35.726 -21.061 -20.113  0.00  0.00    -0.001 C 
ATOM     20  C   UNL     1      34.821 -20.844 -21.153  0.00  0.00    -0.006 C 
ATOM     21  C   UNL     1      34.912 -19.686 -21.926  0.00  0.00    -0.009 C 
ATOM     22  C   UNL     1      36.721 -20.121 -19.847  0.00  0.00    -0.001 C 
ATOM     23  C   UNL     1      35.907 -18.745 -21.658  0.00  0.00    +0.037 C 
ATOM     24  C   UNL     1      36.812 -18.962 -20.619  0.00  0.00    +0.013 C 
ATOM     25  C   UNL     1      33.931 -19.478 -23.033  0.00  0.00    +0.032 C 
BRANCH  23  26
ATOM     26  N   UNL     1      36.014 -17.568 -22.429  0.00  0.00    -0.357 N 
ATOM     27  H   UNL     1      36.360 -17.612 -23.350  0.00  0.00    +0.142 HD
ATOM     28  H   UNL     1      35.743 -16.702 -22.047  0.00  0.00    +0.142 HD
ENDBRANCH  23  26
ENDBRANCH  18  19
ENDBRANCH   1  18
TORSDOF 4
ENDMDL
MODEL 4
REMARK VINA RESULT:     -10.1      6.364     11.267
REMARK  Name = 21874557
REMARK  4 active torsions:
REMARK  status: ('A' for Active; 'I' for Inactive)
REMARK    1  A    between atoms: N_1  and  C_18
REMARK    2  A    between atoms: C_9  and  C_14
REMARK    3  A    between atoms: C_18  and  C_19
REMARK    4  A    between atoms: C_23  and  N_26
REMARK                            x       y       z     vdW  Elec       q    Type
REMARK                         _______ _______ _______ _____ _____    ______ ____
ROOT
ATOM      1  N   UNL     1      33.663 -23.532 -16.439  0.00  0.00    -0.170 N 
ATOM      2  N   UNL     1      34.950 -23.143 -16.356  0.00  0.00    -0.042 NA
ATOM      3  N   UNL     1      35.346 -23.324 -15.098  0.00  0.00    -0.137 NA
ATOM      4  N   UNL     1      31.985 -24.434 -14.925  0.00  0.00    -0.310 NA
ATOM      5  N   UNL     1      32.910 -24.689 -12.678  0.00  0.00    -0.324 NA
ATOM      6  N   UNL     1      30.693 -25.274 -13.164  0.00  0.00    -0.283 N 
ATOM      7  C   UNL     1      33.204 -23.971 -15.236  0.00  0.00    +0.238 C 
ATOM      8  C   UNL     1      34.290 -23.831 -14.394  0.00  0.00    +0.181 C 
ATOM      9  C   UNL     1      34.117 -24.210 -13.068  0.00  0.00    +0.202 C 
ATOM     10  C   UNL     1      31.934 -24.770 -13.616  0.00  0.00    +0.198 C 
ATOM     11  H   UNL     1      29.939 -25.361 -13.790  0.00  0.00    +0.156 HD
ATOM     12  H   UNL     1      30.583 -25.539 -12.222  0.00  0.00    +0.156 HD
ENDROOT
BRANCH   9  14
ATOM     13  O   UNL     1      34.927 -24.724 -10.916  0.00  0.00    -0.448 OA
ATOM     14  C   UNL     1      35.167 -24.110 -12.105  0.00  0.00    +0.178 C 
ATOM     15  C   UNL     1      36.407 -23.517 -12.101  0.00  0.00    +0.043 C 
ATOM     16  C   UNL     1      36.966 -23.782 -10.827  0.00  0.00    +0.044 C 
ATOM     17  C   UNL     1      36.027 -24.520 -10.144  0.00  0.00    +0.180 C 
ENDBRANCH   9  14
BRANCH   1  18
ATOM     18  C   UNL     1      32.940 -23.451 -17.712  0.00  0.00    +0.145 C 
BRANCH  18  19
ATOM     19  C   UNL     1      33.503 -22.400 -18.607  0.00  0.00    -0.001 C 
ATOM     20  C   UNL     1      34.884 -22.284 -18.764  0.00  0.00    -0.006 C 
ATOM     21  C   UNL     1      35.410 -21.300 -19.602  0.00  0.00    -0.009 C 
ATOM     22  C   UNL     1      32.648 -21.531 -19.286  0.00  0.00    -0.001 C 
ATOM     23  C   UNL     1      34.555 -20.432 -20.282  0.00  0.00    +0.037 C 
ATOM     24  C   UNL     1      33.174 -20.547 -20.124  0.00  0.00    +0.013 C 
ATOM     25  C   UNL     1      36.893 -21.198 -19.753  0.00  0.00    +0.032 C 
BRANCH  23  26
ATOM     26  N   UNL     1      35.069 -19.431 -21.133  0.00  0.00    -0.357 N 
ATOM     27  H   UNL     1      35.105 -19.582 -22.106  0.00  0.00    +0.142 HD
ATOM     28  H   UNL     1      35.392 -18.581 -20.756  0.00  0.00    +0.142 HD
ENDBRANCH  23  26
ENDBRANCH  18  19
ENDBRANCH   1  18
TORSDOF 4
ENDMDL
MODEL 5
REMARK VINA RESULT:      -9.9      5.474     10.288
REMARK  Name = 21874557
REMARK  4 active torsions:
REMARK  status: ('A' for Active; 'I' for Inactive)
REMARK    1  A    between atoms: N_1  and  C_18
REMARK    2  A    between atoms: C_9  and  C_14
REMARK    3  A    between atoms: C_18  and  C_19
REMARK    4  A    between atoms: C_23  and  N_26
REMARK                            x       y       z     vdW  Elec       q    Type
REMARK                         _______ _______ _______ _____ _____    ______ ____
ROOT
ATOM      1  N   UNL     1      34.164 -22.646 -17.837  0.00  0.00    -0.170 N 
ATOM      2  N   UNL     1      35.479 -22.735 -17.558  0.00  0.00    -0.042 NA
ATOM      3  N   UNL     1      35.599 -23.276 -16.347  0.00  0.00    -0.137 NA
ATOM      4  N   UNL     1      32.076 -23.206 -16.720  0.00  0.00    -0.310 NA
ATOM      5  N   UNL     1      32.516 -24.181 -14.523  0.00  0.00    -0.324 NA
ATOM      6  N   UNL     1      30.330 -23.885 -15.317  0.00  0.00    -0.283 N 
ATOM      7  C   UNL     1      33.411 -23.128 -16.811  0.00  0.00    +0.238 C 
ATOM      8  C   UNL     1      34.342 -23.525 -15.872  0.00  0.00    +0.181 C 
ATOM      9  C   UNL     1      33.856 -24.069 -14.689  0.00  0.00    +0.202 C 
ATOM     10  C   UNL     1      31.720 -23.749 -15.534  0.00  0.00    +0.198 C 
ATOM     11  H   UNL     1      29.693 -23.592 -16.007  0.00  0.00    +0.156 HD
ATOM     12  H   UNL     1      29.999 -24.272 -14.474  0.00  0.00    +0.156 HD
ENDROOT
BRANCH   9  14
ATOM     13  O   UNL     1      34.292 -24.257 -12.381  0.00  0.00    -0.448 OA
ATOM     14  C   UNL     1      34.723 -24.514 -13.644  0.00  0.00    +0.178 C 
ATOM     15  C   UNL     1      35.934 -25.164 -13.618  0.00  0.00    +0.043 C 
ATOM     16  C   UNL     1      36.270 -25.316 -12.251  0.00  0.00    +0.044 C 
ATOM     17  C   UNL     1      35.239 -24.748 -11.539  0.00  0.00    +0.180 C 
ENDBRANCH   9  14
BRANCH   1  18
ATOM     18  C   UNL     1      33.708 -22.086 -19.113  0.00  0.00    +0.145 C 
BRANCH  18  19
ATOM     19  C   UNL     1      34.736 -21.201 -19.731  0.00  0.00    -0.001 C 
ATOM     20  C   UNL     1      34.369 -20.291 -20.723  0.00  0.00    -0.006 C 
ATOM     21  C   UNL     1      35.332 -19.462 -21.300  0.00  0.00    -0.009 C 
ATOM     22  C   UNL     1      36.067 -21.284 -19.318  0.00  0.00    -0.001 C 
ATOM     23  C   UNL     1      36.662 -19.545 -20.887  0.00  0.00    +0.037 C 
ATOM     24  C   UNL     1      37.030 -20.456 -19.896  0.00  0.00    +0.013 C 
ATOM     25  C   UNL     1      34.911 -18.497 -22.360  0.00  0.00    +0.032 C 
BRANCH  23  26
ATOM     26  N   UNL     1      37.650 -18.716 -21.459  0.00  0.00    -0.357 N 
ATOM     27  H   UNL     1      38.264 -18.208 -20.880  0.00  0.00    +0.142 HD
ATOM     28  H   UNL     1      37.726 -18.643 -22.438  0.00  0.00    +0.142 HD
ENDBRANCH  23  26
ENDBRANCH  18  19
ENDBRANCH   1  18
TORSDOF 4
ENDMDL
MODEL 6
REMARK VINA RESULT:      -9.6      3.007      8.155
REMARK  Name = 21874557
REMARK  4 active torsions:
REMARK  status: ('A' for Active; 'I' for Inactive)
REMARK    1  A    between atoms: N_1  and  C_18
REMARK    2  A    between atoms: C_9  and  C_14
REMARK    3  A    between atoms: C_18  and  C_19
REMARK    4  A    between atoms: C_23  and  N_26
REMARK                            x       y       z     vdW  Elec       q    Type
REMARK                         _______ _______ _______ _____ _____    ______ ____
ROOT
ATOM      1  N   UNL     1      31.987 -12.659 -21.896  0.00  0.00    -0.170 N 
ATOM      2  N   UNL     1      32.180 -13.227 -20.690  0.00  0.00    -0.042 NA
ATOM      3  N   UNL     1      32.975 -14.281 -20.864  0.00  0.00    -0.137 NA
ATOM      4  N   UNL     1      32.701 -13.076 -24.184  0.00  0.00    -0.310 NA
ATOM      5  N   UNL     1      34.145 -15.045 -24.284  0.00  0.00    -0.324 NA
ATOM      6  N   UNL     1      33.607 -13.822 -26.210  0.00  0.00    -0.283 N 
ATOM      7  C   UNL     1      32.653 -13.336 -22.871  0.00  0.00    +0.238 C 
ATOM      8  C   UNL     1      33.276 -14.366 -22.194  0.00  0.00    +0.181 C 
ATOM      9  C   UNL     1      34.047 -15.243 -22.947  0.00  0.00    +0.202 C 
ATOM     10  C   UNL     1      33.476 -13.989 -24.812  0.00  0.00    +0.198 C 
ATOM     11  H   UNL     1      33.149 -13.077 -26.662  0.00  0.00    +0.156 HD
ATOM     12  H   UNL     1      34.156 -14.451 -26.732  0.00  0.00    +0.156 HD
ENDROOT
BRANCH   9  14
ATOM     13  O   UNL     1      35.113 -17.327 -23.222  0.00  0.00    -0.448 OA
ATOM     14  C   UNL     1      34.738 -16.346 -22.358  0.00  0.00    +0.178 C 
ATOM     15  C   UNL     1      35.126 -16.658 -21.076  0.00  0.00    +0.043 C 
ATOM     16  C   UNL     1      35.781 -17.910 -21.156  0.00  0.00    +0.044 C 
ATOM     17  C   UNL     1      35.747 -18.274 -22.482  0.00  0.00    +0.180 C 
ENDBRANCH   9  14
BRANCH   1  18
ATOM     18  C   UNL     1      31.147 -11.465 -22.032  0.00  0.00    +0.145 C 
BRANCH  18  19
ATOM     19  C   UNL     1      31.722 -10.295 -21.309  0.00  0.00    -0.001 C 
ATOM     20  C   UNL     1      32.458  -9.336 -22.006  0.00  0.00    -0.006 C 
ATOM     21  C   UNL     1      32.995  -8.241 -21.328  0.00  0.00    -0.009 C 
ATOM     22  C   UNL     1      31.525 -10.159 -19.934  0.00  0.00    -0.001 C 
ATOM     23  C   UNL     1      32.797  -8.106 -19.954  0.00  0.00    +0.037 C 
ATOM     24  C   UNL     1      32.062  -9.064 -19.257  0.00  0.00    +0.013 C 
ATOM     25  C   UNL     1      33.779  -7.229 -22.099  0.00  0.00    +0.032 C 
BRANCH  23  26
ATOM     26  N   UNL     1      33.333  -7.005 -19.252  0.00  0.00    -0.357 N 
ATOM     27  H   UNL     1      32.932  -6.723 -18.397  0.00  0.00    +0.142 HD
ATOM     28  H   UNL     1      34.107  -6.518 -19.615  0.00  0.00    +0.142 HD
ENDBRANCH  23  26
ENDBRANCH  18  19
ENDBRANCH   1  18
TORSDOF 4
ENDMDL
MODEL 7
REMARK VINA RESULT:      -9.4      6.598      9.804
REMARK  Name = 21874557
REMARK  4 active torsions:
REMARK  status: ('A' for Active; 'I' for Inactive)
REMARK    1  A    between atoms: N_1  and  C_18
REMARK    2  A    between atoms: C_9  and  C_14
REMARK    3  A    between atoms: C_18  and  C_19
REMARK    4  A    between atoms: C_23  and  N_26
REMARK                            x       y       z     vdW  Elec       q    Type
REMARK                         _______ _______ _______ _____ _____    ______ ____
ROOT
ATOM      1  N   UNL     1      34.517 -24.130 -15.462  0.00  0.00    -0.170 N 
ATOM      2  N   UNL     1      35.641 -23.755 -16.101  0.00  0.00    -0.042 NA
ATOM      3  N   UNL     1      35.282 -23.009 -17.144  0.00  0.00    -0.137 NA
ATOM      4  N   UNL     1      32.124 -23.789 -15.739  0.00  0.00    -0.310 NA
ATOM      5  N   UNL     1      31.680 -22.400 -17.700  0.00  0.00    -0.324 NA
ATOM      6  N   UNL     1      29.940 -23.222 -16.362  0.00  0.00    -0.283 N 
ATOM      7  C   UNL     1      33.411 -23.633 -16.079  0.00  0.00    +0.238 C 
ATOM      8  C   UNL     1      33.918 -22.921 -17.148  0.00  0.00    +0.181 C 
ATOM      9  C   UNL     1      33.002 -22.288 -17.979  0.00  0.00    +0.202 C 
ATOM     10  C   UNL     1      31.328 -23.133 -16.614  0.00  0.00    +0.198 C 
ATOM     11  H   UNL     1      29.611 -23.737 -15.591  0.00  0.00    +0.156 HD
ATOM     12  H   UNL     1      29.301 -22.768 -16.959  0.00  0.00    +0.156 HD
ENDROOT
BRANCH   9  14
ATOM     13  O   UNL     1      32.408 -20.873 -19.767  0.00  0.00    -0.448 OA
ATOM     14  C   UNL     1      33.408 -21.525 -19.117  0.00  0.00    +0.178 C 
ATOM     15  C   UNL     1      34.617 -21.287 -19.727  0.00  0.00    +0.043 C 
ATOM     16  C   UNL     1      34.343 -20.435 -20.824  0.00  0.00    +0.044 C 
ATOM     17  C   UNL     1      32.985 -20.212 -20.805  0.00  0.00    +0.180 C 
ENDBRANCH   9  14
BRANCH   1  18
ATOM     18  C   UNL     1      34.586 -24.968 -14.260  0.00  0.00    +0.145 C 
BRANCH  18  19
ATOM     19  C   UNL     1      35.988 -25.353 -13.931  0.00  0.00    -0.001 C 
ATOM     20  C   UNL     1      36.694 -24.651 -12.954  0.00  0.00    -0.006 C 
ATOM     21  C   UNL     1      38.006 -25.013 -12.646  0.00  0.00    -0.009 C 
ATOM     22  C   UNL     1      36.594 -26.417 -14.600  0.00  0.00    -0.001 C 
ATOM     23  C   UNL     1      38.612 -26.076 -13.315  0.00  0.00    +0.037 C 
ATOM     24  C   UNL     1      37.906 -26.779 -14.292  0.00  0.00    +0.013 C 
ATOM     25  C   UNL     1      38.739 -24.243 -11.596  0.00  0.00    +0.032 C 
BRANCH  23  26
ATOM     26  N   UNL     1      39.938 -26.457 -13.016  0.00  0.00    -0.357 N 
ATOM     27  H   UNL     1      40.309 -26.285 -12.121  0.00  0.00    +0.142 HD
ATOM     28  H   UNL     1      40.492 -26.893 -13.703  0.00  0.00    +0.142 HD
ENDBRANCH  23  26
ENDBRANCH  18  19
ENDBRANCH   1  18
TORSDOF 4
ENDMDL
MODEL 8
REMARK VINA RESULT:      -9.3      3.974      6.750
REMARK  Name = 21874557
REMARK  4 active torsions:
REMARK  status: ('A' for Active; 'I' for Inactive)
REMARK    1  A    between atoms: N_1  and  C_18
REMARK    2  A    between atoms: C_9  and  C_14
REMARK    3  A    between atoms: C_18  and  C_19
REMARK    4  A    between atoms: C_23  and  N_26
REMARK                            x       y       z     vdW  Elec       q    Type
REMARK                         _______ _______ _______ _____ _____    ______ ____
ROOT
ATOM      1  N   UNL     1      32.287 -11.319 -22.199  0.00  0.00    -0.170 N 
ATOM      2  N   UNL     1      32.680 -11.223 -23.484  0.00  0.00    -0.042 NA
ATOM      3  N   UNL     1      33.020  -9.955 -23.708  0.00  0.00    -0.137 NA
ATOM      4  N   UNL     1      32.064  -9.817 -20.298  0.00  0.00    -0.310 NA
ATOM      5  N   UNL     1      32.735  -7.550 -20.917  0.00  0.00    -0.324 NA
ATOM      6  N   UNL     1      31.998  -8.061 -18.751  0.00  0.00    -0.283 N 
ATOM      7  C   UNL     1      32.366 -10.116 -21.569  0.00  0.00    +0.238 C 
ATOM      8  C   UNL     1      32.835  -9.259 -22.546  0.00  0.00    +0.181 C 
ATOM      9  C   UNL     1      33.019  -7.929 -22.187  0.00  0.00    +0.202 C 
ATOM     10  C   UNL     1      32.281  -8.503 -20.064  0.00  0.00    +0.198 C 
ATOM     11  H   UNL     1      31.665  -8.698 -18.079  0.00  0.00    +0.156 HD
ATOM     12  H   UNL     1      32.133  -7.116 -18.510  0.00  0.00    +0.156 HD
ENDROOT
BRANCH   9  14
ATOM     13  O   UNL     1      32.581  -6.031 -23.512  0.00  0.00    -0.448 OA
ATOM     14  C   UNL     1      33.498  -6.951 -23.112  0.00  0.00    +0.178 C 
ATOM     15  C   UNL     1      34.712  -6.716 -23.712  0.00  0.00    +0.043 C 
ATOM     16  C   UNL     1      34.531  -5.578 -24.535  0.00  0.00    +0.044 C 
ATOM     17  C   UNL     1      33.217  -5.199 -24.378  0.00  0.00    +0.180 C 
ENDBRANCH   9  14
BRANCH   1  18
ATOM     18  C   UNL     1      31.849 -12.605 -21.648  0.00  0.00    +0.145 C 
BRANCH  18  19
ATOM     19  C   UNL     1      32.842 -13.687 -21.903  0.00  0.00    -0.001 C 
ATOM     20  C   UNL     1      32.986 -14.216 -23.186  0.00  0.00    -0.006 C 
ATOM     21  C   UNL     1      33.916 -15.228 -23.423  0.00  0.00    -0.009 C 
ATOM     22  C   UNL     1      33.628 -14.173 -20.857  0.00  0.00    -0.001 C 
ATOM     23  C   UNL     1      34.702 -15.712 -22.378  0.00  0.00    +0.037 C 
ATOM     24  C   UNL     1      34.559 -15.185 -21.094  0.00  0.00    +0.013 C 
ATOM     25  C   UNL     1      34.049 -15.775 -24.807  0.00  0.00    +0.032 C 
BRANCH  23  26
ATOM     26  N   UNL     1      35.648 -16.736 -22.599  0.00  0.00    -0.357 N 
ATOM     27  H   UNL     1      36.133 -17.132 -21.839  0.00  0.00    +0.142 HD
ATOM     28  H   UNL     1      35.825 -17.055 -23.514  0.00  0.00    +0.142 HD
ENDBRANCH  23  26
ENDBRANCH  18  19
ENDBRANCH   1  18
TORSDOF 4
ENDMDL
MODEL 9
REMARK VINA RESULT:      -9.2      6.268     10.015
REMARK  Name = 21874557
REMARK  4 active torsions:
REMARK  status: ('A' for Active; 'I' for Inactive)
REMARK    1  A    between atoms: N_1  and  C_18
REMARK    2  A    between atoms: C_9  and  C_14
REMARK    3  A    between atoms: C_18  and  C_19
REMARK    4  A    between atoms: C_23  and  N_26
REMARK                            x       y       z     vdW  Elec       q    Type
REMARK                         _______ _______ _______ _____ _____    ______ ____
ROOT
ATOM      1  N   UNL     1      32.625 -23.359 -16.646  0.00  0.00    -0.170 N 
ATOM      2  N   UNL     1      32.077 -22.584 -17.602  0.00  0.00    -0.042 NA
ATOM      3  N   UNL     1      30.776 -22.480 -17.340  0.00  0.00    -0.137 NA
ATOM      4  N   UNL     1      31.850 -24.546 -14.669  0.00  0.00    -0.310 NA
ATOM      5  N   UNL     1      29.445 -24.227 -14.369  0.00  0.00    -0.324 NA
ATOM      6  N   UNL     1      30.705 -25.525 -12.877  0.00  0.00    -0.283 N 
ATOM      7  C   UNL     1      31.688 -23.770 -15.749  0.00  0.00    +0.238 C 
ATOM      8  C   UNL     1      30.516 -23.199 -16.207  0.00  0.00    +0.181 C 
ATOM      9  C   UNL     1      29.362 -23.450 -15.476  0.00  0.00    +0.202 C 
ATOM     10  C   UNL     1      30.666 -24.720 -14.038  0.00  0.00    +0.198 C 
ATOM     11  H   UNL     1      31.557 -25.916 -12.578  0.00  0.00    +0.156 HD
ATOM     12  H   UNL     1      29.879 -25.694 -12.368  0.00  0.00    +0.156 HD
ENDROOT
BRANCH   9  14
ATOM     13  O   UNL     1      27.875 -22.820 -17.192  0.00  0.00    -0.448 OA
ATOM     14  C   UNL     1      28.092 -22.915 -15.853  0.00  0.00    +0.178 C 
ATOM     15  C   UNL     1      27.000 -22.459 -15.153  0.00  0.00    +0.043 C 
ATOM     16  C   UNL     1      26.050 -22.057 -16.123  0.00  0.00    +0.044 C 
ATOM     17  C   UNL     1      26.630 -22.297 -17.348  0.00  0.00    +0.180 C 
ENDBRANCH   9  14
BRANCH   1  18
ATOM     18  C   UNL     1      34.060 -23.661 -16.662  0.00  0.00    +0.145 C 
BRANCH  18  19
ATOM     19  C   UNL     1      34.817 -22.718 -17.534  0.00  0.00    -0.001 C 
ATOM     20  C   UNL     1      34.213 -22.179 -18.670  0.00  0.00    -0.006 C 
ATOM     21  C   UNL     1      34.922 -21.297 -19.486  0.00  0.00    -0.009 C 
ATOM     22  C   UNL     1      36.132 -22.376 -17.215  0.00  0.00    -0.001 C 
ATOM     23  C   UNL     1      36.236 -20.954 -19.165  0.00  0.00    +0.037 C 
ATOM     24  C   UNL     1      36.841 -21.494 -18.030  0.00  0.00    +0.013 C 
ATOM     25  C   UNL     1      34.250 -20.735 -20.696  0.00  0.00    +0.032 C 
BRANCH  23  26
ATOM     26  N   UNL     1      36.969 -20.063 -19.978  0.00  0.00    -0.357 N 
ATOM     27  H   UNL     1      36.554 -19.677 -20.784  0.00  0.00    +0.142 HD
ATOM     28  H   UNL     1      37.895 -19.828 -19.741  0.00  0.00    +0.142 HD
ENDBRANCH  23  26
ENDBRANCH  18  19
ENDBRANCH   1  18
TORSDOF 4
ENDMDL
