MODEL 1
REMARK VINA RESULT:     -12.8      0.000      0.000
REMARK  Name = 71245288
REMARK  5 active torsions:
REMARK  status: ('A' for Active; 'I' for Inactive)
REMARK    1  A    between atoms: C_3  and  C_9
REMARK    2  A    between atoms: C_6  and  N_14
REMARK    3  A    between atoms: C_15  and  C_18
REMARK    4  A    between atoms: C_22  and  C_30
REMARK    5  A    between atoms: N_27  and  C_32
REMARK                            x       y       z     vdW  Elec       q    Type
REMARK                         _______ _______ _______ _____ _____    ______ ____
ROOT
ATOM      1  O   UNL     1      32.852 -22.020 -19.168  0.00  0.00    -0.270 OA
ATOM      2  N   UNL     1      34.477 -22.389 -17.515  0.00  0.00    -0.259 N 
ATOM      3  C   UNL     1      34.007 -21.881 -18.735  0.00  0.00    +0.253 C 
ATOM      4  H   UNL     1      35.420 -22.198 -17.307  0.00  0.00    +0.157 HD
ATOM      5  N   UNL     1      34.429 -23.533 -15.430  0.00  0.00    -0.388 NA
ATOM      6  C   UNL     1      33.716 -24.250 -14.533  0.00  0.00    +0.166 C 
ATOM      7  C   UNL     1      33.773 -23.142 -16.545  0.00  0.00    +0.167 C 
ATOM      8  C   UNL     1      32.383 -24.591 -14.697  0.00  0.00    +0.031 C 
ATOM      9  C   UNL     1      32.442 -23.432 -16.803  0.00  0.00    +0.101 C 
ATOM     10  C   UNL     1      31.741 -24.171 -15.856  0.00  0.00    -0.015 C 
ENDROOT
BRANCH   3  15
ATOM     11  F   UNL     1      36.754 -21.883 -18.151  0.00  0.00    -0.204 F 
ATOM     12  C   UNL     1      35.448 -19.613 -21.346  0.00  0.00    +0.046 C 
ATOM     13  C   UNL     1      36.803 -19.646 -21.016  0.00  0.00    -0.006 C 
ATOM     14  C   UNL     1      34.530 -20.348 -20.595  0.00  0.00    +0.021 C 
ATOM     15  C   UNL     1      34.967 -21.116 -19.515  0.00  0.00    +0.082 C 
ATOM     16  C   UNL     1      37.240 -20.413 -19.937  0.00  0.00    +0.027 C 
ATOM     17  C   UNL     1      37.814 -18.869 -21.799  0.00  0.00    +0.032 C 
ATOM     18  C   UNL     1      36.322 -21.148 -19.187  0.00  0.00    +0.144 C 
BRANCH  12  20
ATOM     19  N   UNL     1      33.952 -18.347 -24.308  0.00  0.00    -0.255 NA
ATOM     20  N   UNL     1      34.993 -18.858 -22.413  0.00  0.00    -0.282 N 
ATOM     21  C   UNL     1      34.579 -17.237 -23.800  0.00  0.00    +0.053 C 
ATOM     22  C   UNL     1      35.231 -17.529 -22.625  0.00  0.00    +0.134 C 
ATOM     23  C   UNL     1      34.221 -19.305 -23.449  0.00  0.00    +0.219 C 
BRANCH  21  24
ATOM     24  C   UNL     1      34.550 -15.862 -24.460  0.00  0.00    +0.037 C 
ATOM     25  C   UNL     1      33.810 -14.750 -23.775  0.00  0.00    +0.006 C 
ATOM     26  C   UNL     1      33.255 -15.363 -25.028  0.00  0.00    +0.006 C 
ENDBRANCH  21  24
ENDBRANCH  12  20
ENDBRANCH   3  15
BRANCH   6  30
ATOM     27  N   UNL     1      35.703 -25.181 -13.391  0.00  0.00    -0.252 N 
ATOM     28  N   UNL     1      34.039 -24.554 -12.117  0.00  0.00    -0.129 NA
ATOM     29  N   UNL     1      35.047 -25.042 -11.309  0.00  0.00    -0.128 NA
ATOM     30  C   UNL     1      34.451 -24.646 -13.361  0.00  0.00    +0.188 C 
ATOM     31  C   UNL     1      36.035 -25.412 -12.091  0.00  0.00    +0.192 C 
BRANCH  27  32
ATOM     32  C   UNL     1      36.527 -25.455 -14.544  0.00  0.00    +0.080 C 
ATOM     33  C   UNL     1      37.818 -24.633 -14.520  0.00  0.00    +0.022 C 
ATOM     34  C   UNL     1      36.835 -26.948 -14.675  0.00  0.00    +0.022 C 
ENDBRANCH  27  32
ENDBRANCH   6  30
TORSDOF 5
ENDMDL
MODEL 2
REMARK VINA RESULT:     -12.1      5.341      9.596
REMARK  Name = 71245288
REMARK  5 active torsions:
REMARK  status: ('A' for Active; 'I' for Inactive)
REMARK    1  A    between atoms: C_3  and  C_9
REMARK    2  A    between atoms: C_6  and  N_14
REMARK    3  A    between atoms: C_15  and  C_18
REMARK    4  A    between atoms: C_22  and  C_30
REMARK    5  A    between atoms: N_27  and  C_32
REMARK                            x       y       z     vdW  Elec       q    Type
REMARK                         _______ _______ _______ _____ _____    ______ ____
ROOT
ATOM      1  O   UNL     1      33.013 -14.426 -24.382  0.00  0.00    -0.270 OA
ATOM      2  N   UNL     1      33.949 -15.143 -22.353  0.00  0.00    -0.259 N 
ATOM      3  C   UNL     1      33.280 -14.235 -23.185  0.00  0.00    +0.253 C 
ATOM      4  H   UNL     1      34.090 -14.849 -21.424  0.00  0.00    +0.157 HD
ATOM      5  N   UNL     1      35.070 -17.140 -21.707  0.00  0.00    -0.388 NA
ATOM      6  C   UNL     1      35.532 -18.359 -22.061  0.00  0.00    +0.166 C 
ATOM      7  C   UNL     1      34.452 -16.428 -22.675  0.00  0.00    +0.167 C 
ATOM      8  C   UNL     1      35.405 -18.898 -23.331  0.00  0.00    +0.031 C 
ATOM      9  C   UNL     1      34.273 -16.876 -23.974  0.00  0.00    +0.101 C 
ATOM     10  C   UNL     1      34.762 -18.136 -24.300  0.00  0.00    -0.015 C 
ENDROOT
BRANCH   3  15
ATOM     11  F   UNL     1      31.982 -14.179 -20.695  0.00  0.00    -0.204 F 
ATOM     12  C   UNL     1      32.690 -10.582 -22.598  0.00  0.00    +0.046 C 
ATOM     13  C   UNL     1      32.049 -10.606 -21.359  0.00  0.00    -0.006 C 
ATOM     14  C   UNL     1      33.094 -11.775 -23.197  0.00  0.00    +0.021 C 
ATOM     15  C   UNL     1      32.857 -12.992 -22.558  0.00  0.00    +0.082 C 
ATOM     16  C   UNL     1      31.811 -11.822 -20.720  0.00  0.00    +0.027 C 
ATOM     17  C   UNL     1      31.602  -9.346 -20.690  0.00  0.00    +0.032 C 
ATOM     18  C   UNL     1      32.216 -13.015 -21.320  0.00  0.00    +0.144 C 
BRANCH  12  20
ATOM     19  N   UNL     1      32.583  -7.597 -24.520  0.00  0.00    -0.255 NA
ATOM     20  N   UNL     1      32.935  -9.385 -23.249  0.00  0.00    -0.282 N 
ATOM     21  C   UNL     1      33.855  -7.569 -24.007  0.00  0.00    +0.053 C 
ATOM     22  C   UNL     1      34.097  -8.667 -23.216  0.00  0.00    +0.134 C 
ATOM     23  C   UNL     1      32.055  -8.703 -24.044  0.00  0.00    +0.219 C 
BRANCH  21  24
ATOM     24  C   UNL     1      34.864  -6.458 -24.285  0.00  0.00    +0.037 C 
ATOM     25  C   UNL     1      34.415  -5.254 -25.060  0.00  0.00    +0.006 C 
ATOM     26  C   UNL     1      35.340  -6.253 -25.692  0.00  0.00    +0.006 C 
ENDBRANCH  21  24
ENDBRANCH  12  20
ENDBRANCH   3  15
BRANCH   6  30
ATOM     27  N   UNL     1      35.645 -20.167 -20.376  0.00  0.00    -0.252 N 
ATOM     28  N   UNL     1      37.367 -18.823 -20.495  0.00  0.00    -0.129 NA
ATOM     29  N   UNL     1      37.610 -19.757 -19.508  0.00  0.00    -0.128 NA
ATOM     30  C   UNL     1      36.184 -19.085 -21.003  0.00  0.00    +0.188 C 
ATOM     31  C   UNL     1      36.568 -20.554 -19.452  0.00  0.00    +0.192 C 
BRANCH  27  32
ATOM     32  C   UNL     1      34.368 -20.793 -20.621  0.00  0.00    +0.080 C 
ATOM     33  C   UNL     1      34.130 -21.975 -19.677  0.00  0.00    +0.022 C 
ATOM     34  C   UNL     1      33.220 -19.785 -20.532  0.00  0.00    +0.022 C 
ENDBRANCH  27  32
ENDBRANCH   6  30
TORSDOF 5
ENDMDL
MODEL 3
REMARK VINA RESULT:     -12.0      1.611     10.703
REMARK  Name = 71245288
REMARK  5 active torsions:
REMARK  status: ('A' for Active; 'I' for Inactive)
REMARK    1  A    between atoms: C_3  and  C_9
REMARK    2  A    between atoms: C_6  and  N_14
REMARK    3  A    between atoms: C_15  and  C_18
REMARK    4  A    between atoms: C_22  and  C_30
REMARK    5  A    between atoms: N_27  and  C_32
REMARK                            x       y       z     vdW  Elec       q    Type
REMARK                         _______ _______ _______ _____ _____    ______ ____
ROOT
ATOM      1  O   UNL     1      36.727 -21.707 -18.153  0.00  0.00    -0.270 OA
ATOM      2  N   UNL     1      34.964 -20.966 -19.513  0.00  0.00    -0.259 N 
ATOM      3  C   UNL     1      35.521 -21.679 -18.441  0.00  0.00    +0.253 C 
ATOM      4  H   UNL     1      33.988 -21.041 -19.615  0.00  0.00    +0.157 HD
ATOM      5  N   UNL     1      34.882 -19.554 -21.425  0.00  0.00    -0.388 NA
ATOM      6  C   UNL     1      35.554 -18.789 -22.314  0.00  0.00    +0.166 C 
ATOM      7  C   UNL     1      35.623 -20.154 -20.468  0.00  0.00    +0.167 C 
ATOM      8  C   UNL     1      36.927 -18.596 -22.289  0.00  0.00    +0.031 C 
ATOM      9  C   UNL     1      36.998 -20.024 -20.356  0.00  0.00    +0.101 C 
ATOM     10  C   UNL     1      37.655 -19.229 -21.288  0.00  0.00    -0.015 C 
ENDROOT
BRANCH   3  15
ATOM     11  F   UNL     1      32.858 -22.119 -19.220  0.00  0.00    -0.204 F 
ATOM     12  C   UNL     1      34.089 -23.620 -15.575  0.00  0.00    +0.046 C 
ATOM     13  C   UNL     1      32.776 -23.813 -16.005  0.00  0.00    -0.006 C 
ATOM     14  C   UNL     1      34.990 -22.918 -16.376  0.00  0.00    +0.021 C 
ATOM     15  C   UNL     1      34.578 -22.410 -17.608  0.00  0.00    +0.082 C 
ATOM     16  C   UNL     1      32.364 -23.304 -17.236  0.00  0.00    +0.027 C 
ATOM     17  C   UNL     1      31.785 -24.559 -15.171  0.00  0.00    +0.032 C 
ATOM     18  C   UNL     1      33.266 -22.603 -18.038  0.00  0.00    +0.144 C 
BRANCH  12  20
ATOM     19  N   UNL     1      34.487 -24.655 -12.200  0.00  0.00    -0.255 NA
ATOM     20  N   UNL     1      34.518 -24.117 -14.355  0.00  0.00    -0.282 N 
ATOM     21  C   UNL     1      35.682 -25.028 -12.763  0.00  0.00    +0.053 C 
ATOM     22  C   UNL     1      35.725 -24.705 -14.099  0.00  0.00    +0.134 C 
ATOM     23  C   UNL     1      33.809 -24.110 -13.185  0.00  0.00    +0.219 C 
BRANCH  21  24
ATOM     24  C   UNL     1      36.811 -25.712 -11.998  0.00  0.00    +0.037 C 
ATOM     25  C   UNL     1      38.102 -24.971 -11.805  0.00  0.00    +0.006 C 
ATOM     26  C   UNL     1      38.038 -26.136 -12.750  0.00  0.00    +0.006 C 
ENDBRANCH  21  24
ENDBRANCH  12  20
ENDBRANCH   3  15
BRANCH   6  30
ATOM     27  N   UNL     1      34.502 -16.828 -23.394  0.00  0.00    -0.252 N 
ATOM     28  N   UNL     1      34.091 -18.783 -24.287  0.00  0.00    -0.129 NA
ATOM     29  N   UNL     1      33.425 -17.821 -25.019  0.00  0.00    -0.128 NA
ATOM     30  C   UNL     1      34.730 -18.169 -23.317  0.00  0.00    +0.188 C 
ATOM     31  C   UNL     1      33.683 -16.656 -24.469  0.00  0.00    +0.192 C 
BRANCH  27  32
ATOM     32  C   UNL     1      35.009 -15.788 -22.532  0.00  0.00    +0.080 C 
ATOM     33  C   UNL     1      34.534 -14.404 -22.982  0.00  0.00    +0.022 C 
ATOM     34  C   UNL     1      34.642 -16.040 -21.068  0.00  0.00    +0.022 C 
ENDBRANCH  27  32
ENDBRANCH   6  30
TORSDOF 5
ENDMDL
MODEL 4
REMARK VINA RESULT:     -10.9      3.047      5.609
REMARK  Name = 71245288
REMARK  5 active torsions:
REMARK  status: ('A' for Active; 'I' for Inactive)
REMARK    1  A    between atoms: C_3  and  C_9
REMARK    2  A    between atoms: C_6  and  N_14
REMARK    3  A    between atoms: C_15  and  C_18
REMARK    4  A    between atoms: C_22  and  C_30
REMARK    5  A    between atoms: N_27  and  C_32
REMARK                            x       y       z     vdW  Elec       q    Type
REMARK                         _______ _______ _______ _____ _____    ______ ____
ROOT
ATOM      1  O   UNL     1      36.884 -18.647 -22.072  0.00  0.00    -0.270 OA
ATOM      2  N   UNL     1      34.821 -19.292 -21.158  0.00  0.00    -0.259 N 
ATOM      3  C   UNL     1      35.650 -18.541 -22.005  0.00  0.00    +0.253 C 
ATOM      4  H   UNL     1      33.858 -19.095 -21.218  0.00  0.00    +0.157 HD
ATOM      5  N   UNL     1      34.215 -20.894 -19.508  0.00  0.00    -0.388 NA
ATOM      6  C   UNL     1      34.614 -21.844 -18.633  0.00  0.00    +0.166 C 
ATOM      7  C   UNL     1      35.188 -20.294 -20.228  0.00  0.00    +0.167 C 
ATOM      8  C   UNL     1      35.935 -22.221 -18.446  0.00  0.00    +0.031 C 
ATOM      9  C   UNL     1      36.536 -20.598 -20.116  0.00  0.00    +0.101 C 
ATOM     10  C   UNL     1      36.908 -21.581 -19.205  0.00  0.00    -0.015 C 
ENDROOT
BRANCH   3  15
ATOM     11  F   UNL     1      34.994 -19.158 -24.665  0.00  0.00    -0.204 F 
ATOM     12  C   UNL     1      33.980 -15.420 -23.232  0.00  0.00    +0.046 C 
ATOM     13  C   UNL     1      33.676 -15.773 -24.547  0.00  0.00    -0.006 C 
ATOM     14  C   UNL     1      34.630 -16.330 -22.398  0.00  0.00    +0.021 C 
ATOM     15  C   UNL     1      34.973 -17.594 -22.878  0.00  0.00    +0.082 C 
ATOM     16  C   UNL     1      34.020 -17.036 -25.027  0.00  0.00    +0.027 C 
ATOM     17  C   UNL     1      32.982 -14.821 -25.468  0.00  0.00    +0.032 C 
ATOM     18  C   UNL     1      34.669 -17.947 -24.192  0.00  0.00    +0.144 C 
BRANCH  12  20
ATOM     19  N   UNL     1      33.638 -11.962 -22.494  0.00  0.00    -0.255 NA
ATOM     20  N   UNL     1      33.648 -14.171 -22.736  0.00  0.00    -0.282 N 
ATOM     21  C   UNL     1      32.769 -12.539 -21.601  0.00  0.00    +0.053 C 
ATOM     22  C   UNL     1      32.759 -13.908 -21.732  0.00  0.00    +0.134 C 
ATOM     23  C   UNL     1      34.150 -12.972 -23.162  0.00  0.00    +0.219 C 
BRANCH  21  24
ATOM     24  C   UNL     1      31.930 -11.755 -20.598  0.00  0.00    +0.037 C 
ATOM     25  C   UNL     1      30.592 -11.230 -21.032  0.00  0.00    +0.006 C 
ATOM     26  C   UNL     1      31.737 -10.283 -20.814  0.00  0.00    +0.006 C 
ENDBRANCH  21  24
ENDBRANCH  12  20
ENDBRANCH   3  15
BRANCH   6  30
ATOM     27  N   UNL     1      33.735 -23.191 -16.753  0.00  0.00    -0.252 N 
ATOM     28  N   UNL     1      32.268 -22.407 -18.174  0.00  0.00    -0.129 NA
ATOM     29  N   UNL     1      31.596 -23.125 -17.206  0.00  0.00    -0.128 NA
ATOM     30  C   UNL     1      33.548 -22.459 -17.886  0.00  0.00    +0.188 C 
ATOM     31  C   UNL     1      32.491 -23.586 -16.363  0.00  0.00    +0.192 C 
BRANCH  27  32
ATOM     32  C   UNL     1      34.976 -23.496 -16.085  0.00  0.00    +0.080 C 
ATOM     33  C   UNL     1      35.365 -22.400 -15.089  0.00  0.00    +0.022 C 
ATOM     34  C   UNL     1      34.924 -24.863 -15.398  0.00  0.00    +0.022 C 
ENDBRANCH  27  32
ENDBRANCH   6  30
TORSDOF 5
ENDMDL
MODEL 5
REMARK VINA RESULT:     -10.6      9.423     16.465
REMARK  Name = 71245288
REMARK  5 active torsions:
REMARK  status: ('A' for Active; 'I' for Inactive)
REMARK    1  A    between atoms: C_3  and  C_9
REMARK    2  A    between atoms: C_6  and  N_14
REMARK    3  A    between atoms: C_15  and  C_18
REMARK    4  A    between atoms: C_22  and  C_30
REMARK    5  A    between atoms: N_27  and  C_32
REMARK                            x       y       z     vdW  Elec       q    Type
REMARK                         _______ _______ _______ _____ _____    ______ ____
ROOT
ATOM      1  O   UNL     1      30.770  -8.258 -22.415  0.00  0.00    -0.270 OA
ATOM      2  N   UNL     1      32.783  -8.429 -23.609  0.00  0.00    -0.259 N 
ATOM      3  C   UNL     1      31.790  -8.889 -22.732  0.00  0.00    +0.253 C 
ATOM      4  H   UNL     1      33.536  -9.044 -23.764  0.00  0.00    +0.157 HD
ATOM      5  N   UNL     1      33.905  -6.955 -25.102  0.00  0.00    -0.388 NA
ATOM      6  C   UNL     1      33.921  -5.764 -25.739  0.00  0.00    +0.166 C 
ATOM      7  C   UNL     1      32.845  -7.194 -24.299  0.00  0.00    +0.167 C 
ATOM      8  C   UNL     1      32.929  -4.804 -25.613  0.00  0.00    +0.031 C 
ATOM      9  C   UNL     1      31.802  -6.301 -24.106  0.00  0.00    +0.101 C 
ATOM     10  C   UNL     1      31.853  -5.085 -24.779  0.00  0.00    -0.015 C 
ENDROOT
BRANCH   3  15
ATOM     11  F   UNL     1      31.253  -9.517 -20.048  0.00  0.00    -0.204 F 
ATOM     12  C   UNL     1      32.659 -12.526 -22.503  0.00  0.00    +0.046 C 
ATOM     13  C   UNL     1      32.378 -12.789 -21.162  0.00  0.00    -0.006 C 
ATOM     14  C   UNL     1      32.466 -11.244 -23.018  0.00  0.00    +0.021 C 
ATOM     15  C   UNL     1      31.991 -10.225 -22.192  0.00  0.00    +0.082 C 
ATOM     16  C   UNL     1      31.904 -11.770 -20.336  0.00  0.00    +0.027 C 
ATOM     17  C   UNL     1      32.576 -14.151 -20.578  0.00  0.00    +0.032 C 
ATOM     18  C   UNL     1      31.710 -10.489 -20.851  0.00  0.00    +0.144 C 
BRANCH  12  20
ATOM     19  N   UNL     1      33.485 -14.685 -25.200  0.00  0.00    -0.255 NA
ATOM     20  N   UNL     1      33.132 -13.523 -23.339  0.00  0.00    -0.282 N 
ATOM     21  C   UNL     1      34.120 -15.284 -24.141  0.00  0.00    +0.053 C 
ATOM     22  C   UNL     1      33.916 -14.582 -22.976  0.00  0.00    +0.134 C 
ATOM     23  C   UNL     1      32.900 -13.628 -24.683  0.00  0.00    +0.219 C 
BRANCH  21  24
ATOM     24  C   UNL     1      34.944 -16.564 -24.251  0.00  0.00    +0.037 C 
ATOM     25  C   UNL     1      34.226 -17.881 -24.290  0.00  0.00    +0.006 C 
ATOM     26  C   UNL     1      35.004 -17.485 -23.069  0.00  0.00    +0.006 C 
ENDBRANCH  21  24
ENDBRANCH  12  20
ENDBRANCH   3  15
BRANCH   6  30
ATOM     27  N   UNL     1      35.033  -5.610 -27.943  0.00  0.00    -0.252 N 
ATOM     28  N   UNL     1      36.285  -5.267 -26.182  0.00  0.00    -0.129 NA
ATOM     29  N   UNL     1      37.073  -5.141 -27.309  0.00  0.00    -0.128 NA
ATOM     30  C   UNL     1      35.066  -5.549 -26.584  0.00  0.00    +0.188 C 
ATOM     31  C   UNL     1      36.305  -5.349 -28.354  0.00  0.00    +0.192 C 
BRANCH  27  32
ATOM     32  C   UNL     1      33.901  -5.888 -28.795  0.00  0.00    +0.080 C 
ATOM     33  C   UNL     1      33.277  -4.601 -29.340  0.00  0.00    +0.022 C 
ATOM     34  C   UNL     1      34.275  -6.838 -29.935  0.00  0.00    +0.022 C 
ENDBRANCH  27  32
ENDBRANCH   6  30
TORSDOF 5
ENDMDL
MODEL 6
REMARK VINA RESULT:     -10.4      1.980     10.600
REMARK  Name = 71245288
REMARK  5 active torsions:
REMARK  status: ('A' for Active; 'I' for Inactive)
REMARK    1  A    between atoms: C_3  and  C_9
REMARK    2  A    between atoms: C_6  and  N_14
REMARK    3  A    between atoms: C_15  and  C_18
REMARK    4  A    between atoms: C_22  and  C_30
REMARK    5  A    between atoms: N_27  and  C_32
REMARK                            x       y       z     vdW  Elec       q    Type
REMARK                         _______ _______ _______ _____ _____    ______ ____
ROOT
ATOM      1  O   UNL     1      36.435 -22.236 -19.603  0.00  0.00    -0.270 OA
ATOM      2  N   UNL     1      34.984 -20.393 -19.536  0.00  0.00    -0.259 N 
ATOM      3  C   UNL     1      35.426 -21.669 -19.156  0.00  0.00    +0.253 C 
ATOM      4  H   UNL     1      34.164 -20.075 -19.094  0.00  0.00    +0.157 HD
ATOM      5  N   UNL     1      34.962 -18.312 -20.688  0.00  0.00    -0.388 NA
ATOM      6  C   UNL     1      35.549 -17.497 -21.592  0.00  0.00    +0.166 C 
ATOM      7  C   UNL     1      35.562 -19.504 -20.474  0.00  0.00    +0.167 C 
ATOM      8  C   UNL     1      36.704 -17.816 -22.288  0.00  0.00    +0.031 C 
ATOM      9  C   UNL     1      36.717 -19.917 -21.118  0.00  0.00    +0.101 C 
ATOM     10  C   UNL     1      37.293 -19.051 -22.042  0.00  0.00    -0.015 C 
ENDROOT
BRANCH   3  15
ATOM     11  F   UNL     1      32.625 -21.807 -19.293  0.00  0.00    -0.204 F 
ATOM     12  C   UNL     1      34.502 -23.584 -16.072  0.00  0.00    +0.046 C 
ATOM     13  C   UNL     1      33.112 -23.626 -16.184  0.00  0.00    -0.006 C 
ATOM     14  C   UNL     1      35.262 -22.940 -17.049  0.00  0.00    +0.021 C 
ATOM     15  C   UNL     1      34.631 -22.339 -18.139  0.00  0.00    +0.082 C 
ATOM     16  C   UNL     1      32.482 -23.024 -17.272  0.00  0.00    +0.027 C 
ATOM     17  C   UNL     1      32.268 -24.306 -15.154  0.00  0.00    +0.032 C 
ATOM     18  C   UNL     1      33.242 -22.381 -18.250  0.00  0.00    +0.144 C 
BRANCH  12  20
ATOM     19  N   UNL     1      36.165 -25.729 -13.780  0.00  0.00    -0.255 NA
ATOM     20  N   UNL     1      35.148 -24.174 -14.999  0.00  0.00    -0.282 N 
ATOM     21  C   UNL     1      36.088 -24.553 -13.077  0.00  0.00    +0.053 C 
ATOM     22  C   UNL     1      35.461 -23.574 -13.811  0.00  0.00    +0.134 C 
ATOM     23  C   UNL     1      35.590 -25.467 -14.933  0.00  0.00    +0.219 C 
BRANCH  21  24
ATOM     24  C   UNL     1      36.630 -24.365 -11.663  0.00  0.00    +0.037 C 
ATOM     25  C   UNL     1      37.190 -23.027 -11.278  0.00  0.00    +0.006 C 
ATOM     26  C   UNL     1      38.109 -24.198 -11.475  0.00  0.00    +0.006 C 
ENDBRANCH  21  24
ENDBRANCH  12  20
ENDBRANCH   3  15
BRANCH   6  30
ATOM     27  N   UNL     1      34.428 -15.797 -22.996  0.00  0.00    -0.252 N 
ATOM     28  N   UNL     1      34.608 -15.348 -20.863  0.00  0.00    -0.129 NA
ATOM     29  N   UNL     1      33.962 -14.294 -21.477  0.00  0.00    -0.128 NA
ATOM     30  C   UNL     1      34.880 -16.238 -21.790  0.00  0.00    +0.188 C 
ATOM     31  C   UNL     1      33.862 -14.582 -22.754  0.00  0.00    +0.192 C 
BRANCH  27  32
ATOM     32  C   UNL     1      34.514 -16.459 -24.276  0.00  0.00    +0.080 C 
ATOM     33  C   UNL     1      33.933 -17.874 -24.219  0.00  0.00    +0.022 C 
ATOM     34  C   UNL     1      33.843 -15.638 -25.380  0.00  0.00    +0.022 C 
ENDBRANCH  27  32
ENDBRANCH   6  30
TORSDOF 5
ENDMDL
MODEL 7
REMARK VINA RESULT:     -10.3      2.217     10.022
REMARK  Name = 71245288
REMARK  5 active torsions:
REMARK  status: ('A' for Active; 'I' for Inactive)
REMARK    1  A    between atoms: C_3  and  C_9
REMARK    2  A    between atoms: C_6  and  N_14
REMARK    3  A    between atoms: C_15  and  C_18
REMARK    4  A    between atoms: C_22  and  C_30
REMARK    5  A    between atoms: N_27  and  C_32
REMARK                            x       y       z     vdW  Elec       q    Type
REMARK                         _______ _______ _______ _____ _____    ______ ____
ROOT
ATOM      1  O   UNL     1      35.068 -22.743 -20.272  0.00  0.00    -0.270 OA
ATOM      2  N   UNL     1      34.847 -20.535 -19.510  0.00  0.00    -0.259 N 
ATOM      3  C   UNL     1      34.941 -21.925 -19.348  0.00  0.00    +0.253 C 
ATOM      4  H   UNL     1      34.749 -20.013 -18.681  0.00  0.00    +0.157 HD
ATOM      5  N   UNL     1      34.766 -18.439 -20.632  0.00  0.00    -0.388 NA
ATOM      6  C   UNL     1      34.795 -17.765 -21.804  0.00  0.00    +0.166 C 
ATOM      7  C   UNL     1      34.873 -19.784 -20.710  0.00  0.00    +0.167 C 
ATOM      8  C   UNL     1      34.928 -18.370 -23.043  0.00  0.00    +0.031 C 
ATOM      9  C   UNL     1      35.010 -20.483 -21.898  0.00  0.00    +0.101 C 
ATOM     10  C   UNL     1      35.037 -19.756 -23.083  0.00  0.00    -0.015 C 
ENDROOT
BRANCH   3  15
ATOM     11  F   UNL     1      37.231 -21.968 -17.722  0.00  0.00    -0.204 F 
ATOM     12  C   UNL     1      33.680 -23.332 -16.113  0.00  0.00    +0.046 C 
ATOM     13  C   UNL     1      34.845 -23.334 -15.345  0.00  0.00    -0.006 C 
ATOM     14  C   UNL     1      33.713 -22.869 -17.429  0.00  0.00    +0.021 C 
ATOM     15  C   UNL     1      34.910 -22.407 -17.976  0.00  0.00    +0.082 C 
ATOM     16  C   UNL     1      36.041 -22.873 -15.892  0.00  0.00    +0.027 C 
ATOM     17  C   UNL     1      34.844 -23.824 -13.932  0.00  0.00    +0.032 C 
ATOM     18  C   UNL     1      36.074 -22.409 -17.207  0.00  0.00    +0.144 C 
BRANCH  12  20
ATOM     19  N   UNL     1      31.068 -24.892 -14.280  0.00  0.00    -0.255 NA
ATOM     20  N   UNL     1      32.481 -23.786 -15.590  0.00  0.00    -0.282 N 
ATOM     21  C   UNL     1      30.374 -24.145 -15.198  0.00  0.00    +0.053 C 
ATOM     22  C   UNL     1      31.229 -23.450 -16.021  0.00  0.00    +0.134 C 
ATOM     23  C   UNL     1      32.334 -24.654 -14.543  0.00  0.00    +0.219 C 
BRANCH  21  24
ATOM     24  C   UNL     1      28.852 -24.097 -15.287  0.00  0.00    +0.037 C 
ATOM     25  C   UNL     1      28.218 -23.718 -16.593  0.00  0.00    +0.006 C 
ATOM     26  C   UNL     1      28.181 -22.764 -15.436  0.00  0.00    +0.006 C 
ENDBRANCH  21  24
ENDBRANCH  12  20
ENDBRANCH   3  15
BRANCH   6  30
ATOM     27  N   UNL     1      34.341 -15.506 -22.703  0.00  0.00    -0.252 N 
ATOM     28  N   UNL     1      34.870 -15.634 -20.584  0.00  0.00    -0.129 NA
ATOM     29  N   UNL     1      34.655 -14.308 -20.900  0.00  0.00    -0.128 NA
ATOM     30  C   UNL     1      34.678 -16.336 -21.677  0.00  0.00    +0.188 C 
ATOM     31  C   UNL     1      34.338 -14.251 -22.173  0.00  0.00    +0.192 C 
BRANCH  27  32
ATOM     32  C   UNL     1      34.042 -15.855 -24.071  0.00  0.00    +0.080 C 
ATOM     33  C   UNL     1      33.098 -14.839 -24.718  0.00  0.00    +0.022 C 
ATOM     34  C   UNL     1      35.317 -16.021 -24.901  0.00  0.00    +0.022 C 
ENDBRANCH  27  32
ENDBRANCH   6  30
TORSDOF 5
ENDMDL
MODEL 8
REMARK VINA RESULT:     -10.1      2.932      4.379
REMARK  Name = 71245288
REMARK  5 active torsions:
REMARK  status: ('A' for Active; 'I' for Inactive)
REMARK    1  A    between atoms: C_3  and  C_9
REMARK    2  A    between atoms: C_6  and  N_14
REMARK    3  A    between atoms: C_15  and  C_18
REMARK    4  A    between atoms: C_22  and  C_30
REMARK    5  A    between atoms: N_27  and  C_32
REMARK                            x       y       z     vdW  Elec       q    Type
REMARK                         _______ _______ _______ _____ _____    ______ ____
ROOT
ATOM      1  O   UNL     1      36.337 -20.988 -20.023  0.00  0.00    -0.270 OA
ATOM      2  N   UNL     1      34.020 -20.938 -19.654  0.00  0.00    -0.259 N 
ATOM      3  C   UNL     1      35.205 -20.564 -20.304  0.00  0.00    +0.253 C 
ATOM      4  H   UNL     1      33.197 -20.516 -19.990  0.00  0.00    +0.157 HD
ATOM      5  N   UNL     1      32.607 -22.054 -18.100  0.00  0.00    -0.388 NA
ATOM      6  C   UNL     1      32.498 -22.924 -17.071  0.00  0.00    +0.166 C 
ATOM      7  C   UNL     1      33.853 -21.841 -18.576  0.00  0.00    +0.167 C 
ATOM      8  C   UNL     1      33.572 -23.588 -16.500  0.00  0.00    +0.031 C 
ATOM      9  C   UNL     1      34.991 -22.455 -18.076  0.00  0.00    +0.101 C 
ATOM     10  C   UNL     1      34.838 -23.344 -17.017  0.00  0.00    -0.015 C 
ENDROOT
BRANCH   3  15
ATOM     11  F   UNL     1      35.236 -21.388 -22.989  0.00  0.00    -0.204 F 
ATOM     12  C   UNL     1      34.747 -17.364 -22.198  0.00  0.00    +0.046 C 
ATOM     13  C   UNL     1      34.769 -17.822 -23.515  0.00  0.00    -0.006 C 
ATOM     14  C   UNL     1      34.891 -18.266 -21.143  0.00  0.00    +0.021 C 
ATOM     15  C   UNL     1      35.056 -19.626 -21.406  0.00  0.00    +0.082 C 
ATOM     16  C   UNL     1      34.935 -19.182 -23.778  0.00  0.00    +0.027 C 
ATOM     17  C   UNL     1      34.619 -16.883 -24.669  0.00  0.00    +0.032 C 
ATOM     18  C   UNL     1      35.078 -20.084 -22.724  0.00  0.00    +0.144 C 
BRANCH  12  20
ATOM     19  N   UNL     1      34.428 -14.145 -20.732  0.00  0.00    -0.255 NA
ATOM     20  N   UNL     1      34.584 -16.019 -21.915  0.00  0.00    -0.282 N 
ATOM     21  C   UNL     1      34.273 -13.874 -22.069  0.00  0.00    +0.053 C 
ATOM     22  C   UNL     1      34.366 -15.020 -22.822  0.00  0.00    +0.134 C 
ATOM     23  C   UNL     1      34.614 -15.445 -20.674  0.00  0.00    +0.219 C 
BRANCH  21  24
ATOM     24  C   UNL     1      34.030 -12.479 -22.636  0.00  0.00    +0.037 C 
ATOM     25  C   UNL     1      32.625 -11.952 -22.674  0.00  0.00    +0.006 C 
ATOM     26  C   UNL     1      33.313 -12.349 -23.947  0.00  0.00    +0.006 C 
ENDBRANCH  21  24
ENDBRANCH  12  20
ENDBRANCH   3  15
BRANCH   6  30
ATOM     27  N   UNL     1      30.849 -23.685 -15.391  0.00  0.00    -0.252 N 
ATOM     28  N   UNL     1      30.049 -22.800 -17.225  0.00  0.00    -0.129 NA
ATOM     29  N   UNL     1      28.990 -23.161 -16.417  0.00  0.00    -0.128 NA
ATOM     30  C   UNL     1      31.155 -23.123 -16.593  0.00  0.00    +0.188 C 
ATOM     31  C   UNL     1      29.489 -23.688 -15.323  0.00  0.00    +0.192 C 
BRANCH  27  32
ATOM     32  C   UNL     1      31.756 -24.179 -14.383  0.00  0.00    +0.080 C 
ATOM     33  C   UNL     1      32.004 -23.137 -13.290  0.00  0.00    +0.022 C 
ATOM     34  C   UNL     1      31.261 -25.495 -13.778  0.00  0.00    +0.022 C 
ENDBRANCH  27  32
ENDBRANCH   6  30
TORSDOF 5
ENDMDL
MODEL 9
REMARK VINA RESULT:      -9.9      9.108     16.801
REMARK  Name = 71245288
REMARK  5 active torsions:
REMARK  status: ('A' for Active; 'I' for Inactive)
REMARK    1  A    between atoms: C_3  and  C_9
REMARK    2  A    between atoms: C_6  and  N_14
REMARK    3  A    between atoms: C_15  and  C_18
REMARK    4  A    between atoms: C_22  and  C_30
REMARK    5  A    between atoms: N_27  and  C_32
REMARK                            x       y       z     vdW  Elec       q    Type
REMARK                         _______ _______ _______ _____ _____    ______ ____
ROOT
ATOM      1  O   UNL     1      35.488  -9.268 -24.141  0.00  0.00    -0.270 OA
ATOM      2  N   UNL     1      33.491  -8.046 -23.980  0.00  0.00    -0.259 N 
ATOM      3  C   UNL     1      34.300  -9.178 -23.797  0.00  0.00    +0.253 C 
ATOM      4  H   UNL     1      32.566  -8.125 -23.654  0.00  0.00    +0.157 HD
ATOM      5  N   UNL     1      32.887  -5.844 -24.645  0.00  0.00    -0.388 NA
ATOM      6  C   UNL     1      33.259  -4.678 -25.219  0.00  0.00    +0.166 C 
ATOM      7  C   UNL     1      33.832  -6.806 -24.572  0.00  0.00    +0.167 C 
ATOM      8  C   UNL     1      34.527  -4.431 -25.720  0.00  0.00    +0.031 C 
ATOM      9  C   UNL     1      35.127  -6.658 -25.043  0.00  0.00    +0.101 C 
ATOM     10  C   UNL     1      35.473  -5.444 -25.627  0.00  0.00    -0.015 C 
ENDROOT
BRANCH   3  15
ATOM     11  F   UNL     1      32.384  -8.838 -21.772  0.00  0.00    -0.204 F 
ATOM     12  C   UNL     1      33.414 -12.691 -22.843  0.00  0.00    +0.046 C 
ATOM     13  C   UNL     1      32.468 -12.471 -21.842  0.00  0.00    -0.006 C 
ATOM     14  C   UNL     1      34.016 -11.608 -23.485  0.00  0.00    +0.021 C 
ATOM     15  C   UNL     1      33.671 -10.305 -23.126  0.00  0.00    +0.082 C 
ATOM     16  C   UNL     1      32.123 -11.169 -21.483  0.00  0.00    +0.027 C 
ATOM     17  C   UNL     1      31.805 -13.609 -21.134  0.00  0.00    +0.032 C 
ATOM     18  C   UNL     1      32.724 -10.086 -22.125  0.00  0.00    +0.144 C 
BRANCH  12  20
ATOM     19  N   UNL     1      33.875 -15.843 -24.414  0.00  0.00    -0.255 NA
ATOM     20  N   UNL     1      33.772 -13.976 -23.215  0.00  0.00    -0.282 N 
ATOM     21  C   UNL     1      34.645 -15.965 -23.284  0.00  0.00    +0.053 C 
ATOM     22  C   UNL     1      34.597 -14.820 -22.524  0.00  0.00    +0.134 C 
ATOM     23  C   UNL     1      33.364 -14.635 -24.342  0.00  0.00    +0.219 C 
BRANCH  21  24
ATOM     24  C   UNL     1      35.447 -17.212 -22.926  0.00  0.00    +0.037 C 
ATOM     25  C   UNL     1      34.706 -18.483 -22.629  0.00  0.00    +0.006 C 
ATOM     26  C   UNL     1      35.381 -17.731 -21.520  0.00  0.00    +0.006 C 
ENDBRANCH  21  24
ENDBRANCH  12  20
ENDBRANCH   3  15
BRANCH   6  30
ATOM     27  N   UNL     1      31.684  -3.077 -24.182  0.00  0.00    -0.252 N 
ATOM     28  N   UNL     1      31.657  -3.211 -26.366  0.00  0.00    -0.129 NA
ATOM     29  N   UNL     1      30.721  -2.275 -25.975  0.00  0.00    -0.128 NA
ATOM     30  C   UNL     1      32.223  -3.680 -25.277  0.00  0.00    +0.188 C 
ATOM     31  C   UNL     1      30.752  -2.208 -24.663  0.00  0.00    +0.192 C 
BRANCH  27  32
ATOM     32  C   UNL     1      32.014  -3.292 -22.794  0.00  0.00    +0.080 C 
ATOM     33  C   UNL     1      32.007  -1.981 -22.004  0.00  0.00    +0.022 C 
ATOM     34  C   UNL     1      31.085  -4.322 -22.148  0.00  0.00    +0.022 C 
ENDBRANCH  27  32
ENDBRANCH   6  30
TORSDOF 5
ENDMDL
