MODEL 1
REMARK VINA RESULT:     -12.2      0.000      0.000
REMARK  Name = 46911863
REMARK  3 active torsions:
REMARK  status: ('A' for Active; 'I' for Inactive)
REMARK    1  A    between atoms: C_5  and  C_18
REMARK    2  A    between atoms: C_7  and  C_12
REMARK    3  A    between atoms: C_18  and  C_20
REMARK                            x       y       z     vdW  Elec       q    Type
REMARK                         _______ _______ _______ _____ _____    ______ ____
ROOT
ATOM      1  N   UNL     1      34.359 -22.179 -18.280  0.00  0.00    -0.190 N 
ATOM      2  N   UNL     1      35.436 -22.535 -17.537  0.00  0.00    -0.162 NA
ATOM      3  N   UNL     1      33.129 -21.300 -19.867  0.00  0.00    -0.126 NA
ATOM      4  N   UNL     1      32.291 -21.944 -18.980  0.00  0.00    -0.127 NA
ATOM      5  C   UNL     1      34.361 -21.452 -19.434  0.00  0.00    +0.228 A 
ATOM      6  C   UNL     1      33.037 -22.469 -18.030  0.00  0.00    +0.187 A 
ATOM      7  C   UNL     1      35.138 -23.226 -16.473  0.00  0.00    +0.104 C 
ATOM      8  C   UNL     1      32.746 -23.231 -16.883  0.00  0.00    +0.042 C 
ATOM      9  C   UNL     1      33.746 -23.629 -16.087  0.00  0.00    +0.024 C 
ENDROOT
BRANCH   7  12
ATOM     10  N   UNL     1      37.386 -24.751 -14.064  0.00  0.00    -0.208 N 
ATOM     11  N   UNL     1      38.254 -23.832 -14.522  0.00  0.00    -0.176 NA
ATOM     12  C   UNL     1      36.233 -23.672 -15.573  0.00  0.00    +0.056 C 
ATOM     13  C   UNL     1      36.161 -24.697 -14.661  0.00  0.00    +0.087 C 
ATOM     14  C   UNL     1      37.544 -23.176 -15.443  0.00  0.00    +0.121 C 
ATOM     15  C   UNL     1      37.797 -25.674 -13.033  0.00  0.00    +0.140 C 
ENDBRANCH   7  12
BRANCH   5  18
ATOM     16  F   UNL     1      36.407 -21.973 -20.530  0.00  0.00    -0.191 F 
ATOM     17  F   UNL     1      36.449 -20.359 -19.110  0.00  0.00    -0.191 F 
ATOM     18  C   UNL     1      35.637 -20.916 -20.082  0.00  0.00    +0.335 C 
BRANCH  18  20
ATOM     19  N   UNL     1      34.513 -17.264 -24.256  0.00  0.00    -0.244 NA
ATOM     20  C   UNL     1      35.342 -19.946 -21.175  0.00  0.00    +0.045 C 
ATOM     21  C   UNL     1      35.342 -18.578 -20.916  0.00  0.00    +0.003 C 
ATOM     22  C   UNL     1      35.064 -17.661 -21.944  0.00  0.00    +0.018 C 
ATOM     23  C   UNL     1      35.065 -20.402 -22.458  0.00  0.00    +0.003 C 
ATOM     24  C   UNL     1      34.783 -18.116 -23.248  0.00  0.00    +0.081 C 
ATOM     25  C   UNL     1      34.789 -19.489 -23.478  0.00  0.00    +0.019 C 
ATOM     26  C   UNL     1      35.058 -16.279 -21.712  0.00  0.00    +0.003 C 
ATOM     27  C   UNL     1      34.780 -15.399 -22.748  0.00  0.00    +0.021 C 
ATOM     28  C   UNL     1      34.517 -15.938 -23.990  0.00  0.00    +0.099 C 
ENDBRANCH  18  20
ENDBRANCH   5  18
TORSDOF 3
ENDMDL
MODEL 2
REMARK VINA RESULT:     -11.8      3.271      5.760
REMARK  Name = 46911863
REMARK  3 active torsions:
REMARK  status: ('A' for Active; 'I' for Inactive)
REMARK    1  A    between atoms: C_5  and  C_18
REMARK    2  A    between atoms: C_7  and  C_12
REMARK    3  A    between atoms: C_18  and  C_20
REMARK                            x       y       z     vdW  Elec       q    Type
REMARK                         _______ _______ _______ _____ _____    ______ ____
ROOT
ATOM      1  N   UNL     1      32.814 -23.240 -16.265  0.00  0.00    -0.190 N 
ATOM      2  N   UNL     1      31.506 -23.140 -16.611  0.00  0.00    -0.162 NA
ATOM      3  N   UNL     1      34.999 -23.330 -16.407  0.00  0.00    -0.126 NA
ATOM      4  N   UNL     1      34.648 -23.471 -15.080  0.00  0.00    -0.127 NA
ATOM      5  C   UNL     1      33.891 -23.192 -17.100  0.00  0.00    +0.228 A 
ATOM      6  C   UNL     1      33.335 -23.415 -15.003  0.00  0.00    +0.187 A 
ATOM      7  C   UNL     1      30.686 -23.228 -15.602  0.00  0.00    +0.104 C 
ATOM      8  C   UNL     1      32.425 -23.491 -13.931  0.00  0.00    +0.042 C 
ATOM      9  C   UNL     1      31.112 -23.401 -14.175  0.00  0.00    +0.024 C 
ENDROOT
BRANCH   7  12
ATOM     10  N   UNL     1      27.103 -22.646 -15.680  0.00  0.00    -0.208 N 
ATOM     11  N   UNL     1      27.158 -23.403 -16.790  0.00  0.00    -0.176 NA
ATOM     12  C   UNL     1      29.223 -23.139 -15.853  0.00  0.00    +0.056 C 
ATOM     13  C   UNL     1      28.313 -22.458 -15.081  0.00  0.00    +0.087 C 
ATOM     14  C   UNL     1      28.456 -23.701 -16.890  0.00  0.00    +0.121 C 
ATOM     15  C   UNL     1      25.835 -22.120 -15.234  0.00  0.00    +0.140 C 
ENDBRANCH   7  12
BRANCH   5  18
ATOM     16  F   UNL     1      32.463 -22.679 -18.932  0.00  0.00    -0.191 F 
ATOM     17  F   UNL     1      33.921 -24.228 -19.241  0.00  0.00    -0.191 F 
ATOM     18  C   UNL     1      33.768 -23.006 -18.612  0.00  0.00    +0.335 C 
BRANCH  18  20
ATOM     19  N   UNL     1      37.460 -19.181 -20.549  0.00  0.00    -0.244 NA
ATOM     20  C   UNL     1      34.734 -21.995 -19.129  0.00  0.00    +0.045 C 
ATOM     21  C   UNL     1      34.364 -21.138 -20.162  0.00  0.00    +0.003 C 
ATOM     22  C   UNL     1      35.271 -20.183 -20.652  0.00  0.00    +0.018 C 
ATOM     23  C   UNL     1      36.008 -21.903 -18.584  0.00  0.00    +0.003 C 
ATOM     24  C   UNL     1      36.566 -20.084 -20.103  0.00  0.00    +0.081 C 
ATOM     25  C   UNL     1      36.909 -20.954 -19.072  0.00  0.00    +0.019 C 
ATOM     26  C   UNL     1      34.925 -19.307 -21.690  0.00  0.00    +0.003 C 
ATOM     27  C   UNL     1      35.844 -18.375 -22.151  0.00  0.00    +0.021 C 
ATOM     28  C   UNL     1      37.087 -18.353 -21.552  0.00  0.00    +0.099 C 
ENDBRANCH  18  20
ENDBRANCH   5  18
TORSDOF 3
ENDMDL
MODEL 3
REMARK VINA RESULT:     -11.7      2.424      3.467
REMARK  Name = 46911863
REMARK  3 active torsions:
REMARK  status: ('A' for Active; 'I' for Inactive)
REMARK    1  A    between atoms: C_5  and  C_18
REMARK    2  A    between atoms: C_7  and  C_12
REMARK    3  A    between atoms: C_18  and  C_20
REMARK                            x       y       z     vdW  Elec       q    Type
REMARK                         _______ _______ _______ _____ _____    ______ ____
ROOT
ATOM      1  N   UNL     1      32.820 -23.462 -15.774  0.00  0.00    -0.190 N 
ATOM      2  N   UNL     1      33.874 -23.951 -15.075  0.00  0.00    -0.162 NA
ATOM      3  N   UNL     1      31.596 -22.701 -17.425  0.00  0.00    -0.126 NA
ATOM      4  N   UNL     1      30.822 -22.708 -16.282  0.00  0.00    -0.127 NA
ATOM      5  C   UNL     1      32.786 -23.155 -17.102  0.00  0.00    +0.228 A 
ATOM      6  C   UNL     1      31.564 -23.167 -15.296  0.00  0.00    +0.187 A 
ATOM      7  C   UNL     1      33.625 -24.144 -13.811  0.00  0.00    +0.104 C 
ATOM      8  C   UNL     1      31.318 -23.401 -13.930  0.00  0.00    +0.042 C 
ATOM      9  C   UNL     1      32.300 -23.885 -13.159  0.00  0.00    +0.024 C 
ENDROOT
BRANCH   7  12
ATOM     10  N   UNL     1      36.567 -25.565 -12.226  0.00  0.00    -0.208 N 
ATOM     11  N   UNL     1      35.903 -25.284 -11.091  0.00  0.00    -0.176 NA
ATOM     12  C   UNL     1      34.703 -24.673 -12.935  0.00  0.00    +0.056 C 
ATOM     13  C   UNL     1      35.891 -25.219 -13.359  0.00  0.00    +0.087 C 
ATOM     14  C   UNL     1      34.766 -24.740 -11.531  0.00  0.00    +0.121 C 
ATOM     15  C   UNL     1      37.872 -26.176 -12.161  0.00  0.00    +0.140 C 
ENDBRANCH   7  12
BRANCH   5  18
ATOM     16  F   UNL     1      33.857 -24.515 -18.734  0.00  0.00    -0.191 F 
ATOM     17  F   UNL     1      35.122 -23.566 -17.278  0.00  0.00    -0.191 F 
ATOM     18  C   UNL     1      33.987 -23.331 -18.032  0.00  0.00    +0.335 C 
BRANCH  18  20
ATOM     19  N   UNL     1      34.612 -18.903 -21.498  0.00  0.00    -0.244 NA
ATOM     20  C   UNL     1      34.162 -22.165 -18.943  0.00  0.00    +0.045 C 
ATOM     21  C   UNL     1      35.433 -21.655 -19.191  0.00  0.00    +0.003 C 
ATOM     22  C   UNL     1      35.602 -20.555 -20.050  0.00  0.00    +0.018 C 
ATOM     23  C   UNL     1      33.058 -21.581 -19.550  0.00  0.00    +0.003 C 
ATOM     24  C   UNL     1      34.485 -19.958 -20.670  0.00  0.00    +0.081 C 
ATOM     25  C   UNL     1      33.226 -20.488 -20.404  0.00  0.00    +0.019 C 
ATOM     26  C   UNL     1      36.870 -20.021 -20.318  0.00  0.00    +0.003 C 
ATOM     27  C   UNL     1      37.003 -18.936 -21.171  0.00  0.00    +0.021 C 
ATOM     28  C   UNL     1      35.853 -18.418 -21.731  0.00  0.00    +0.099 C 
ENDBRANCH  18  20
ENDBRANCH   5  18
TORSDOF 3
ENDMDL
MODEL 4
REMARK VINA RESULT:     -11.2      4.467      8.196
REMARK  Name = 46911863
REMARK  3 active torsions:
REMARK  status: ('A' for Active; 'I' for Inactive)
REMARK    1  A    between atoms: C_5  and  C_18
REMARK    2  A    between atoms: C_7  and  C_12
REMARK    3  A    between atoms: C_18  and  C_20
REMARK                            x       y       z     vdW  Elec       q    Type
REMARK                         _______ _______ _______ _____ _____    ______ ____
ROOT
ATOM      1  N   UNL     1      34.127 -16.016 -23.396  0.00  0.00    -0.190 N 
ATOM      2  N   UNL     1      34.624 -16.739 -22.361  0.00  0.00    -0.162 NA
ATOM      3  N   UNL     1      33.286 -14.359 -24.557  0.00  0.00    -0.126 NA
ATOM      4  N   UNL     1      33.426 -15.445 -25.396  0.00  0.00    -0.127 NA
ATOM      5  C   UNL     1      33.711 -14.718 -23.366  0.00  0.00    +0.228 A 
ATOM      6  C   UNL     1      33.932 -16.435 -24.691  0.00  0.00    +0.187 A 
ATOM      7  C   UNL     1      34.936 -17.964 -22.675  0.00  0.00    +0.104 C 
ATOM      8  C   UNL     1      34.293 -17.760 -25.006  0.00  0.00    +0.042 C 
ATOM      9  C   UNL     1      34.794 -18.549 -24.048  0.00  0.00    +0.024 C 
ENDROOT
BRANCH   7  12
ATOM     10  N   UNL     1      35.712 -20.454 -20.149  0.00  0.00    -0.208 N 
ATOM     11  N   UNL     1      36.889 -19.805 -20.090  0.00  0.00    -0.176 NA
ATOM     12  C   UNL     1      35.487 -18.860 -21.624  0.00  0.00    +0.056 C 
ATOM     13  C   UNL     1      34.837 -19.927 -21.052  0.00  0.00    +0.087 C 
ATOM     14  C   UNL     1      36.744 -18.832 -20.993  0.00  0.00    +0.121 C 
ATOM     15  C   UNL     1      35.480 -21.596 -19.297  0.00  0.00    +0.140 C 
ENDBRANCH   7  12
BRANCH   5  18
ATOM     16  F   UNL     1      35.067 -13.640 -21.736  0.00  0.00    -0.191 F 
ATOM     17  F   UNL     1      33.267 -14.583 -21.033  0.00  0.00    -0.191 F 
ATOM     18  C   UNL     1      33.752 -13.855 -22.105  0.00  0.00    +0.335 C 
BRANCH  18  20
ATOM     19  N   UNL     1      30.909  -9.007 -22.761  0.00  0.00    -0.244 NA
ATOM     20  C   UNL     1      33.011 -12.574 -22.282  0.00  0.00    +0.045 C 
ATOM     21  C   UNL     1      33.622 -11.494 -22.912  0.00  0.00    +0.003 C 
ATOM     22  C   UNL     1      32.927 -10.284 -23.082  0.00  0.00    +0.018 C 
ATOM     23  C   UNL     1      31.707 -12.450 -21.819  0.00  0.00    +0.003 C 
ATOM     24  C   UNL     1      31.603 -10.152 -22.615  0.00  0.00    +0.081 C 
ATOM     25  C   UNL     1      31.017 -11.248 -21.988  0.00  0.00    +0.019 C 
ATOM     26  C   UNL     1      33.518  -9.181 -23.714  0.00  0.00    +0.003 C 
ATOM     27  C   UNL     1      32.805  -8.001 -23.866  0.00  0.00    +0.021 C 
ATOM     28  C   UNL     1      31.515  -7.966 -23.376  0.00  0.00    +0.099 C 
ENDBRANCH  18  20
ENDBRANCH   5  18
TORSDOF 3
ENDMDL
MODEL 5
REMARK VINA RESULT:     -11.1      6.533     12.824
REMARK  Name = 46911863
REMARK  3 active torsions:
REMARK  status: ('A' for Active; 'I' for Inactive)
REMARK    1  A    between atoms: C_5  and  C_18
REMARK    2  A    between atoms: C_7  and  C_12
REMARK    3  A    between atoms: C_18  and  C_20
REMARK                            x       y       z     vdW  Elec       q    Type
REMARK                         _______ _______ _______ _____ _____    ______ ____
ROOT
ATOM      1  N   UNL     1      32.576 -10.788 -22.546  0.00  0.00    -0.190 N 
ATOM      2  N   UNL     1      33.351  -9.949 -23.276  0.00  0.00    -0.162 NA
ATOM      3  N   UNL     1      31.714 -12.623 -21.712  0.00  0.00    -0.126 NA
ATOM      4  N   UNL     1      31.056 -11.546 -21.155  0.00  0.00    -0.127 NA
ATOM      5  C   UNL     1      32.620 -12.151 -22.540  0.00  0.00    +0.228 A 
ATOM      6  C   UNL     1      31.579 -10.449 -21.660  0.00  0.00    +0.187 A 
ATOM      7  C   UNL     1      33.085  -8.687 -23.088  0.00  0.00    +0.104 C 
ATOM      8  C   UNL     1      31.324  -9.078 -21.465  0.00  0.00    +0.042 C 
ATOM      9  C   UNL     1      32.041  -8.173 -22.143  0.00  0.00    +0.024 C 
ENDROOT
BRANCH   7  12
ATOM     10  N   UNL     1      34.495  -6.205 -25.333  0.00  0.00    -0.208 N 
ATOM     11  N   UNL     1      35.507  -6.202 -24.447  0.00  0.00    -0.176 NA
ATOM     12  C   UNL     1      33.864  -7.666 -23.837  0.00  0.00    +0.056 C 
ATOM     13  C   UNL     1      33.487  -7.066 -25.013  0.00  0.00    +0.087 C 
ATOM     14  C   UNL     1      35.115  -7.097 -23.536  0.00  0.00    +0.121 C 
ATOM     15  C   UNL     1      34.552  -5.344 -26.489  0.00  0.00    +0.140 C 
ENDBRANCH   7  12
BRANCH   5  18
ATOM     16  F   UNL     1      34.656 -12.154 -23.770  0.00  0.00    -0.191 F 
ATOM     17  F   UNL     1      33.011 -13.256 -24.610  0.00  0.00    -0.191 F 
ATOM     18  C   UNL     1      33.598 -12.959 -23.393  0.00  0.00    +0.335 C 
BRANCH  18  20
ATOM     19  N   UNL     1      35.366 -17.608 -20.695  0.00  0.00    -0.244 NA
ATOM     20  C   UNL     1      34.064 -14.189 -22.691  0.00  0.00    +0.045 C 
ATOM     21  C   UNL     1      34.331 -15.348 -23.413  0.00  0.00    +0.003 C 
ATOM     22  C   UNL     1      34.771 -16.510 -22.756  0.00  0.00    +0.018 C 
ATOM     23  C   UNL     1      34.234 -14.185 -21.312  0.00  0.00    +0.003 C 
ATOM     24  C   UNL     1      34.946 -16.513 -21.356  0.00  0.00    +0.081 C 
ATOM     25  C   UNL     1      34.671 -15.340 -20.659  0.00  0.00    +0.019 C 
ATOM     26  C   UNL     1      35.048 -17.691 -23.458  0.00  0.00    +0.003 C 
ATOM     27  C   UNL     1      35.481 -18.820 -22.779  0.00  0.00    +0.021 C 
ATOM     28  C   UNL     1      35.623 -18.728 -21.410  0.00  0.00    +0.099 C 
ENDBRANCH  18  20
ENDBRANCH   5  18
TORSDOF 3
ENDMDL
MODEL 6
REMARK VINA RESULT:     -10.9      6.303     12.255
REMARK  Name = 46911863
REMARK  3 active torsions:
REMARK  status: ('A' for Active; 'I' for Inactive)
REMARK    1  A    between atoms: C_5  and  C_18
REMARK    2  A    between atoms: C_7  and  C_12
REMARK    3  A    between atoms: C_18  and  C_20
REMARK                            x       y       z     vdW  Elec       q    Type
REMARK                         _______ _______ _______ _____ _____    ______ ____
ROOT
ATOM      1  N   UNL     1      32.466 -11.722 -22.306  0.00  0.00    -0.190 N 
ATOM      2  N   UNL     1      32.717 -10.656 -23.105  0.00  0.00    -0.162 NA
ATOM      3  N   UNL     1      32.414 -13.773 -21.535  0.00  0.00    -0.126 NA
ATOM      4  N   UNL     1      31.742 -12.961 -20.645  0.00  0.00    -0.127 NA
ATOM      5  C   UNL     1      32.841 -13.016 -22.521  0.00  0.00    +0.228 A 
ATOM      6  C   UNL     1      31.777 -11.732 -21.115  0.00  0.00    +0.187 A 
ATOM      7  C   UNL     1      32.230  -9.534 -22.655  0.00  0.00    +0.104 C 
ATOM      8  C   UNL     1      31.276 -10.503 -20.645  0.00  0.00    +0.042 C 
ATOM      9  C   UNL     1      31.477  -9.393 -21.367  0.00  0.00    +0.024 C 
ENDROOT
BRANCH   7  12
ATOM     10  N   UNL     1      33.345  -6.547 -24.393  0.00  0.00    -0.208 N 
ATOM     11  N   UNL     1      32.058  -6.474 -24.775  0.00  0.00    -0.176 NA
ATOM     12  C   UNL     1      32.435  -8.291 -23.445  0.00  0.00    +0.056 C 
ATOM     13  C   UNL     1      33.623  -7.617 -23.595  0.00  0.00    +0.087 C 
ATOM     14  C   UNL     1      31.507  -7.542 -24.192  0.00  0.00    +0.121 C 
ATOM     15  C   UNL     1      34.282  -5.542 -24.835  0.00  0.00    +0.140 C 
ENDBRANCH   7  12
BRANCH   5  18
ATOM     16  F   UNL     1      34.772 -12.682 -23.869  0.00  0.00    -0.191 F 
ATOM     17  F   UNL     1      32.938 -13.138 -24.894  0.00  0.00    -0.191 F 
ATOM     18  C   UNL     1      33.638 -13.463 -23.746  0.00  0.00    +0.335 C 
BRANCH  18  20
ATOM     19  N   UNL     1      34.884 -18.980 -23.588  0.00  0.00    -0.244 NA
ATOM     20  C   UNL     1      33.970 -14.915 -23.695  0.00  0.00    +0.045 C 
ATOM     21  C   UNL     1      34.590 -15.452 -22.571  0.00  0.00    +0.003 C 
ATOM     22  C   UNL     1      34.905 -16.821 -22.519  0.00  0.00    +0.018 C 
ATOM     23  C   UNL     1      33.663 -15.740 -24.770  0.00  0.00    +0.003 C 
ATOM     24  C   UNL     1      34.595 -17.665 -23.605  0.00  0.00    +0.081 C 
ATOM     25  C   UNL     1      33.976 -17.101 -24.717  0.00  0.00    +0.019 C 
ATOM     26  C   UNL     1      35.529 -17.388 -21.399  0.00  0.00    +0.003 C 
ATOM     27  C   UNL     1      35.826 -18.743 -21.378  0.00  0.00    +0.021 C 
ATOM     28  C   UNL     1      35.485 -19.489 -22.488  0.00  0.00    +0.099 C 
ENDBRANCH  18  20
ENDBRANCH   5  18
TORSDOF 3
ENDMDL
MODEL 7
REMARK VINA RESULT:     -10.8      8.042     13.612
REMARK  Name = 46911863
REMARK  3 active torsions:
REMARK  status: ('A' for Active; 'I' for Inactive)
REMARK    1  A    between atoms: C_5  and  C_18
REMARK    2  A    between atoms: C_7  and  C_12
REMARK    3  A    between atoms: C_18  and  C_20
REMARK                            x       y       z     vdW  Elec       q    Type
REMARK                         _______ _______ _______ _____ _____    ______ ____
ROOT
ATOM      1  N   UNL     1      32.065  -9.077 -20.771  0.00  0.00    -0.190 N 
ATOM      2  N   UNL     1      32.404  -8.768 -22.047  0.00  0.00    -0.162 NA
ATOM      3  N   UNL     1      31.244 -10.142 -19.040  0.00  0.00    -0.126 NA
ATOM      4  N   UNL     1      31.820  -8.971 -18.592  0.00  0.00    -0.127 NA
ATOM      5  C   UNL     1      31.400 -10.189 -20.344  0.00  0.00    +0.228 A 
ATOM      6  C   UNL     1      32.310  -8.338 -19.637  0.00  0.00    +0.187 A 
ATOM      7  C   UNL     1      33.030  -7.631 -22.165  0.00  0.00    +0.104 C 
ATOM      8  C   UNL     1      33.003  -7.122 -19.793  0.00  0.00    +0.042 C 
ATOM      9  C   UNL     1      33.381  -6.733 -21.017  0.00  0.00    +0.024 C 
ENDROOT
BRANCH   7  12
ATOM     10  N   UNL     1      34.563  -6.260 -25.158  0.00  0.00    -0.208 N 
ATOM     11  N   UNL     1      33.506  -6.821 -25.771  0.00  0.00    -0.176 NA
ATOM     12  C   UNL     1      33.452  -7.178 -23.517  0.00  0.00    +0.056 C 
ATOM     13  C   UNL     1      34.577  -6.444 -23.807  0.00  0.00    +0.087 C 
ATOM     14  C   UNL     1      32.831  -7.380 -24.763  0.00  0.00    +0.121 C 
ATOM     15  C   UNL     1      35.546  -5.545 -25.935  0.00  0.00    +0.140 C 
ENDBRANCH   7  12
BRANCH   5  18
ATOM     16  F   UNL     1      30.689 -10.760 -22.541  0.00  0.00    -0.191 F 
ATOM     17  F   UNL     1      29.667 -11.717 -20.909  0.00  0.00    -0.191 F 
ATOM     18  C   UNL     1      30.928 -11.294 -21.289  0.00  0.00    +0.335 C 
BRANCH  18  20
ATOM     19  N   UNL     1      34.598 -15.598 -21.470  0.00  0.00    -0.244 NA
ATOM     20  C   UNL     1      31.895 -12.428 -21.347  0.00  0.00    +0.045 C 
ATOM     21  C   UNL     1      32.354 -12.893 -22.575  0.00  0.00    +0.003 C 
ATOM     22  C   UNL     1      33.267 -13.961 -22.634  0.00  0.00    +0.018 C 
ATOM     23  C   UNL     1      32.342 -13.026 -20.175  0.00  0.00    +0.003 C 
ATOM     24  C   UNL     1      33.725 -14.572 -21.449  0.00  0.00    +0.081 C 
ATOM     25  C   UNL     1      33.248 -14.087 -20.235  0.00  0.00    +0.019 C 
ATOM     26  C   UNL     1      33.746 -14.449 -23.858  0.00  0.00    +0.003 C 
ATOM     27  C   UNL     1      34.646 -15.505 -23.882  0.00  0.00    +0.021 C 
ATOM     28  C   UNL     1      35.037 -16.039 -22.671  0.00  0.00    +0.099 C 
ENDBRANCH  18  20
ENDBRANCH   5  18
TORSDOF 3
ENDMDL
MODEL 8
REMARK VINA RESULT:     -10.5      7.475     12.668
REMARK  Name = 46911863
REMARK  3 active torsions:
REMARK  status: ('A' for Active; 'I' for Inactive)
REMARK    1  A    between atoms: C_5  and  C_18
REMARK    2  A    between atoms: C_7  and  C_12
REMARK    3  A    between atoms: C_18  and  C_20
REMARK                            x       y       z     vdW  Elec       q    Type
REMARK                         _______ _______ _______ _____ _____    ______ ____
ROOT
ATOM      1  N   UNL     1      32.340 -10.814 -21.327  0.00  0.00    -0.190 N 
ATOM      2  N   UNL     1      32.494  -9.575 -21.858  0.00  0.00    -0.162 NA
ATOM      3  N   UNL     1      32.371 -12.993 -21.095  0.00  0.00    -0.126 NA
ATOM      4  N   UNL     1      31.832 -12.446 -19.949  0.00  0.00    -0.127 NA
ATOM      5  C   UNL     1      32.670 -12.003 -21.907  0.00  0.00    +0.228 A 
ATOM      6  C   UNL     1      31.818 -11.138 -20.096  0.00  0.00    +0.187 A 
ATOM      7  C   UNL     1      32.083  -8.614 -21.080  0.00  0.00    +0.104 C 
ATOM      8  C   UNL     1      31.397 -10.077 -19.270  0.00  0.00    +0.042 C 
ATOM      9  C   UNL     1      31.511  -8.818 -19.710  0.00  0.00    +0.024 C 
ENDROOT
BRANCH   7  12
ATOM     10  N   UNL     1      31.845  -5.073 -21.848  0.00  0.00    -0.208 N 
ATOM     11  N   UNL     1      32.901  -5.330 -22.640  0.00  0.00    -0.176 NA
ATOM     12  C   UNL     1      32.193  -7.208 -21.553  0.00  0.00    +0.056 C 
ATOM     13  C   UNL     1      31.383  -6.165 -21.175  0.00  0.00    +0.087 C 
ATOM     14  C   UNL     1      33.108  -6.636 -22.456  0.00  0.00    +0.121 C 
ATOM     15  C   UNL     1      31.313  -3.733 -21.775  0.00  0.00    +0.140 C 
ENDBRANCH   7  12
BRANCH   5  18
ATOM     16  F   UNL     1      34.429 -11.329 -23.359  0.00  0.00    -0.191 F 
ATOM     17  F   UNL     1      32.466 -11.489 -24.220  0.00  0.00    -0.191 F 
ATOM     18  C   UNL     1      33.290 -12.110 -23.300  0.00  0.00    +0.335 C 
BRANCH  18  20
ATOM     19  N   UNL     1      34.336 -17.474 -24.768  0.00  0.00    -0.244 NA
ATOM     20  C   UNL     1      33.570 -13.525 -23.678  0.00  0.00    +0.045 C 
ATOM     21  C   UNL     1      34.213 -14.374 -22.782  0.00  0.00    +0.003 C 
ATOM     22  C   UNL     1      34.478 -15.709 -23.133  0.00  0.00    +0.018 C 
ATOM     23  C   UNL     1      33.192 -14.003 -24.926  0.00  0.00    +0.003 C 
ATOM     24  C   UNL     1      34.097 -16.201 -24.399  0.00  0.00    +0.081 C 
ATOM     25  C   UNL     1      33.457 -15.329 -25.275  0.00  0.00    +0.019 C 
ATOM     26  C   UNL     1      35.122 -16.586 -22.251  0.00  0.00    +0.003 C 
ATOM     27  C   UNL     1      35.370 -17.898 -22.628  0.00  0.00    +0.021 C 
ATOM     28  C   UNL     1      34.960 -18.289 -23.887  0.00  0.00    +0.099 C 
ENDBRANCH  18  20
ENDBRANCH   5  18
TORSDOF 3
ENDMDL
MODEL 9
REMARK VINA RESULT:     -10.5      2.659      4.277
REMARK  Name = 46911863
REMARK  3 active torsions:
REMARK  status: ('A' for Active; 'I' for Inactive)
REMARK    1  A    between atoms: C_5  and  C_18
REMARK    2  A    between atoms: C_7  and  C_12
REMARK    3  A    between atoms: C_18  and  C_20
REMARK                            x       y       z     vdW  Elec       q    Type
REMARK                         _______ _______ _______ _____ _____    ______ ____
ROOT
ATOM      1  N   UNL     1      35.081 -23.064 -16.290  0.00  0.00    -0.190 N 
ATOM      2  N   UNL     1      33.830 -23.502 -16.006  0.00  0.00    -0.162 NA
ATOM      3  N   UNL     1      36.796 -22.239 -17.377  0.00  0.00    -0.126 NA
ATOM      4  N   UNL     1      37.208 -22.553 -16.098  0.00  0.00    -0.127 NA
ATOM      5  C   UNL     1      35.523 -22.549 -17.473  0.00  0.00    +0.228 A 
ATOM      6  C   UNL     1      36.173 -23.048 -15.452  0.00  0.00    +0.187 A 
ATOM      7  C   UNL     1      33.692 -23.953 -14.791  0.00  0.00    +0.104 C 
ATOM      8  C   UNL     1      35.991 -23.526 -14.140  0.00  0.00    +0.042 C 
ATOM      9  C   UNL     1      34.787 -23.979 -13.767  0.00  0.00    +0.024 C 
ENDROOT
BRANCH   7  12
ATOM     10  N   UNL     1      30.249 -25.003 -14.313  0.00  0.00    -0.208 N 
ATOM     11  N   UNL     1      30.704 -25.424 -13.119  0.00  0.00    -0.176 NA
ATOM     12  C   UNL     1      32.366 -24.467 -14.359  0.00  0.00    +0.056 C 
ATOM     13  C   UNL     1      31.205 -24.423 -15.093  0.00  0.00    +0.087 C 
ATOM     14  C   UNL     1      31.997 -25.093 -13.154  0.00  0.00    +0.121 C 
ATOM     15  C   UNL     1      28.860 -25.190 -14.657  0.00  0.00    +0.140 C 
ENDBRANCH   7  12
BRANCH   5  18
ATOM     16  F   UNL     1      33.323 -22.161 -18.291  0.00  0.00    -0.191 F 
ATOM     17  F   UNL     1      34.519 -23.594 -19.359  0.00  0.00    -0.191 F 
ATOM     18  C   UNL     1      34.625 -22.384 -18.699  0.00  0.00    +0.335 C 
BRANCH  18  20
ATOM     19  N   UNL     1      36.507 -18.282 -22.113  0.00  0.00    -0.244 NA
ATOM     20  C   UNL     1      35.112 -21.304 -19.604  0.00  0.00    +0.045 C 
ATOM     21  C   UNL     1      34.306 -20.844 -20.642  0.00  0.00    +0.003 C 
ATOM     22  C   UNL     1      34.761 -19.825 -21.497  0.00  0.00    +0.018 C 
ATOM     23  C   UNL     1      36.373 -20.751 -19.417  0.00  0.00    +0.003 C 
ATOM     24  C   UNL     1      36.040 -19.259 -21.312  0.00  0.00    +0.081 C 
ATOM     25  C   UNL     1      36.824 -19.739 -20.267  0.00  0.00    +0.019 C 
ATOM     26  C   UNL     1      33.971 -19.342 -22.548  0.00  0.00    +0.003 C 
ATOM     27  C   UNL     1      34.449 -18.335 -23.375  0.00  0.00    +0.021 C 
ATOM     28  C   UNL     1      35.712 -17.843 -23.117  0.00  0.00    +0.099 C 
ENDBRANCH  18  20
ENDBRANCH   5  18
TORSDOF 3
ENDMDL
