MODEL 1
REMARK VINA RESULT:     -12.7      0.000      0.000
REMARK  Name = 24864821
REMARK  5 active torsions:
REMARK  status: ('A' for Active; 'I' for Inactive)
REMARK    1  A    between atoms: C_5  and  C_16
REMARK    2  A    between atoms: C_7  and  C_10
REMARK    3  A    between atoms: C_16  and  O_17
REMARK    4  A    between atoms: O_17  and  C_20
REMARK    5  A    between atoms: C_25  and  O_28
REMARK                            x       y       z     vdW  Elec       q    Type
REMARK                         _______ _______ _______ _____ _____    ______ ____
ROOT
ATOM      1  N   UNL     1      36.176 -23.312 -15.332  0.00  0.00    -0.191 N 
ATOM      2  N   UNL     1      34.852 -23.058 -15.478  0.00  0.00    -0.163 NA
ATOM      3  N   UNL     1      38.352 -23.185 -15.559  0.00  0.00    -0.128 NA
ATOM      4  N   UNL     1      38.071 -24.193 -14.659  0.00  0.00    -0.127 NA
ATOM      5  C   UNL     1      37.209 -22.670 -15.951  0.00  0.00    +0.208 A 
ATOM      6  C   UNL     1      36.764 -24.261 -14.529  0.00  0.00    +0.186 A 
ATOM      7  C   UNL     1      34.086 -23.824 -14.753  0.00  0.00    +0.101 C 
ATOM      8  C   UNL     1      35.910 -25.086 -13.770  0.00  0.00    +0.042 C 
ATOM      9  C   UNL     1      34.585 -24.909 -13.849  0.00  0.00    +0.024 C 
ENDROOT
BRANCH   7  10
ATOM     10  C   UNL     1      32.613 -23.640 -14.823  0.00  0.00    +0.019 C 
ATOM     11  C   UNL     1      31.843 -23.727 -13.663  0.00  0.00    +0.002 C 
ATOM     12  C   UNL     1      32.000 -23.380 -16.048  0.00  0.00    +0.002 C 
ATOM     13  C   UNL     1      30.461 -23.553 -13.729  0.00  0.00    +0.000 C 
ATOM     14  C   UNL     1      30.618 -23.206 -16.114  0.00  0.00    +0.000 C 
ATOM     15  C   UNL     1      29.847 -23.292 -14.955  0.00  0.00    +0.000 C 
ENDBRANCH   7  10
BRANCH   5  16
ATOM     16  C   UNL     1      37.010 -21.546 -16.925  0.00  0.00    +0.272 C 
BRANCH  16  17
ATOM     17  O   UNL     1      36.819 -22.091 -18.230  0.00  0.00    -0.467 OA
BRANCH  17  20
ATOM     18  N   UNL     1      33.394 -20.927 -20.256  0.00  0.00    -0.248 NA
ATOM     19  C   UNL     1      35.759 -20.673 -19.869  0.00  0.00    +0.030 C 
ATOM     20  C   UNL     1      35.706 -21.692 -18.908  0.00  0.00    +0.138 C 
ATOM     21  C   UNL     1      34.563 -20.317 -20.528  0.00  0.00    +0.066 C 
ATOM     22  C   UNL     1      36.962 -20.015 -20.179  0.00  0.00    +0.059 C 
ATOM     23  C   UNL     1      34.617 -19.305 -21.482  0.00  0.00    +0.109 C 
ATOM     24  C   UNL     1      34.502 -22.322 -18.626  0.00  0.00    +0.057 C 
ATOM     25  C   UNL     1      35.813 -18.651 -21.790  0.00  0.00    +0.118 C 
ATOM     26  C   UNL     1      36.987 -19.006 -21.137  0.00  0.00    +0.011 C 
ATOM     27  C   UNL     1      33.385 -21.905 -19.322  0.00  0.00    +0.102 C 
BRANCH  25  28
ATOM     28  O   UNL     1      35.826 -17.667 -22.730  0.00  0.00    -0.476 OA
ATOM     29  C   UNL     1      34.720 -17.613 -23.630  0.00  0.00    +0.252 C 
ENDBRANCH  25  28
ENDBRANCH  17  20
ENDBRANCH  16  17
ENDBRANCH   5  16
TORSDOF 5
ENDMDL
MODEL 2
REMARK VINA RESULT:     -11.9      4.664     10.326
REMARK  Name = 24864821
REMARK  5 active torsions:
REMARK  status: ('A' for Active; 'I' for Inactive)
REMARK    1  A    between atoms: C_5  and  C_16
REMARK    2  A    between atoms: C_7  and  C_10
REMARK    3  A    between atoms: C_16  and  O_17
REMARK    4  A    between atoms: O_17  and  C_20
REMARK    5  A    between atoms: C_25  and  O_28
REMARK                            x       y       z     vdW  Elec       q    Type
REMARK                         _______ _______ _______ _____ _____    ______ ____
ROOT
ATOM      1  N   UNL     1      33.946 -15.201 -23.512  0.00  0.00    -0.191 N 
ATOM      2  N   UNL     1      33.545 -14.395 -22.497  0.00  0.00    -0.163 NA
ATOM      3  N   UNL     1      34.817 -16.891 -24.601  0.00  0.00    -0.128 NA
ATOM      4  N   UNL     1      34.303 -16.003 -25.523  0.00  0.00    -0.127 NA
ATOM      5  C   UNL     1      34.595 -16.395 -23.404  0.00  0.00    +0.208 A 
ATOM      6  C   UNL     1      33.782 -14.993 -24.862  0.00  0.00    +0.186 A 
ATOM      7  C   UNL     1      32.935 -13.313 -22.894  0.00  0.00    +0.101 C 
ATOM      8  C   UNL     1      33.136 -13.807 -25.261  0.00  0.00    +0.042 C 
ATOM      9  C   UNL     1      32.703 -12.949 -24.328  0.00  0.00    +0.024 C 
ENDROOT
BRANCH   7  10
ATOM     10  C   UNL     1      32.443 -12.350 -21.874  0.00  0.00    +0.019 C 
ATOM     11  C   UNL     1      32.052 -11.067 -22.257  0.00  0.00    +0.002 C 
ATOM     12  C   UNL     1      32.370 -12.730 -20.534  0.00  0.00    +0.002 C 
ATOM     13  C   UNL     1      31.589 -10.165 -21.300  0.00  0.00    +0.000 C 
ATOM     14  C   UNL     1      31.907 -11.828 -19.577  0.00  0.00    +0.000 C 
ATOM     15  C   UNL     1      31.516 -10.544 -19.959  0.00  0.00    +0.000 C 
ENDBRANCH   7  10
BRANCH   5  16
ATOM     16  C   UNL     1      34.975 -17.007 -22.087  0.00  0.00    +0.272 C 
BRANCH  16  17
ATOM     17  O   UNL     1      34.672 -18.401 -22.118  0.00  0.00    -0.467 OA
BRANCH  17  20
ATOM     18  N   UNL     1      36.781 -20.792 -19.468  0.00  0.00    -0.248 NA
ATOM     19  C   UNL     1      34.685 -20.176 -20.484  0.00  0.00    +0.030 C 
ATOM     20  C   UNL     1      35.345 -19.198 -21.240  0.00  0.00    +0.138 C 
ATOM     21  C   UNL     1      35.452 -20.961 -19.598  0.00  0.00    +0.066 C 
ATOM     22  C   UNL     1      33.298 -20.381 -20.594  0.00  0.00    +0.059 C 
ATOM     23  C   UNL     1      34.795 -21.932 -18.846  0.00  0.00    +0.109 C 
ATOM     24  C   UNL     1      36.714 -19.021 -21.108  0.00  0.00    +0.057 C 
ATOM     25  C   UNL     1      33.417 -22.135 -18.956  0.00  0.00    +0.118 C 
ATOM     26  C   UNL     1      32.668 -21.358 -19.830  0.00  0.00    +0.011 C 
ATOM     27  C   UNL     1      37.380 -19.838 -20.216  0.00  0.00    +0.102 C 
BRANCH  25  28
ATOM     28  O   UNL     1      32.811 -23.096 -18.206  0.00  0.00    -0.476 OA
ATOM     29  C   UNL     1      33.428 -23.438 -16.965  0.00  0.00    +0.252 C 
ENDBRANCH  25  28
ENDBRANCH  17  20
ENDBRANCH  16  17
ENDBRANCH   5  16
TORSDOF 5
ENDMDL
MODEL 3
REMARK VINA RESULT:     -11.8      8.159     13.737
REMARK  Name = 24864821
REMARK  5 active torsions:
REMARK  status: ('A' for Active; 'I' for Inactive)
REMARK    1  A    between atoms: C_5  and  C_16
REMARK    2  A    between atoms: C_7  and  C_10
REMARK    3  A    between atoms: C_16  and  O_17
REMARK    4  A    between atoms: O_17  and  C_20
REMARK    5  A    between atoms: C_25  and  O_28
REMARK                            x       y       z     vdW  Elec       q    Type
REMARK                         _______ _______ _______ _____ _____    ______ ____
ROOT
ATOM      1  N   UNL     1      32.283  -9.955 -21.265  0.00  0.00    -0.191 N 
ATOM      2  N   UNL     1      32.766  -9.205 -22.288  0.00  0.00    -0.163 NA
ATOM      3  N   UNL     1      31.544 -11.667 -20.115  0.00  0.00    -0.128 NA
ATOM      4  N   UNL     1      31.552 -10.563 -19.287  0.00  0.00    -0.127 NA
ATOM      5  C   UNL     1      31.983 -11.285 -21.293  0.00  0.00    +0.208 A 
ATOM      6  C   UNL     1      31.998  -9.541 -19.985  0.00  0.00    +0.186 A 
ATOM      7  C   UNL     1      32.971  -7.957 -21.973  0.00  0.00    +0.101 C 
ATOM      8  C   UNL     1      32.212  -8.183 -19.680  0.00  0.00    +0.042 C 
ATOM      9  C   UNL     1      32.689  -7.364 -20.627  0.00  0.00    +0.024 C 
ENDROOT
BRANCH   7  10
ATOM     10  C   UNL     1      33.504  -7.033 -23.009  0.00  0.00    +0.019 C 
ATOM     11  C   UNL     1      34.814  -7.177 -23.465  0.00  0.00    +0.002 C 
ATOM     12  C   UNL     1      32.692  -6.023 -23.525  0.00  0.00    +0.002 C 
ATOM     13  C   UNL     1      35.312  -6.311 -24.438  0.00  0.00    +0.000 C 
ATOM     14  C   UNL     1      33.191  -5.157 -24.498  0.00  0.00    +0.000 C 
ATOM     15  C   UNL     1      34.501  -5.300 -24.955  0.00  0.00    +0.000 C 
ENDBRANCH   7  10
BRANCH   5  16
ATOM     16  C   UNL     1      32.151 -12.139 -22.515  0.00  0.00    +0.272 C 
BRANCH  16  17
ATOM     17  O   UNL     1      33.373 -12.866 -22.410  0.00  0.00    -0.467 OA
BRANCH  17  20
ATOM     18  N   UNL     1      34.010 -15.794 -25.276  0.00  0.00    -0.248 NA
ATOM     19  C   UNL     1      34.159 -15.076 -22.981  0.00  0.00    +0.030 C 
ATOM     20  C   UNL     1      33.592 -13.844 -23.335  0.00  0.00    +0.138 C 
ATOM     21  C   UNL     1      34.353 -16.035 -23.997  0.00  0.00    +0.066 C 
ATOM     22  C   UNL     1      34.529 -15.361 -21.656  0.00  0.00    +0.059 C 
ATOM     23  C   UNL     1      34.916 -17.258 -23.644  0.00  0.00    +0.109 C 
ATOM     24  C   UNL     1      33.237 -13.592 -24.653  0.00  0.00    +0.057 C 
ATOM     25  C   UNL     1      35.283 -17.542 -22.326  0.00  0.00    +0.118 C 
ATOM     26  C   UNL     1      35.090 -16.592 -21.331  0.00  0.00    +0.011 C 
ATOM     27  C   UNL     1      33.465 -14.593 -25.577  0.00  0.00    +0.102 C 
BRANCH  25  28
ATOM     28  O   UNL     1      35.830 -18.750 -22.019  0.00  0.00    -0.476 OA
ATOM     29  C   UNL     1      34.933 -19.784 -21.612  0.00  0.00    +0.252 C 
ENDBRANCH  25  28
ENDBRANCH  17  20
ENDBRANCH  16  17
ENDBRANCH   5  16
TORSDOF 5
ENDMDL
MODEL 4
REMARK VINA RESULT:     -11.4      6.125     10.457
REMARK  Name = 24864821
REMARK  5 active torsions:
REMARK  status: ('A' for Active; 'I' for Inactive)
REMARK    1  A    between atoms: C_5  and  C_16
REMARK    2  A    between atoms: C_7  and  C_10
REMARK    3  A    between atoms: C_16  and  O_17
REMARK    4  A    between atoms: O_17  and  C_20
REMARK    5  A    between atoms: C_25  and  O_28
REMARK                            x       y       z     vdW  Elec       q    Type
REMARK                         _______ _______ _______ _____ _____    ______ ____
ROOT
ATOM      1  N   UNL     1      34.329 -16.679 -23.519  0.00  0.00    -0.191 N 
ATOM      2  N   UNL     1      34.854 -17.300 -22.433  0.00  0.00    -0.163 NA
ATOM      3  N   UNL     1      33.637 -15.104 -24.877  0.00  0.00    -0.128 NA
ATOM      4  N   UNL     1      33.425 -16.324 -25.487  0.00  0.00    -0.127 NA
ATOM      5  C   UNL     1      34.177 -15.335 -23.702  0.00  0.00    +0.208 A 
ATOM      6  C   UNL     1      33.843 -17.262 -24.666  0.00  0.00    +0.186 A 
ATOM      7  C   UNL     1      34.884 -18.600 -22.535  0.00  0.00    +0.101 C 
ATOM      8  C   UNL     1      33.872 -18.668 -24.739  0.00  0.00    +0.042 C 
ATOM      9  C   UNL     1      34.374 -19.370 -23.715  0.00  0.00    +0.024 C 
ENDROOT
BRANCH   7  10
ATOM     10  C   UNL     1      35.441 -19.396 -21.410  0.00  0.00    +0.019 C 
ATOM     11  C   UNL     1      34.667 -20.385 -20.805  0.00  0.00    +0.002 C 
ATOM     12  C   UNL     1      36.740 -19.155 -20.962  0.00  0.00    +0.002 C 
ATOM     13  C   UNL     1      35.191 -21.133 -19.752  0.00  0.00    +0.000 C 
ATOM     14  C   UNL     1      37.264 -19.903 -19.908  0.00  0.00    +0.000 C 
ATOM     15  C   UNL     1      36.489 -20.893 -19.302  0.00  0.00    +0.000 C 
ENDBRANCH   7  10
BRANCH   5  16
ATOM     16  C   UNL     1      34.587 -14.316 -22.679  0.00  0.00    +0.272 C 
BRANCH  16  17
ATOM     17  O   UNL     1      34.066 -13.043 -23.057  0.00  0.00    -0.467 OA
BRANCH  17  20
ATOM     18  N   UNL     1      31.144 -11.471 -20.571  0.00  0.00    -0.248 NA
ATOM     19  C   UNL     1      32.643 -11.195 -22.436  0.00  0.00    +0.030 C 
ATOM     20  C   UNL     1      33.106 -12.506 -22.252  0.00  0.00    +0.138 C 
ATOM     21  C   UNL     1      31.648 -10.712 -21.561  0.00  0.00    +0.066 C 
ATOM     22  C   UNL     1      33.147 -10.374 -23.460  0.00  0.00    +0.059 C 
ATOM     23  C   UNL     1      31.189  -9.411 -21.745  0.00  0.00    +0.109 C 
ATOM     24  C   UNL     1      32.588 -13.291 -21.231  0.00  0.00    +0.057 C 
ATOM     25  C   UNL     1      31.690  -8.595 -22.763  0.00  0.00    +0.118 C 
ATOM     26  C   UNL     1      32.670  -9.077 -23.621  0.00  0.00    +0.011 C 
ATOM     27  C   UNL     1      31.616 -12.730 -20.425  0.00  0.00    +0.102 C 
BRANCH  25  28
ATOM     28  O   UNL     1      31.215  -7.328 -22.913  0.00  0.00    -0.476 OA
ATOM     29  C   UNL     1      31.179  -6.506 -21.747  0.00  0.00    +0.252 C 
ENDBRANCH  25  28
ENDBRANCH  17  20
ENDBRANCH  16  17
ENDBRANCH   5  16
TORSDOF 5
ENDMDL
MODEL 5
REMARK VINA RESULT:     -11.3      1.826      4.301
REMARK  Name = 24864821
REMARK  5 active torsions:
REMARK  status: ('A' for Active; 'I' for Inactive)
REMARK    1  A    between atoms: C_5  and  C_16
REMARK    2  A    between atoms: C_7  and  C_10
REMARK    3  A    between atoms: C_16  and  O_17
REMARK    4  A    between atoms: O_17  and  C_20
REMARK    5  A    between atoms: C_25  and  O_28
REMARK                            x       y       z     vdW  Elec       q    Type
REMARK                         _______ _______ _______ _____ _____    ______ ____
ROOT
ATOM      1  N   UNL     1      33.660 -23.592 -16.460  0.00  0.00    -0.191 N 
ATOM      2  N   UNL     1      34.848 -24.075 -16.020  0.00  0.00    -0.163 NA
ATOM      3  N   UNL     1      32.122 -22.738 -17.767  0.00  0.00    -0.128 NA
ATOM      4  N   UNL     1      31.556 -22.971 -16.530  0.00  0.00    -0.127 NA
ATOM      5  C   UNL     1      33.379 -23.114 -17.707  0.00  0.00    +0.208 A 
ATOM      6  C   UNL     1      32.485 -23.484 -15.754  0.00  0.00    +0.186 A 
ATOM      7  C   UNL     1      34.826 -24.475 -14.779  0.00  0.00    +0.101 C 
ATOM      8  C   UNL     1      32.496 -23.907 -14.410  0.00  0.00    +0.042 C 
ATOM      9  C   UNL     1      33.626 -24.400 -13.886  0.00  0.00    +0.024 C 
ENDROOT
BRANCH   7  10
ATOM     10  C   UNL     1      36.069 -25.029 -14.180  0.00  0.00    +0.019 C 
ATOM     11  C   UNL     1      36.677 -24.378 -13.108  0.00  0.00    +0.002 C 
ATOM     12  C   UNL     1      36.624 -26.202 -14.689  0.00  0.00    +0.002 C 
ATOM     13  C   UNL     1      37.841 -24.899 -12.545  0.00  0.00    +0.000 C 
ATOM     14  C   UNL     1      37.789 -26.724 -14.127  0.00  0.00    +0.000 C 
ATOM     15  C   UNL     1      38.398 -26.073 -13.054  0.00  0.00    +0.000 C 
ENDBRANCH   7  10
BRANCH   5  16
ATOM     16  C   UNL     1      34.395 -23.052 -18.810  0.00  0.00    +0.272 C 
BRANCH  16  17
ATOM     17  O   UNL     1      34.138 -21.902 -19.613  0.00  0.00    -0.467 OA
BRANCH  17  20
ATOM     18  N   UNL     1      37.348 -19.341 -20.194  0.00  0.00    -0.248 NA
ATOM     19  C   UNL     1      35.163 -20.107 -20.860  0.00  0.00    +0.030 C 
ATOM     20  C   UNL     1      35.183 -21.050 -19.823  0.00  0.00    +0.138 C 
ATOM     21  C   UNL     1      36.282 -19.262 -21.012  0.00  0.00    +0.066 C 
ATOM     22  C   UNL     1      34.067 -19.996 -21.734  0.00  0.00    +0.059 C 
ATOM     23  C   UNL     1      36.262 -18.326 -22.043  0.00  0.00    +0.109 C 
ATOM     24  C   UNL     1      36.280 -21.134 -18.978  0.00  0.00    +0.057 C 
ATOM     25  C   UNL     1      35.173 -18.216 -22.910  0.00  0.00    +0.118 C 
ATOM     26  C   UNL     1      34.074 -19.052 -22.755  0.00  0.00    +0.011 C 
ATOM     27  C   UNL     1      37.328 -20.264 -19.204  0.00  0.00    +0.102 C 
BRANCH  25  28
ATOM     28  O   UNL     1      35.188 -17.288 -23.906  0.00  0.00    -0.476 OA
ATOM     29  C   UNL     1      34.777 -15.964 -23.565  0.00  0.00    +0.252 C 
ENDBRANCH  25  28
ENDBRANCH  17  20
ENDBRANCH  16  17
ENDBRANCH   5  16
TORSDOF 5
ENDMDL
MODEL 6
REMARK VINA RESULT:     -11.1      2.374      8.199
REMARK  Name = 24864821
REMARK  5 active torsions:
REMARK  status: ('A' for Active; 'I' for Inactive)
REMARK    1  A    between atoms: C_5  and  C_16
REMARK    2  A    between atoms: C_7  and  C_10
REMARK    3  A    between atoms: C_16  and  O_17
REMARK    4  A    between atoms: O_17  and  C_20
REMARK    5  A    between atoms: C_25  and  O_28
REMARK                            x       y       z     vdW  Elec       q    Type
REMARK                         _______ _______ _______ _____ _____    ______ ____
ROOT
ATOM      1  N   UNL     1      35.346 -21.125 -19.440  0.00  0.00    -0.191 N 
ATOM      2  N   UNL     1      34.764 -20.478 -20.480  0.00  0.00    -0.163 NA
ATOM      3  N   UNL     1      35.637 -22.454 -17.722  0.00  0.00    -0.128 NA
ATOM      4  N   UNL     1      36.828 -21.801 -17.968  0.00  0.00    -0.127 NA
ATOM      5  C   UNL     1      34.763 -22.037 -18.610  0.00  0.00    +0.208 A 
ATOM      6  C   UNL     1      36.644 -21.007 -19.000  0.00  0.00    +0.186 A 
ATOM      7  C   UNL     1      35.565 -19.664 -21.109  0.00  0.00    +0.101 C 
ATOM      8  C   UNL     1      37.482 -20.107 -19.688  0.00  0.00    +0.042 C 
ATOM      9  C   UNL     1      36.995 -19.422 -20.731  0.00  0.00    +0.024 C 
ENDROOT
BRANCH   7  10
ATOM     10  C   UNL     1      35.045 -18.898 -22.272  0.00  0.00    +0.019 C 
ATOM     11  C   UNL     1      35.241 -17.519 -22.342  0.00  0.00    +0.002 C 
ATOM     12  C   UNL     1      34.363 -19.559 -23.293  0.00  0.00    +0.002 C 
ATOM     13  C   UNL     1      34.754 -16.802 -23.435  0.00  0.00    +0.000 C 
ATOM     14  C   UNL     1      33.877 -18.842 -24.385  0.00  0.00    +0.000 C 
ATOM     15  C   UNL     1      34.071 -17.462 -24.457  0.00  0.00    +0.000 C 
ENDBRANCH   7  10
BRANCH   5  16
ATOM     16  C   UNL     1      33.331 -22.467 -18.740  0.00  0.00    +0.272 C 
BRANCH  16  17
ATOM     17  O   UNL     1      33.121 -23.630 -17.941  0.00  0.00    -0.467 OA
BRANCH  17  20
ATOM     18  N   UNL     1      30.975 -23.093 -14.434  0.00  0.00    -0.248 NA
ATOM     19  C   UNL     1      32.995 -23.806 -15.537  0.00  0.00    +0.030 C 
ATOM     20  C   UNL     1      32.434 -23.462 -16.775  0.00  0.00    +0.138 C 
ATOM     21  C   UNL     1      32.219 -23.602 -14.377  0.00  0.00    +0.066 C 
ATOM     22  C   UNL     1      34.291 -24.339 -15.440  0.00  0.00    +0.059 C 
ATOM     23  C   UNL     1      32.777 -23.944 -13.148  0.00  0.00    +0.109 C 
ATOM     24  C   UNL     1      31.151 -22.938 -16.838  0.00  0.00    +0.057 C 
ATOM     25  C   UNL     1      34.066 -24.474 -13.051  0.00  0.00    +0.118 C 
ATOM     26  C   UNL     1      34.824 -24.672 -14.199  0.00  0.00    +0.011 C 
ATOM     27  C   UNL     1      30.469 -22.774 -15.648  0.00  0.00    +0.102 C 
BRANCH  25  28
ATOM     28  O   UNL     1      34.579 -24.794 -11.832  0.00  0.00    -0.476 OA
ATOM     29  C   UNL     1      35.967 -25.122 -11.777  0.00  0.00    +0.252 C 
ENDBRANCH  25  28
ENDBRANCH  17  20
ENDBRANCH  16  17
ENDBRANCH   5  16
TORSDOF 5
ENDMDL
MODEL 7
REMARK VINA RESULT:     -10.5      2.765      6.736
REMARK  Name = 24864821
REMARK  5 active torsions:
REMARK  status: ('A' for Active; 'I' for Inactive)
REMARK    1  A    between atoms: C_5  and  C_16
REMARK    2  A    between atoms: C_7  and  C_10
REMARK    3  A    between atoms: C_16  and  O_17
REMARK    4  A    between atoms: O_17  and  C_20
REMARK    5  A    between atoms: C_25  and  O_28
REMARK                            x       y       z     vdW  Elec       q    Type
REMARK                         _______ _______ _______ _____ _____    ______ ____
ROOT
ATOM      1  N   UNL     1      36.098 -23.532 -15.607  0.00  0.00    -0.191 N 
ATOM      2  N   UNL     1      35.283 -23.098 -16.600  0.00  0.00    -0.163 NA
ATOM      3  N   UNL     1      36.827 -24.602 -13.838  0.00  0.00    -0.128 NA
ATOM      4  N   UNL     1      37.855 -23.819 -14.323  0.00  0.00    -0.127 NA
ATOM      5  C   UNL     1      35.785 -24.418 -14.617  0.00  0.00    +0.208 A 
ATOM      6  C   UNL     1      37.409 -23.182 -15.384  0.00  0.00    +0.186 A 
ATOM      7  C   UNL     1      35.852 -22.255 -17.416  0.00  0.00    +0.101 C 
ATOM      8  C   UNL     1      37.991 -22.256 -16.271  0.00  0.00    +0.042 C 
ATOM      9  C   UNL     1      37.264 -21.771 -17.286  0.00  0.00    +0.024 C 
ENDROOT
BRANCH   7  10
ATOM     10  C   UNL     1      35.063 -21.709 -18.551  0.00  0.00    +0.019 C 
ATOM     11  C   UNL     1      33.687 -21.926 -18.613  0.00  0.00    +0.002 C 
ATOM     12  C   UNL     1      35.700 -20.976 -19.553  0.00  0.00    +0.002 C 
ATOM     13  C   UNL     1      32.948 -21.411 -19.677  0.00  0.00    +0.000 C 
ATOM     14  C   UNL     1      34.960 -20.462 -20.617  0.00  0.00    +0.000 C 
ATOM     15  C   UNL     1      33.583 -20.679 -20.681  0.00  0.00    +0.000 C 
ENDBRANCH   7  10
BRANCH   5  16
ATOM     16  C   UNL     1      34.434 -25.058 -14.486  0.00  0.00    +0.272 C 
BRANCH  16  17
ATOM     17  O   UNL     1      33.452 -24.039 -14.309  0.00  0.00    -0.467 OA
BRANCH  17  20
ATOM     18  N   UNL     1      29.581 -25.326 -13.568  0.00  0.00    -0.248 NA
ATOM     19  C   UNL     1      31.108 -24.004 -14.881  0.00  0.00    +0.030 C 
ATOM     20  C   UNL     1      32.171 -24.449 -14.084  0.00  0.00    +0.138 C 
ATOM     21  C   UNL     1      29.812 -24.474 -14.584  0.00  0.00    +0.066 C 
ATOM     22  C   UNL     1      31.312 -23.115 -15.951  0.00  0.00    +0.059 C 
ATOM     23  C   UNL     1      28.756 -24.031 -15.377  0.00  0.00    +0.109 C 
ATOM     24  C   UNL     1      31.936 -25.327 -13.035  0.00  0.00    +0.057 C 
ATOM     25  C   UNL     1      28.959 -23.148 -16.440  0.00  0.00    +0.118 C 
ATOM     26  C   UNL     1      30.239 -22.689 -16.727  0.00  0.00    +0.011 C 
ATOM     27  C   UNL     1      30.633 -25.732 -12.822  0.00  0.00    +0.102 C 
BRANCH  25  28
ATOM     28  O   UNL     1      27.902 -22.739 -17.194  0.00  0.00    -0.476 OA
ATOM     29  C   UNL     1      26.756 -22.252 -16.496  0.00  0.00    +0.252 C 
ENDBRANCH  25  28
ENDBRANCH  17  20
ENDBRANCH  16  17
ENDBRANCH   5  16
TORSDOF 5
ENDMDL
MODEL 8
REMARK VINA RESULT:     -10.5      5.679      9.592
REMARK  Name = 24864821
REMARK  5 active torsions:
REMARK  status: ('A' for Active; 'I' for Inactive)
REMARK    1  A    between atoms: C_5  and  C_16
REMARK    2  A    between atoms: C_7  and  C_10
REMARK    3  A    between atoms: C_16  and  O_17
REMARK    4  A    between atoms: O_17  and  C_20
REMARK    5  A    between atoms: C_25  and  O_28
REMARK                            x       y       z     vdW  Elec       q    Type
REMARK                         _______ _______ _______ _____ _____    ______ ____
ROOT
ATOM      1  N   UNL     1      34.625 -17.380 -22.908  0.00  0.00    -0.191 N 
ATOM      2  N   UNL     1      34.635 -18.114 -21.768  0.00  0.00    -0.163 NA
ATOM      3  N   UNL     1      34.598 -15.666 -24.274  0.00  0.00    -0.128 NA
ATOM      4  N   UNL     1      34.631 -16.820 -25.030  0.00  0.00    -0.127 NA
ATOM      5  C   UNL     1      34.594 -16.020 -23.009  0.00  0.00    +0.208 A 
ATOM      6  C   UNL     1      34.648 -17.842 -24.203  0.00  0.00    +0.186 A 
ATOM      7  C   UNL     1      34.676 -19.401 -21.972  0.00  0.00    +0.101 C 
ATOM      8  C   UNL     1      34.673 -19.238 -24.392  0.00  0.00    +0.042 C 
ATOM      9  C   UNL     1      34.686 -20.046 -23.324  0.00  0.00    +0.024 C 
ENDROOT
BRANCH   7  10
ATOM     10  C   UNL     1      34.695 -20.315 -20.799  0.00  0.00    +0.019 C 
ATOM     11  C   UNL     1      33.497 -20.778 -20.256  0.00  0.00    +0.002 C 
ATOM     12  C   UNL     1      35.912 -20.710 -20.244  0.00  0.00    +0.002 C 
ATOM     13  C   UNL     1      33.516 -21.636 -19.157  0.00  0.00    +0.000 C 
ATOM     14  C   UNL     1      35.931 -21.568 -19.145  0.00  0.00    +0.000 C 
ATOM     15  C   UNL     1      34.733 -22.032 -18.600  0.00  0.00    +0.000 C 
ENDBRANCH   7  10
BRANCH   5  16
ATOM     16  C   UNL     1      34.563 -15.109 -21.816  0.00  0.00    +0.272 C 
BRANCH  16  17
ATOM     17  O   UNL     1      33.249 -14.574 -21.674  0.00  0.00    -0.467 OA
BRANCH  17  20
ATOM     18  N   UNL     1      32.591 -10.837 -23.345  0.00  0.00    -0.248 NA
ATOM     19  C   UNL     1      32.580 -12.270 -21.409  0.00  0.00    +0.030 C 
ATOM     20  C   UNL     1      33.026 -13.337 -22.202  0.00  0.00    +0.138 C 
ATOM     21  C   UNL     1      32.373 -11.021 -22.030  0.00  0.00    +0.066 C 
ATOM     22  C   UNL     1      32.342 -12.426 -20.032  0.00  0.00    +0.059 C 
ATOM     23  C   UNL     1      31.929  -9.963 -21.242  0.00  0.00    +0.109 C 
ATOM     24  C   UNL     1      33.252 -13.150 -23.558  0.00  0.00    +0.057 C 
ATOM     25  C   UNL     1      31.693 -10.117 -19.874  0.00  0.00    +0.118 C 
ATOM     26  C   UNL     1      31.899 -11.351 -19.268  0.00  0.00    +0.011 C 
ATOM     27  C   UNL     1      33.021 -11.891 -24.076  0.00  0.00    +0.102 C 
BRANCH  25  28
ATOM     28  O   UNL     1      31.262  -9.059 -19.135  0.00  0.00    -0.476 OA
ATOM     29  C   UNL     1      31.866  -7.793 -19.400  0.00  0.00    +0.252 C 
ENDBRANCH  25  28
ENDBRANCH  17  20
ENDBRANCH  16  17
ENDBRANCH   5  16
TORSDOF 5
ENDMDL
MODEL 9
REMARK VINA RESULT:     -10.3      2.235      4.556
REMARK  Name = 24864821
REMARK  5 active torsions:
REMARK  status: ('A' for Active; 'I' for Inactive)
REMARK    1  A    between atoms: C_5  and  C_16
REMARK    2  A    between atoms: C_7  and  C_10
REMARK    3  A    between atoms: C_16  and  O_17
REMARK    4  A    between atoms: O_17  and  C_20
REMARK    5  A    between atoms: C_25  and  O_28
REMARK                            x       y       z     vdW  Elec       q    Type
REMARK                         _______ _______ _______ _____ _____    ______ ____
ROOT
ATOM      1  N   UNL     1      31.733 -23.824 -15.281  0.00  0.00    -0.191 N 
ATOM      2  N   UNL     1      33.010 -23.654 -14.858  0.00  0.00    -0.163 NA
ATOM      3  N   UNL     1      29.891 -23.634 -16.454  0.00  0.00    -0.128 NA
ATOM      4  N   UNL     1      29.660 -24.530 -15.430  0.00  0.00    -0.127 NA
ATOM      5  C   UNL     1      31.134 -23.222 -16.349  0.00  0.00    +0.208 A 
ATOM      6  C   UNL     1      30.769 -24.638 -14.733  0.00  0.00    +0.186 A 
ATOM      7  C   UNL     1      33.317 -24.368 -13.811  0.00  0.00    +0.101 C 
ATOM      8  C   UNL     1      31.124 -25.383 -13.591  0.00  0.00    +0.042 C 
ATOM      9  C   UNL     1      32.366 -25.282 -13.100  0.00  0.00    +0.024 C 
ENDROOT
BRANCH   7  10
ATOM     10  C   UNL     1      34.692 -24.273 -13.253  0.00  0.00    +0.019 C 
ATOM     11  C   UNL     1      35.740 -23.825 -14.056  0.00  0.00    +0.002 C 
ATOM     12  C   UNL     1      34.932 -24.629 -11.926  0.00  0.00    +0.002 C 
ATOM     13  C   UNL     1      37.029 -23.734 -13.532  0.00  0.00    +0.000 C 
ATOM     14  C   UNL     1      36.221 -24.538 -11.402  0.00  0.00    +0.000 C 
ATOM     15  C   UNL     1      37.271 -24.091 -12.204  0.00  0.00    +0.000 C 
ENDBRANCH   7  10
BRANCH   5  16
ATOM     16  C   UNL     1      31.840 -22.243 -17.240  0.00  0.00    +0.272 C 
BRANCH  16  17
ATOM     17  O   UNL     1      32.706 -22.957 -18.122  0.00  0.00    -0.467 OA
BRANCH  17  20
ATOM     18  N   UNL     1      36.488 -21.373 -18.731  0.00  0.00    -0.248 NA
ATOM     19  C   UNL     1      34.166 -21.488 -19.361  0.00  0.00    +0.030 C 
ATOM     20  C   UNL     1      33.941 -22.423 -18.340  0.00  0.00    +0.138 C 
ATOM     21  C   UNL     1      35.473 -20.983 -19.523  0.00  0.00    +0.066 C 
ATOM     22  C   UNL     1      33.129 -21.058 -20.206  0.00  0.00    +0.059 C 
ATOM     23  C   UNL     1      35.695 -20.055 -20.537  0.00  0.00    +0.109 C 
ATOM     24  C   UNL     1      34.986 -22.827 -17.522  0.00  0.00    +0.057 C 
ATOM     25  C   UNL     1      34.664 -19.627 -21.377  0.00  0.00    +0.118 C 
ATOM     26  C   UNL     1      33.379 -20.130 -21.212  0.00  0.00    +0.011 C 
ATOM     27  C   UNL     1      36.231 -22.276 -17.757  0.00  0.00    +0.102 C 
BRANCH  25  28
ATOM     28  O   UNL     1      34.920 -18.717 -22.357  0.00  0.00    -0.476 OA
ATOM     29  C   UNL     1      34.316 -18.947 -23.630  0.00  0.00    +0.252 C 
ENDBRANCH  25  28
ENDBRANCH  17  20
ENDBRANCH  16  17
ENDBRANCH   5  16
TORSDOF 5
ENDMDL
