MODEL 1
REMARK VINA RESULT:     -12.1      0.000      0.000
REMARK  Name = 10250490
REMARK  6 active torsions:
REMARK  status: ('A' for Active; 'I' for Inactive)
REMARK    1  A    between atoms: N_2  and  C_18
REMARK    2  A    between atoms: C_3  and  C_6
REMARK    3  A    between atoms: C_5  and  N_12
REMARK    4  A    between atoms: C_18  and  C_19
REMARK    5  A    between atoms: C_19  and  N_21
REMARK    6  A    between atoms: C_22  and  C_26
REMARK                            x       y       z     vdW  Elec       q    Type
REMARK                         _______ _______ _______ _____ _____    ______ ____
ROOT
ATOM      1  O   UNL     1      33.876 -23.877 -17.770  0.00  0.00    -0.270 OA
ATOM      2  N   UNL     1      35.609 -22.750 -16.720  0.00  0.00    -0.299 N 
ATOM      3  C   UNL     1      34.673 -22.923 -17.746  0.00  0.00    +0.246 C 
ATOM      4  H   UNL     1      36.210 -21.972 -16.763  0.00  0.00    +0.150 HD
ENDROOT
BRANCH   3   6
ATOM      5  C   UNL     1      34.691 -20.053 -20.873  0.00  0.00    +0.058 C 
ATOM      6  C   UNL     1      34.680 -21.940 -18.818  0.00  0.00    +0.053 C 
ATOM      7  C   UNL     1      35.896 -20.523 -20.349  0.00  0.00    +0.015 C 
ATOM      8  C   UNL     1      33.480 -20.528 -20.369  0.00  0.00    +0.015 C 
ATOM      9  C   UNL     1      35.890 -21.466 -19.322  0.00  0.00    +0.006 C 
ATOM     10  C   UNL     1      33.475 -21.471 -19.341  0.00  0.00    +0.006 C 
BRANCH   5  12
ATOM     11  O   UNL     1      35.294 -17.242 -20.555  0.00  0.00    -0.269 OA
ATOM     12  N   UNL     1      34.698 -19.071 -21.940  0.00  0.00    -0.233 N 
ATOM     13  C   UNL     1      35.051 -17.725 -21.661  0.00  0.00    +0.257 C 
ATOM     14  C   UNL     1      34.338 -19.435 -23.239  0.00  0.00    +0.072 C 
ATOM     15  C   UNL     1      35.079 -16.789 -22.827  0.00  0.00    +0.059 C 
ATOM     16  C   UNL     1      34.338 -18.570 -24.260  0.00  0.00    +0.017 C 
ATOM     17  C   UNL     1      34.728 -17.209 -24.045  0.00  0.00    +0.006 C 
ENDBRANCH   5  12
ENDBRANCH   3   6
BRANCH   2  18
ATOM     18  C   UNL     1      35.742 -23.653 -15.599  0.00  0.00    +0.111 C 
BRANCH  18  19
ATOM     19  C   UNL     1      34.829 -23.274 -14.445  0.00  0.00    +0.111 C 
BRANCH  19  21
ATOM     20  O   UNL     1      33.011 -24.780 -12.812  0.00  0.00    -0.270 OA
ATOM     21  N   UNL     1      33.449 -23.558 -14.734  0.00  0.00    -0.299 N 
ATOM     22  C   UNL     1      32.642 -24.299 -13.880  0.00  0.00    +0.252 C 
ATOM     23  H   UNL     1      33.061 -23.213 -15.571  0.00  0.00    +0.150 HD
BRANCH  22  26
ATOM     24 CL   UNL     1      27.888 -23.903 -16.570  0.00  0.00    -0.075 Cl
ATOM     25  S   UNL     1      30.663 -23.546 -15.573  0.00  0.00    -0.071 S 
ATOM     26  C   UNL     1      31.246 -24.527 -14.334  0.00  0.00    +0.084 C 
ATOM     27  C   UNL     1      30.384 -25.439 -13.859  0.00  0.00    +0.012 C 
ATOM     28  C   UNL     1      29.141 -25.345 -14.551  0.00  0.00    +0.019 C 
ATOM     29  C   UNL     1      29.156 -24.357 -15.510  0.00  0.00    +0.087 C 
ENDBRANCH  22  26
ENDBRANCH  19  21
ENDBRANCH  18  19
ENDBRANCH   2  18
TORSDOF 6
ENDMDL
MODEL 2
REMARK VINA RESULT:     -11.6      2.972      4.001
REMARK  Name = 10250490
REMARK  6 active torsions:
REMARK  status: ('A' for Active; 'I' for Inactive)
REMARK    1  A    between atoms: N_2  and  C_18
REMARK    2  A    between atoms: C_3  and  C_6
REMARK    3  A    between atoms: C_5  and  N_12
REMARK    4  A    between atoms: C_18  and  C_19
REMARK    5  A    between atoms: C_19  and  N_21
REMARK    6  A    between atoms: C_22  and  C_26
REMARK                            x       y       z     vdW  Elec       q    Type
REMARK                         _______ _______ _______ _____ _____    ______ ____
ROOT
ATOM      1  O   UNL     1      34.557 -23.540 -17.261  0.00  0.00    -0.270 OA
ATOM      2  N   UNL     1      32.311 -22.971 -17.216  0.00  0.00    -0.299 N 
ATOM      3  C   UNL     1      33.613 -22.872 -17.717  0.00  0.00    +0.246 C 
ATOM      4  H   UNL     1      31.609 -22.413 -17.625  0.00  0.00    +0.150 HD
ENDROOT
BRANCH   3   6
ATOM      5  C   UNL     1      34.261 -20.106 -20.872  0.00  0.00    +0.058 C 
ATOM      6  C   UNL     1      33.834 -21.924 -18.798  0.00  0.00    +0.053 C 
ATOM      7  C   UNL     1      32.965 -20.360 -20.420  0.00  0.00    +0.015 C 
ATOM      8  C   UNL     1      35.343 -20.763 -20.285  0.00  0.00    +0.015 C 
ATOM      9  C   UNL     1      32.752 -21.268 -19.383  0.00  0.00    +0.006 C 
ATOM     10  C   UNL     1      35.130 -21.672 -19.249  0.00  0.00    +0.006 C 
BRANCH   5  12
ATOM     11  O   UNL     1      35.352 -17.446 -20.568  0.00  0.00    -0.269 OA
ATOM     12  N   UNL     1      34.481 -19.163 -21.950  0.00  0.00    -0.233 N 
ATOM     13  C   UNL     1      35.063 -17.898 -21.676  0.00  0.00    +0.257 C 
ATOM     14  C   UNL     1      34.105 -19.481 -23.257  0.00  0.00    +0.072 C 
ATOM     15  C   UNL     1      35.299 -17.005 -22.852  0.00  0.00    +0.059 C 
ATOM     16  C   UNL     1      34.296 -18.651 -24.288  0.00  0.00    +0.017 C 
ATOM     17  C   UNL     1      34.918 -17.378 -24.077  0.00  0.00    +0.006 C 
ENDBRANCH   5  12
ENDBRANCH   3   6
BRANCH   2  18
ATOM     18  C   UNL     1      31.937 -23.849 -16.131  0.00  0.00    +0.111 C 
BRANCH  18  19
ATOM     19  C   UNL     1      32.130 -23.197 -14.772  0.00  0.00    +0.111 C 
BRANCH  19  21
ATOM     20  O   UNL     1      32.721 -25.124 -12.728  0.00  0.00    -0.270 OA
ATOM     21  N   UNL     1      33.423 -23.487 -14.214  0.00  0.00    -0.299 N 
ATOM     22  C   UNL     1      33.614 -24.441 -13.222  0.00  0.00    +0.252 C 
ATOM     23  H   UNL     1      34.204 -22.988 -14.548  0.00  0.00    +0.150 HD
BRANCH  22  26
ATOM     24 CL   UNL     1      39.003 -25.394 -13.005  0.00  0.00    -0.075 Cl
ATOM     25  S   UNL     1      36.181 -25.038 -13.860  0.00  0.00    -0.071 S 
ATOM     26  C   UNL     1      35.008 -24.604 -12.733  0.00  0.00    +0.084 C 
ATOM     27  C   UNL     1      35.442 -24.443 -11.473  0.00  0.00    +0.012 C 
ATOM     28  C   UNL     1      36.844 -24.689 -11.403  0.00  0.00    +0.019 C 
ATOM     29  C   UNL     1      37.373 -25.022 -12.630  0.00  0.00    +0.087 C 
ENDBRANCH  22  26
ENDBRANCH  19  21
ENDBRANCH  18  19
ENDBRANCH   2  18
TORSDOF 6
ENDMDL
MODEL 3
REMARK VINA RESULT:     -10.7      7.520     12.340
REMARK  Name = 10250490
REMARK  6 active torsions:
REMARK  status: ('A' for Active; 'I' for Inactive)
REMARK    1  A    between atoms: N_2  and  C_18
REMARK    2  A    between atoms: C_3  and  C_6
REMARK    3  A    between atoms: C_5  and  N_12
REMARK    4  A    between atoms: C_18  and  C_19
REMARK    5  A    between atoms: C_19  and  N_21
REMARK    6  A    between atoms: C_22  and  C_26
REMARK                            x       y       z     vdW  Elec       q    Type
REMARK                         _______ _______ _______ _____ _____    ______ ____
ROOT
ATOM      1  O   UNL     1      33.846 -14.568 -24.939  0.00  0.00    -0.270 OA
ATOM      2  N   UNL     1      34.386 -13.298 -23.077  0.00  0.00    -0.299 N 
ATOM      3  C   UNL     1      34.238 -14.509 -23.761  0.00  0.00    +0.246 C 
ATOM      4  H   UNL     1      34.701 -13.323 -22.145  0.00  0.00    +0.150 HD
ENDROOT
BRANCH   3   6
ATOM      5  C   UNL     1      35.122 -18.057 -21.604  0.00  0.00    +0.058 C 
ATOM      6  C   UNL     1      34.541 -15.725 -23.023  0.00  0.00    +0.053 C 
ATOM      7  C   UNL     1      34.968 -18.102 -22.990  0.00  0.00    +0.015 C 
ATOM      8  C   UNL     1      34.986 -16.844 -20.928  0.00  0.00    +0.015 C 
ATOM      9  C   UNL     1      34.678 -16.936 -23.699  0.00  0.00    +0.006 C 
ATOM     10  C   UNL     1      34.695 -15.678 -21.637  0.00  0.00    +0.006 C 
BRANCH   5  12
ATOM     11  O   UNL     1      37.768 -18.927 -20.826  0.00  0.00    -0.269 OA
ATOM     12  N   UNL     1      35.422 -19.269 -20.868  0.00  0.00    -0.233 N 
ATOM     13  C   UNL     1      36.763 -19.565 -20.510  0.00  0.00    +0.257 C 
ATOM     14  C   UNL     1      34.404 -20.161 -20.526  0.00  0.00    +0.072 C 
ATOM     15  C   UNL     1      36.979 -20.810 -19.710  0.00  0.00    +0.059 C 
ATOM     16  C   UNL     1      34.626 -21.286 -19.839  0.00  0.00    +0.017 C 
ATOM     17  C   UNL     1      35.954 -21.614 -19.414  0.00  0.00    +0.006 C 
ENDBRANCH   5  12
ENDBRANCH   3   6
BRANCH   2  18
ATOM     18  C   UNL     1      34.101 -12.008 -23.665  0.00  0.00    +0.111 C 
BRANCH  18  19
ATOM     19  C   UNL     1      32.718 -11.500 -23.295  0.00  0.00    +0.111 C 
BRANCH  19  21
ATOM     20  O   UNL     1      31.332 -10.414 -21.027  0.00  0.00    -0.270 OA
ATOM     21  N   UNL     1      32.748 -10.135 -22.843  0.00  0.00    -0.299 N 
ATOM     22  C   UNL     1      32.041  -9.699 -21.729  0.00  0.00    +0.252 C 
ATOM     23  H   UNL     1      33.292  -9.484 -23.344  0.00  0.00    +0.150 HD
BRANCH  22  26
ATOM     24 CL   UNL     1      31.363  -4.265 -21.766  0.00  0.00    -0.075 Cl
ATOM     25  S   UNL     1      31.223  -7.180 -22.311  0.00  0.00    -0.071 S 
ATOM     26  C   UNL     1      32.156  -8.252 -21.408  0.00  0.00    +0.084 C 
ATOM     27  C   UNL     1      32.933  -7.697 -20.466  0.00  0.00    +0.012 C 
ATOM     28  C   UNL     1      32.766  -6.281 -20.466  0.00  0.00    +0.019 C 
ATOM     29  C   UNL     1      31.864  -5.866 -21.420  0.00  0.00    +0.087 C 
ENDBRANCH  22  26
ENDBRANCH  19  21
ENDBRANCH  18  19
ENDBRANCH   2  18
TORSDOF 6
ENDMDL
MODEL 4
REMARK VINA RESULT:     -10.6      4.407     10.107
REMARK  Name = 10250490
REMARK  6 active torsions:
REMARK  status: ('A' for Active; 'I' for Inactive)
REMARK    1  A    between atoms: N_2  and  C_18
REMARK    2  A    between atoms: C_3  and  C_6
REMARK    3  A    between atoms: C_5  and  N_12
REMARK    4  A    between atoms: C_18  and  C_19
REMARK    5  A    between atoms: C_19  and  N_21
REMARK    6  A    between atoms: C_22  and  C_26
REMARK                            x       y       z     vdW  Elec       q    Type
REMARK                         _______ _______ _______ _____ _____    ______ ____
ROOT
ATOM      1  O   UNL     1      32.857 -22.006 -19.595  0.00  0.00    -0.270 OA
ATOM      2  N   UNL     1      34.836 -20.813 -19.777  0.00  0.00    -0.299 N 
ATOM      3  C   UNL     1      33.992 -21.744 -19.162  0.00  0.00    +0.246 C 
ATOM      4  H   UNL     1      35.724 -20.654 -19.381  0.00  0.00    +0.150 HD
ENDROOT
BRANCH   3   6
ATOM      5  C   UNL     1      35.447 -23.631 -15.648  0.00  0.00    +0.058 C 
ATOM      6  C   UNL     1      34.490 -22.391 -17.958  0.00  0.00    +0.053 C 
ATOM      7  C   UNL     1      34.129 -23.838 -16.058  0.00  0.00    +0.015 C 
ATOM      8  C   UNL     1      36.286 -22.804 -16.396  0.00  0.00    +0.015 C 
ATOM      9  C   UNL     1      33.651 -23.218 -17.213  0.00  0.00    +0.006 C 
ATOM     10  C   UNL     1      35.808 -22.184 -17.550  0.00  0.00    +0.006 C 
BRANCH   5  12
ATOM     11  O   UNL     1      35.972 -26.460 -15.363  0.00  0.00    -0.269 OA
ATOM     12  N   UNL     1      35.943 -24.274 -14.448  0.00  0.00    -0.233 N 
ATOM     13  C   UNL     1      36.199 -25.669 -14.447  0.00  0.00    +0.257 C 
ATOM     14  C   UNL     1      36.150 -23.534 -13.282  0.00  0.00    +0.072 C 
ATOM     15  C   UNL     1      36.754 -26.244 -13.183  0.00  0.00    +0.059 C 
ATOM     16  C   UNL     1      36.616 -24.077 -12.151  0.00  0.00    +0.017 C 
ATOM     17  C   UNL     1      36.932 -25.473 -12.106  0.00  0.00    +0.006 C 
ENDBRANCH   5  12
ENDBRANCH   3   6
BRANCH   2  18
ATOM     18  C   UNL     1      34.476 -20.071 -20.965  0.00  0.00    +0.111 C 
BRANCH  18  19
ATOM     19  C   UNL     1      35.653 -19.300 -21.539  0.00  0.00    +0.111 C 
BRANCH  19  21
ATOM     20  O   UNL     1      35.184 -16.698 -20.422  0.00  0.00    -0.270 OA
ATOM     21  N   UNL     1      35.231 -18.124 -22.251  0.00  0.00    -0.299 N 
ATOM     22  C   UNL     1      35.028 -16.901 -21.623  0.00  0.00    +0.252 C 
ATOM     23  H   UNL     1      35.080 -18.189 -23.222  0.00  0.00    +0.150 HD
BRANCH  22  26
ATOM     24 CL   UNL     1      33.334 -14.009 -25.953  0.00  0.00    -0.075 Cl
ATOM     25  S   UNL     1      34.260 -16.145 -24.111  0.00  0.00    -0.071 S 
ATOM     26  C   UNL     1      34.567 -15.789 -22.494  0.00  0.00    +0.084 C 
ATOM     27  C   UNL     1      34.366 -14.513 -22.131  0.00  0.00    +0.012 C 
ATOM     28  C   UNL     1      33.926 -13.748 -23.250  0.00  0.00    +0.019 C 
ATOM     29  C   UNL     1      33.824 -14.513 -24.391  0.00  0.00    +0.087 C 
ENDBRANCH  22  26
ENDBRANCH  19  21
ENDBRANCH  18  19
ENDBRANCH   2  18
TORSDOF 6
ENDMDL
MODEL 5
REMARK VINA RESULT:     -10.6      6.109     10.883
REMARK  Name = 10250490
REMARK  6 active torsions:
REMARK  status: ('A' for Active; 'I' for Inactive)
REMARK    1  A    between atoms: N_2  and  C_18
REMARK    2  A    between atoms: C_3  and  C_6
REMARK    3  A    between atoms: C_5  and  N_12
REMARK    4  A    between atoms: C_18  and  C_19
REMARK    5  A    between atoms: C_19  and  N_21
REMARK    6  A    between atoms: C_22  and  C_26
REMARK                            x       y       z     vdW  Elec       q    Type
REMARK                         _______ _______ _______ _____ _____    ______ ____
ROOT
ATOM      1  O   UNL     1      34.555 -16.284 -25.249  0.00  0.00    -0.270 OA
ATOM      2  N   UNL     1      34.548 -14.778 -23.487  0.00  0.00    -0.299 N 
ATOM      3  C   UNL     1      34.602 -16.068 -24.026  0.00  0.00    +0.246 C 
ATOM      4  H   UNL     1      34.591 -14.679 -22.508  0.00  0.00    +0.150 HD
ENDROOT
BRANCH   3   6
ATOM      5  C   UNL     1      34.866 -19.292 -21.277  0.00  0.00    +0.058 C 
ATOM      6  C   UNL     1      34.693 -17.173 -23.085  0.00  0.00    +0.053 C 
ATOM      7  C   UNL     1      34.478 -19.529 -22.596  0.00  0.00    +0.015 C 
ATOM      8  C   UNL     1      35.168 -17.994 -20.862  0.00  0.00    +0.015 C 
ATOM      9  C   UNL     1      34.392 -18.470 -23.499  0.00  0.00    +0.006 C 
ATOM     10  C   UNL     1      35.081 -16.935 -21.766  0.00  0.00    +0.006 C 
BRANCH   5  12
ATOM     11  O   UNL     1      32.612 -20.682 -20.114  0.00  0.00    -0.269 OA
ATOM     12  N   UNL     1      34.954 -20.393 -20.338  0.00  0.00    -0.233 N 
ATOM     13  C   UNL     1      33.770 -21.019 -19.869  0.00  0.00    +0.257 C 
ATOM     14  C   UNL     1      36.196 -20.828 -19.872  0.00  0.00    +0.072 C 
ATOM     15  C   UNL     1      33.952 -22.177 -18.941  0.00  0.00    +0.059 C 
ATOM     16  C   UNL     1      36.332 -21.846 -19.014  0.00  0.00    +0.017 C 
ATOM     17  C   UNL     1      35.174 -22.543 -18.542  0.00  0.00    +0.006 C 
ENDBRANCH   5  12
ENDBRANCH   3   6
BRANCH   2  18
ATOM     18  C   UNL     1      34.434 -13.581 -24.289  0.00  0.00    +0.111 C 
BRANCH  18  19
ATOM     19  C   UNL     1      33.005 -13.068 -24.356  0.00  0.00    +0.111 C 
BRANCH  19  21
ATOM     20  O   UNL     1      32.017 -13.442 -21.687  0.00  0.00    -0.270 OA
ATOM     21  N   UNL     1      32.756 -12.041 -23.381  0.00  0.00    -0.299 N 
ATOM     22  C   UNL     1      32.275 -12.317 -22.107  0.00  0.00    +0.252 C 
ATOM     23  H   UNL     1      32.933 -11.104 -23.627  0.00  0.00    +0.150 HD
BRANCH  22  26
ATOM     24 CL   UNL     1      31.816  -7.188 -20.246  0.00  0.00    -0.075 Cl
ATOM     25  S   UNL     1      32.248  -9.614 -21.903  0.00  0.00    -0.071 S 
ATOM     26  C   UNL     1      32.044 -11.143 -21.227  0.00  0.00    +0.084 C 
ATOM     27  C   UNL     1      31.688 -11.165 -19.933  0.00  0.00    +0.012 C 
ATOM     28  C   UNL     1      31.566  -9.835 -19.436  0.00  0.00    +0.019 C 
ATOM     29  C   UNL     1      31.842  -8.894 -20.403  0.00  0.00    +0.087 C 
ENDBRANCH  22  26
ENDBRANCH  19  21
ENDBRANCH  18  19
ENDBRANCH   2  18
TORSDOF 6
ENDMDL
MODEL 6
REMARK VINA RESULT:     -10.4      7.554     12.838
REMARK  Name = 10250490
REMARK  6 active torsions:
REMARK  status: ('A' for Active; 'I' for Inactive)
REMARK    1  A    between atoms: N_2  and  C_18
REMARK    2  A    between atoms: C_3  and  C_6
REMARK    3  A    between atoms: C_5  and  N_12
REMARK    4  A    between atoms: C_18  and  C_19
REMARK    5  A    between atoms: C_19  and  N_21
REMARK    6  A    between atoms: C_22  and  C_26
REMARK                            x       y       z     vdW  Elec       q    Type
REMARK                         _______ _______ _______ _____ _____    ______ ____
ROOT
ATOM      1  O   UNL     1      34.232 -15.698 -25.348  0.00  0.00    -0.270 OA
ATOM      2  N   UNL     1      34.130 -14.255 -23.537  0.00  0.00    -0.299 N 
ATOM      3  C   UNL     1      34.314 -15.513 -24.121  0.00  0.00    +0.246 C 
ATOM      4  H   UNL     1      34.210 -14.179 -22.558  0.00  0.00    +0.150 HD
ENDROOT
BRANCH   3   6
ATOM      5  C   UNL     1      35.113 -18.754 -21.499  0.00  0.00    +0.058 C 
ATOM      6  C   UNL     1      34.588 -16.624 -23.224  0.00  0.00    +0.053 C 
ATOM      7  C   UNL     1      34.773 -19.000 -22.830  0.00  0.00    +0.015 C 
ATOM      8  C   UNL     1      35.191 -17.442 -21.032  0.00  0.00    +0.015 C 
ATOM      9  C   UNL     1      34.511 -17.935 -23.692  0.00  0.00    +0.006 C 
ATOM     10  C   UNL     1      34.928 -16.377 -21.893  0.00  0.00    +0.006 C 
BRANCH   5  12
ATOM     11  O   UNL     1      37.691 -19.382 -20.350  0.00  0.00    -0.269 OA
ATOM     12  N   UNL     1      35.384 -19.862 -20.604  0.00  0.00    -0.233 N 
ATOM     13  C   UNL     1      36.688 -20.040 -20.074  0.00  0.00    +0.257 C 
ATOM     14  C   UNL     1      34.375 -20.770 -20.275  0.00  0.00    +0.072 C 
ATOM     15  C   UNL     1      36.869 -21.178 -19.121  0.00  0.00    +0.059 C 
ATOM     16  C   UNL     1      34.571 -21.801 -19.446  0.00  0.00    +0.017 C 
ATOM     17  C   UNL     1      35.856 -22.004 -18.848  0.00  0.00    +0.006 C 
ENDBRANCH   5  12
ENDBRANCH   3   6
BRANCH   2  18
ATOM     18  C   UNL     1      33.828 -13.060 -24.291  0.00  0.00    +0.111 C 
BRANCH  18  19
ATOM     19  C   UNL     1      33.190 -11.983 -23.430  0.00  0.00    +0.111 C 
BRANCH  19  21
ATOM     20  O   UNL     1      32.447  -9.512 -22.171  0.00  0.00    -0.270 OA
ATOM     21  N   UNL     1      33.681 -10.671 -23.757  0.00  0.00    -0.299 N 
ATOM     22  C   UNL     1      33.261  -9.526 -23.090  0.00  0.00    +0.252 C 
ATOM     23  H   UNL     1      34.340 -10.581 -24.483  0.00  0.00    +0.150 HD
BRANCH  22  26
ATOM     24 CL   UNL     1      33.880  -4.616 -25.435  0.00  0.00    -0.075 Cl
ATOM     25  S   UNL     1      32.836  -7.210 -24.433  0.00  0.00    -0.071 S 
ATOM     26  C   UNL     1      33.843  -8.244 -23.564  0.00  0.00    +0.084 C 
ATOM     27  C   UNL     1      35.099  -7.812 -23.375  0.00  0.00    +0.012 C 
ATOM     28  C   UNL     1      35.273  -6.534 -23.983  0.00  0.00    +0.019 C 
ATOM     29  C   UNL     1      34.121  -6.089 -24.592  0.00  0.00    +0.087 C 
ENDBRANCH  22  26
ENDBRANCH  19  21
ENDBRANCH  18  19
ENDBRANCH   2  18
TORSDOF 6
ENDMDL
MODEL 7
REMARK VINA RESULT:     -10.3      3.016      4.751
REMARK  Name = 10250490
REMARK  6 active torsions:
REMARK  status: ('A' for Active; 'I' for Inactive)
REMARK    1  A    between atoms: N_2  and  C_18
REMARK    2  A    between atoms: C_3  and  C_6
REMARK    3  A    between atoms: C_5  and  N_12
REMARK    4  A    between atoms: C_18  and  C_19
REMARK    5  A    between atoms: C_19  and  N_21
REMARK    6  A    between atoms: C_22  and  C_26
REMARK                            x       y       z     vdW  Elec       q    Type
REMARK                         _______ _______ _______ _____ _____    ______ ____
ROOT
ATOM      1  O   UNL     1      37.260 -19.457 -20.068  0.00  0.00    -0.270 OA
ATOM      2  N   UNL     1      35.188 -20.481 -20.252  0.00  0.00    -0.299 N 
ATOM      3  C   UNL     1      36.097 -19.449 -20.509  0.00  0.00    +0.246 C 
ATOM      4  H   UNL     1      34.283 -20.412 -20.633  0.00  0.00    +0.150 HD
ENDROOT
BRANCH   3   6
ATOM      5  C   UNL     1      34.696 -16.188 -22.838  0.00  0.00    +0.058 C 
ATOM      6  C   UNL     1      35.618 -18.331 -21.306  0.00  0.00    +0.053 C 
ATOM      7  C   UNL     1      34.871 -16.039 -21.462  0.00  0.00    +0.015 C 
ATOM      8  C   UNL     1      34.983 -17.410 -23.448  0.00  0.00    +0.015 C 
ATOM      9  C   UNL     1      35.332 -17.110 -20.697  0.00  0.00    +0.006 C 
ATOM     10  C   UNL     1      35.443 -18.481 -22.682  0.00  0.00    +0.006 C 
BRANCH   5  12
ATOM     11  O   UNL     1      33.641 -16.384 -25.524  0.00  0.00    -0.269 OA
ATOM     12  N   UNL     1      34.216 -15.075 -23.633  0.00  0.00    -0.233 N 
ATOM     13  C   UNL     1      33.682 -15.308 -24.927  0.00  0.00    +0.257 C 
ATOM     14  C   UNL     1      34.294 -13.770 -23.143  0.00  0.00    +0.072 C 
ATOM     15  C   UNL     1      33.165 -14.111 -25.659  0.00  0.00    +0.059 C 
ATOM     16  C   UNL     1      33.856 -12.710 -23.832  0.00  0.00    +0.017 C 
ATOM     17  C   UNL     1      33.268 -12.891 -25.126  0.00  0.00    +0.006 C 
ENDBRANCH   5  12
ENDBRANCH   3   6
BRANCH   2  18
ATOM     18  C   UNL     1      35.506 -21.647 -19.458  0.00  0.00    +0.111 C 
BRANCH  18  19
ATOM     19  C   UNL     1      34.291 -22.525 -19.214  0.00  0.00    +0.111 C 
BRANCH  19  21
ATOM     20  O   UNL     1      31.909 -22.718 -17.623  0.00  0.00    -0.270 OA
ATOM     21  N   UNL     1      34.205 -22.960 -17.846  0.00  0.00    -0.299 N 
ATOM     22  C   UNL     1      33.003 -23.021 -17.153  0.00  0.00    +0.252 C 
ATOM     23  H   UNL     1      35.033 -23.224 -17.383  0.00  0.00    +0.150 HD
BRANCH  22  26
ATOM     24 CL   UNL     1      34.917 -24.686 -12.300  0.00  0.00    -0.075 Cl
ATOM     25  S   UNL     1      34.618 -23.789 -15.115  0.00  0.00    -0.071 S 
ATOM     26  C   UNL     1      33.087 -23.466 -15.738  0.00  0.00    +0.084 C 
ATOM     27  C   UNL     1      32.063 -23.643 -14.888  0.00  0.00    +0.012 C 
ATOM     28  C   UNL     1      32.548 -24.078 -13.620  0.00  0.00    +0.019 C 
ATOM     29  C   UNL     1      33.920 -24.199 -13.605  0.00  0.00    +0.087 C 
ENDBRANCH  22  26
ENDBRANCH  19  21
ENDBRANCH  18  19
ENDBRANCH   2  18
TORSDOF 6
ENDMDL
MODEL 8
REMARK VINA RESULT:     -10.2      6.661     10.799
REMARK  Name = 10250490
REMARK  6 active torsions:
REMARK  status: ('A' for Active; 'I' for Inactive)
REMARK    1  A    between atoms: N_2  and  C_18
REMARK    2  A    between atoms: C_3  and  C_6
REMARK    3  A    between atoms: C_5  and  N_12
REMARK    4  A    between atoms: C_18  and  C_19
REMARK    5  A    between atoms: C_19  and  N_21
REMARK    6  A    between atoms: C_22  and  C_26
REMARK                            x       y       z     vdW  Elec       q    Type
REMARK                         _______ _______ _______ _____ _____    ______ ____
ROOT
ATOM      1  O   UNL     1      33.668 -14.833 -21.960  0.00  0.00    -0.270 OA
ATOM      2  N   UNL     1      33.086 -14.583 -24.189  0.00  0.00    -0.299 N 
ATOM      3  C   UNL     1      33.260 -14.109 -22.885  0.00  0.00    +0.246 C 
ATOM      4  H   UNL     1      32.760 -13.955 -24.875  0.00  0.00    +0.150 HD
ENDROOT
BRANCH   3   6
ATOM      5  C   UNL     1      32.264 -10.047 -22.158  0.00  0.00    +0.058 C 
ATOM      6  C   UNL     1      32.919 -12.717 -22.637  0.00  0.00    +0.053 C 
ATOM      7  C   UNL     1      33.184 -10.373 -23.155  0.00  0.00    +0.015 C 
ATOM      8  C   UNL     1      31.670 -11.058 -21.402  0.00  0.00    +0.015 C 
ATOM      9  C   UNL     1      33.511 -11.708 -23.394  0.00  0.00    +0.006 C 
ATOM     10  C   UNL     1      31.998 -12.392 -21.640  0.00  0.00    +0.006 C 
BRANCH   5  12
ATOM     11  O   UNL     1      32.881  -8.583 -19.742  0.00  0.00    -0.269 OA
ATOM     12  N   UNL     1      31.925  -8.660 -21.910  0.00  0.00    -0.233 N 
ATOM     13  C   UNL     1      32.321  -8.042 -20.695  0.00  0.00    +0.257 C 
ATOM     14  C   UNL     1      31.191  -7.931 -22.848  0.00  0.00    +0.072 C 
ATOM     15  C   UNL     1      31.973  -6.595 -20.540  0.00  0.00    +0.059 C 
ATOM     16  C   UNL     1      30.863  -6.646 -22.671  0.00  0.00    +0.017 C 
ATOM     17  C   UNL     1      31.273  -5.959 -21.483  0.00  0.00    +0.006 C 
ENDBRANCH   5  12
ENDBRANCH   3   6
BRANCH   2  18
ATOM     18  C   UNL     1      33.358 -15.945 -24.588  0.00  0.00    +0.111 C 
BRANCH  18  19
ATOM     19  C   UNL     1      34.848 -16.221 -24.710  0.00  0.00    +0.111 C 
BRANCH  19  21
ATOM     20  O   UNL     1      34.135 -18.920 -24.043  0.00  0.00    -0.270 OA
ATOM     21  N   UNL     1      35.346 -16.992 -23.602  0.00  0.00    -0.299 N 
ATOM     22  C   UNL     1      34.941 -18.298 -23.357  0.00  0.00    +0.252 C 
ATOM     23  H   UNL     1      35.999 -16.576 -22.994  0.00  0.00    +0.150 HD
BRANCH  22  26
ATOM     24 CL   UNL     1      35.663 -21.490 -18.966  0.00  0.00    -0.075 Cl
ATOM     25  S   UNL     1      34.600 -20.116 -21.375  0.00  0.00    -0.071 S 
ATOM     26  C   UNL     1      35.529 -18.949 -22.157  0.00  0.00    +0.084 C 
ATOM     27  C   UNL     1      36.734 -18.706 -21.619  0.00  0.00    +0.012 C 
ATOM     28  C   UNL     1      36.934 -19.531 -20.474  0.00  0.00    +0.019 C 
ATOM     29  C   UNL     1      35.851 -20.347 -20.228  0.00  0.00    +0.087 C 
ENDBRANCH  22  26
ENDBRANCH  19  21
ENDBRANCH  18  19
ENDBRANCH   2  18
TORSDOF 6
ENDMDL
MODEL 9
REMARK VINA RESULT:     -10.2      4.704      9.741
REMARK  Name = 10250490
REMARK  6 active torsions:
REMARK  status: ('A' for Active; 'I' for Inactive)
REMARK    1  A    between atoms: N_2  and  C_18
REMARK    2  A    between atoms: C_3  and  C_6
REMARK    3  A    between atoms: C_5  and  N_12
REMARK    4  A    between atoms: C_18  and  C_19
REMARK    5  A    between atoms: C_19  and  N_21
REMARK    6  A    between atoms: C_22  and  C_26
REMARK                            x       y       z     vdW  Elec       q    Type
REMARK                         _______ _______ _______ _____ _____    ______ ____
ROOT
ATOM      1  O   UNL     1      34.934 -20.100 -23.637  0.00  0.00    -0.270 OA
ATOM      2  N   UNL     1      34.702 -18.116 -22.460  0.00  0.00    -0.299 N 
ATOM      3  C   UNL     1      34.836 -19.506 -22.549  0.00  0.00    +0.246 C 
ATOM      4  H   UNL     1      34.630 -17.710 -21.566  0.00  0.00    +0.150 HD
ENDROOT
BRANCH   3   6
ATOM      5  C   UNL     1      34.828 -21.681 -18.904  0.00  0.00    +0.058 C 
ATOM      6  C   UNL     1      34.834 -20.251 -21.300  0.00  0.00    +0.053 C 
ATOM      7  C   UNL     1      36.034 -21.394 -19.543  0.00  0.00    +0.015 C 
ATOM      8  C   UNL     1      33.624 -21.251 -19.464  0.00  0.00    +0.015 C 
ATOM      9  C   UNL     1      36.037 -20.679 -20.741  0.00  0.00    +0.006 C 
ATOM     10  C   UNL     1      33.627 -20.537 -20.662  0.00  0.00    +0.006 C 
BRANCH   5  12
ATOM     11  O   UNL     1      32.553 -23.084 -17.800  0.00  0.00    -0.269 OA
ATOM     12  N   UNL     1      34.825 -22.425 -17.660  0.00  0.00    -0.233 N 
ATOM     13  C   UNL     1      33.651 -23.106 -17.245  0.00  0.00    +0.257 C 
ATOM     14  C   UNL     1      35.964 -22.459 -16.852  0.00  0.00    +0.072 C 
ATOM     15  C   UNL     1      33.749 -23.889 -15.974  0.00  0.00    +0.059 C 
ATOM     16  C   UNL     1      36.017 -23.139 -15.702  0.00  0.00    +0.017 C 
ATOM     17  C   UNL     1      34.875 -23.880 -15.256  0.00  0.00    +0.006 C 
ENDBRANCH   5  12
ENDBRANCH   3   6
BRANCH   2  18
ATOM     18  C   UNL     1      34.663 -17.242 -23.611  0.00  0.00    +0.111 C 
BRANCH  18  19
ATOM     19  C   UNL     1      35.369 -15.921 -23.353  0.00  0.00    +0.111 C 
BRANCH  19  21
ATOM     20  O   UNL     1      34.490 -15.268 -20.700  0.00  0.00    -0.270 OA
ATOM     21  N   UNL     1      34.448 -14.880 -22.986  0.00  0.00    -0.299 N 
ATOM     22  C   UNL     1      34.078 -14.636 -21.669  0.00  0.00    +0.252 C 
ATOM     23  H   UNL     1      34.063 -14.318 -23.698  0.00  0.00    +0.150 HD
BRANCH  22  26
ATOM     24 CL   UNL     1      30.993 -10.169 -22.389  0.00  0.00    -0.075 Cl
ATOM     25  S   UNL     1      32.924 -12.405 -22.690  0.00  0.00    -0.071 S 
ATOM     26  C   UNL     1      33.096 -13.541 -21.459  0.00  0.00    +0.084 C 
ATOM     27  C   UNL     1      32.320 -13.353 -20.380  0.00  0.00    +0.012 C 
ATOM     28  C   UNL     1      31.512 -12.192 -20.555  0.00  0.00    +0.019 C 
ATOM     29  C   UNL     1      31.740 -11.580 -21.768  0.00  0.00    +0.087 C 
ENDBRANCH  22  26
ENDBRANCH  19  21
ENDBRANCH  18  19
ENDBRANCH   2  18
TORSDOF 6
ENDMDL
