MODEL 1
REMARK VINA RESULT:     -11.6      0.000      0.000
REMARK  Name = 118513932
REMARK  2 active torsions:
REMARK  status: ('A' for Active; 'I' for Inactive)
REMARK    1  A    between atoms: C_4  and  N_24
REMARK    2  A    between atoms: C_10  and  C_15
REMARK                            x       y       z     vdW  Elec       q    Type
REMARK                         _______ _______ _______ _____ _____    ______ ____
ROOT
ATOM      1  O   UNL     1      32.686 -23.037 -18.200  0.00  0.00    -0.274 OA
ATOM      2  N   UNL     1      34.897 -22.448 -17.658  0.00  0.00    -0.209 N 
ATOM      3  N   UNL     1      36.021 -20.839 -19.016  0.00  0.00    -0.389 NA
ATOM      4  C   UNL     1      36.046 -23.422 -15.782  0.00  0.00    +0.063 C 
ATOM      5  C   UNL     1      34.956 -23.301 -16.561  0.00  0.00    +0.089 C 
ATOM      6  C   UNL     1      37.206 -22.622 -16.111  0.00  0.00    +0.020 C 
ATOM      7  C   UNL     1      37.212 -21.784 -17.153  0.00  0.00    +0.050 C 
ATOM      8  C   UNL     1      36.000 -21.658 -18.008  0.00  0.00    +0.193 C 
ATOM      9  C   UNL     1      33.714 -22.395 -18.407  0.00  0.00    +0.242 C 
ATOM     10  C   UNL     1      34.881 -20.765 -19.765  0.00  0.00    +0.139 C 
ATOM     11  C   UNL     1      33.756 -21.456 -19.553  0.00  0.00    +0.146 C 
ENDROOT
BRANCH  10  15
ATOM     12  N   UNL     1      34.889 -17.846 -21.887  0.00  0.00    -0.178 N 
ATOM     13  N   UNL     1      34.889 -18.557 -20.731  0.00  0.00    -0.173 NA
ATOM     14  N   UNL     1      34.881 -17.365 -24.063  0.00  0.00    -0.392 NA
ATOM     15  C   UNL     1      34.880 -19.848 -20.909  0.00  0.00    +0.124 C 
ATOM     16  C   UNL     1      34.870 -20.522 -22.243  0.00  0.00    +0.023 C 
ATOM     17  C   UNL     1      34.870 -19.760 -23.352  0.00  0.00    +0.025 C 
ATOM     18  C   UNL     1      34.879 -18.343 -23.178  0.00  0.00    +0.198 C 
ATOM     19  C   UNL     1      34.898 -16.479 -21.981  0.00  0.00    +0.173 C 
ATOM     20  C   UNL     1      34.893 -16.208 -23.327  0.00  0.00    +0.111 C 
ATOM     21  C   UNL     1      34.859 -20.417 -24.708  0.00  0.00    +0.035 C 
ATOM     22  C   UNL     1      34.899 -14.898 -23.993  0.00  0.00    +0.063 C 
ENDBRANCH  10  15
BRANCH   4  24
ATOM     23  N   UNL     1      36.017 -25.382 -12.067  0.00  0.00    +0.389 N 
ATOM     24  N   UNL     1      36.119 -24.254 -14.702  0.00  0.00    -0.311 N 
ATOM     25  C   UNL     1      37.149 -24.524 -12.503  0.00  0.00    -0.027 C 
ATOM     26  C   UNL     1      38.364 -24.443 -11.607  0.00  0.00    -0.020 C 
ATOM     27  C   UNL     1      37.442 -23.265 -11.714  0.00  0.00    -0.020 C 
ATOM     28  C   UNL     1      37.382 -24.502 -14.000  0.00  0.00    +0.071 C 
ATOM     29  C   UNL     1      34.793 -25.001 -12.775  0.00  0.00    -0.060 C 
ATOM     30  C   UNL     1      34.987 -25.089 -14.289  0.00  0.00    +0.067 C 
ATOM     31  H   UNL     1      35.875 -25.270 -11.064  0.00  0.00    -0.084 HD
ATOM     32  H   UNL     1      36.236 -26.355 -12.281  0.00  0.00    -0.084 HD
ENDBRANCH   4  24
TORSDOF 2
ENDMDL
MODEL 2
REMARK VINA RESULT:     -10.9      6.056     10.730
REMARK  Name = 118513932
REMARK  2 active torsions:
REMARK  status: ('A' for Active; 'I' for Inactive)
REMARK    1  A    between atoms: C_4  and  N_24
REMARK    2  A    between atoms: C_10  and  C_15
REMARK                            x       y       z     vdW  Elec       q    Type
REMARK                         _______ _______ _______ _____ _____    ______ ____
ROOT
ATOM      1  O   UNL     1      33.396 -13.765 -25.757  0.00  0.00    -0.274 OA
ATOM      2  N   UNL     1      33.799 -14.092 -23.464  0.00  0.00    -0.209 N 
ATOM      3  N   UNL     1      33.406 -12.279 -21.960  0.00  0.00    -0.389 NA
ATOM      4  C   UNL     1      34.593 -16.193 -22.602  0.00  0.00    +0.063 C 
ATOM      5  C   UNL     1      34.206 -15.412 -23.626  0.00  0.00    +0.089 C 
ATOM      6  C   UNL     1      34.581 -15.621 -21.272  0.00  0.00    +0.020 C 
ATOM      7  C   UNL     1      34.201 -14.359 -21.051  0.00  0.00    +0.050 C 
ATOM      8  C   UNL     1      33.774 -13.504 -22.192  0.00  0.00    +0.193 C 
ATOM      9  C   UNL     1      33.415 -13.361 -24.596  0.00  0.00    +0.242 C 
ATOM     10  C   UNL     1      33.026 -11.542 -23.046  0.00  0.00    +0.139 C 
ATOM     11  C   UNL     1      32.999 -11.967 -24.313  0.00  0.00    +0.146 C 
ENDROOT
BRANCH  10  15
ATOM     12  N   UNL     1      32.052  -8.088 -23.424  0.00  0.00    -0.178 N 
ATOM     13  N   UNL     1      32.442  -9.331 -23.805  0.00  0.00    -0.173 NA
ATOM     14  N   UNL     1      31.458  -6.372 -22.134  0.00  0.00    -0.392 NA
ATOM     15  C   UNL     1      32.607 -10.157 -22.811  0.00  0.00    +0.124 C 
ATOM     16  C   UNL     1      32.399  -9.809 -21.373  0.00  0.00    +0.023 C 
ATOM     17  C   UNL     1      32.013  -8.558 -21.060  0.00  0.00    +0.025 C 
ATOM     18  C   UNL     1      31.826  -7.638 -22.136  0.00  0.00    +0.198 C 
ATOM     19  C   UNL     1      31.809  -7.036 -24.268  0.00  0.00    +0.173 C 
ATOM     20  C   UNL     1      31.446  -5.994 -23.451  0.00  0.00    +0.111 C 
ATOM     21  C   UNL     1      31.797  -8.183 -19.617  0.00  0.00    +0.035 C 
ATOM     22  C   UNL     1      31.076  -4.623 -23.833  0.00  0.00    +0.063 C 
ENDBRANCH  10  15
BRANCH   4  24
ATOM     23  N   UNL     1      35.105 -20.352 -22.889  0.00  0.00    +0.389 N 
ATOM     24  N   UNL     1      34.995 -17.490 -22.745  0.00  0.00    -0.311 N 
ATOM     25  C   UNL     1      35.136 -19.636 -21.588  0.00  0.00    -0.027 C 
ATOM     26  C   UNL     1      35.459 -20.437 -20.345  0.00  0.00    -0.020 C 
ATOM     27  C   UNL     1      34.059 -19.949 -20.569  0.00  0.00    -0.020 C 
ATOM     28  C   UNL     1      35.663 -18.218 -21.661  0.00  0.00    +0.071 C 
ATOM     29  C   UNL     1      34.353 -19.573 -23.875  0.00  0.00    -0.060 C 
ATOM     30  C   UNL     1      34.952 -18.176 -24.040  0.00  0.00    +0.067 C 
ATOM     31  H   UNL     1      34.658 -21.260 -22.765  0.00  0.00    -0.084 HD
ATOM     32  H   UNL     1      36.060 -20.478 -23.223  0.00  0.00    -0.084 HD
ENDBRANCH   4  24
TORSDOF 2
ENDMDL
MODEL 3
REMARK VINA RESULT:     -10.4      5.962     10.776
REMARK  Name = 118513932
REMARK  2 active torsions:
REMARK  status: ('A' for Active; 'I' for Inactive)
REMARK    1  A    between atoms: C_4  and  N_24
REMARK    2  A    between atoms: C_10  and  C_15
REMARK                            x       y       z     vdW  Elec       q    Type
REMARK                         _______ _______ _______ _____ _____    ______ ____
ROOT
ATOM      1  O   UNL     1      33.432 -13.776 -25.971  0.00  0.00    -0.274 OA
ATOM      2  N   UNL     1      34.009 -14.090 -23.714  0.00  0.00    -0.209 N 
ATOM      3  N   UNL     1      33.941 -12.212 -22.240  0.00  0.00    -0.389 NA
ATOM      4  C   UNL     1      34.662 -16.241 -22.858  0.00  0.00    +0.063 C 
ATOM      5  C   UNL     1      34.264 -15.448 -23.868  0.00  0.00    +0.089 C 
ATOM      6  C   UNL     1      34.830 -15.641 -21.552  0.00  0.00    +0.020 C 
ATOM      7  C   UNL     1      34.601 -14.341 -21.338  0.00  0.00    +0.050 C 
ATOM      8  C   UNL     1      34.160 -13.473 -22.464  0.00  0.00    +0.193 C 
ATOM      9  C   UNL     1      33.599 -13.349 -24.830  0.00  0.00    +0.242 C 
ATOM     10  C   UNL     1      33.539 -11.465 -23.311  0.00  0.00    +0.139 C 
ATOM     11  C   UNL     1      33.353 -11.914 -24.556  0.00  0.00    +0.146 C 
ENDROOT
BRANCH  10  15
ATOM     12  N   UNL     1      32.089  -8.287 -22.402  0.00  0.00    -0.178 N 
ATOM     13  N   UNL     1      32.170  -9.635 -22.547  0.00  0.00    -0.173 NA
ATOM     14  N   UNL     1      32.627  -6.127 -22.474  0.00  0.00    -0.392 NA
ATOM     15  C   UNL     1      33.287 -10.038 -23.084  0.00  0.00    +0.124 C 
ATOM     16  C   UNL     1      34.398  -9.137 -23.515  0.00  0.00    +0.023 C 
ATOM     17  C   UNL     1      34.255  -7.809 -23.345  0.00  0.00    +0.025 C 
ATOM     18  C   UNL     1      33.039  -7.347 -22.758  0.00  0.00    +0.198 C 
ATOM     19  C   UNL     1      31.027  -7.607 -21.867  0.00  0.00    +0.173 C 
ATOM     20  C   UNL     1      31.381  -6.282 -21.922  0.00  0.00    +0.111 C 
ATOM     21  C   UNL     1      35.361  -6.879 -23.772  0.00  0.00    +0.035 C 
ATOM     22  C   UNL     1      30.609  -5.112 -21.478  0.00  0.00    +0.063 C 
ENDBRANCH  10  15
BRANCH   4  24
ATOM     23  N   UNL     1      34.724 -20.437 -23.048  0.00  0.00    +0.389 N 
ATOM     24  N   UNL     1      34.916 -17.575 -22.995  0.00  0.00    -0.311 N 
ATOM     25  C   UNL     1      34.959 -19.696 -21.781  0.00  0.00    -0.027 C 
ATOM     26  C   UNL     1      35.326 -20.494 -20.550  0.00  0.00    -0.020 C 
ATOM     27  C   UNL     1      33.966 -19.870 -20.651  0.00  0.00    -0.020 C 
ATOM     28  C   UNL     1      35.614 -18.341 -21.957  0.00  0.00    +0.071 C 
ATOM     29  C   UNL     1      33.957 -19.609 -23.981  0.00  0.00    -0.060 C 
ATOM     30  C   UNL     1      34.673 -18.286 -24.254  0.00  0.00    +0.067 C 
ATOM     31  H   UNL     1      34.204 -21.290 -22.848  0.00  0.00    -0.084 HD
ATOM     32  H   UNL     1      35.623 -20.668 -23.469  0.00  0.00    -0.084 HD
ENDBRANCH   4  24
TORSDOF 2
ENDMDL
MODEL 4
REMARK VINA RESULT:      -9.8      6.195     11.115
REMARK  Name = 118513932
REMARK  2 active torsions:
REMARK  status: ('A' for Active; 'I' for Inactive)
REMARK    1  A    between atoms: C_4  and  N_24
REMARK    2  A    between atoms: C_10  and  C_15
REMARK                            x       y       z     vdW  Elec       q    Type
REMARK                         _______ _______ _______ _____ _____    ______ ____
ROOT
ATOM      1  O   UNL     1      32.661 -14.031 -20.199  0.00  0.00    -0.274 OA
ATOM      2  N   UNL     1      33.385 -13.940 -22.434  0.00  0.00    -0.209 N 
ATOM      3  N   UNL     1      33.236 -11.863 -23.604  0.00  0.00    -0.389 NA
ATOM      4  C   UNL     1      34.264 -15.873 -23.563  0.00  0.00    +0.063 C 
ATOM      5  C   UNL     1      33.746 -15.282 -22.473  0.00  0.00    +0.089 C 
ATOM      6  C   UNL     1      34.449 -15.064 -24.749  0.00  0.00    +0.020 C 
ATOM      7  C   UNL     1      34.122 -13.768 -24.776  0.00  0.00    +0.050 C 
ATOM      8  C   UNL     1      33.550 -13.124 -23.562  0.00  0.00    +0.193 C 
ATOM      9  C   UNL     1      32.852 -13.419 -21.248  0.00  0.00    +0.242 C 
ATOM     10  C   UNL     1      32.715 -11.327 -22.460  0.00  0.00    +0.139 C 
ATOM     11  C   UNL     1      32.502 -11.980 -21.313  0.00  0.00    +0.146 C 
ENDROOT
BRANCH  10  15
ATOM     12  N   UNL     1      31.833  -7.975 -23.464  0.00  0.00    -0.178 N 
ATOM     13  N   UNL     1      32.163  -9.283 -23.611  0.00  0.00    -0.173 NA
ATOM     14  N   UNL     1      31.360  -6.018 -22.510  0.00  0.00    -0.392 NA
ATOM     15  C   UNL     1      32.353  -9.907 -22.483  0.00  0.00    +0.124 C 
ATOM     16  C   UNL     1      32.229  -9.278 -21.133  0.00  0.00    +0.023 C 
ATOM     17  C   UNL     1      31.899  -7.975 -21.055  0.00  0.00    +0.025 C 
ATOM     18  C   UNL     1      31.687  -7.275 -22.280  0.00  0.00    +0.198 C 
ATOM     19  C   UNL     1      31.581  -7.098 -24.486  0.00  0.00    +0.173 C 
ATOM     20  C   UNL     1      31.292  -5.903 -23.875  0.00  0.00    +0.111 C 
ATOM     21  C   UNL     1      31.769  -7.319 -19.705  0.00  0.00    +0.035 C 
ATOM     22  C   UNL     1      30.947  -4.618 -24.501  0.00  0.00    +0.063 C 
ENDBRANCH  10  15
BRANCH   4  24
ATOM     23  N   UNL     1      34.715 -20.044 -23.364  0.00  0.00    +0.389 N 
ATOM     24  N   UNL     1      34.624 -17.189 -23.616  0.00  0.00    -0.311 N 
ATOM     25  C   UNL     1      35.086 -19.151 -22.236  0.00  0.00    -0.027 C 
ATOM     26  C   UNL     1      35.735 -19.775 -21.020  0.00  0.00    -0.020 C 
ATOM     27  C   UNL     1      34.322 -19.281 -20.935  0.00  0.00    -0.020 C 
ATOM     28  C   UNL     1      35.562 -17.775 -22.653  0.00  0.00    +0.071 C 
ATOM     29  C   UNL     1      33.722 -19.391 -24.219  0.00  0.00    -0.060 C 
ATOM     30  C   UNL     1      34.244 -18.052 -24.739  0.00  0.00    +0.067 C 
ATOM     31  H   UNL     1      34.325 -20.911 -22.994  0.00  0.00    -0.084 HD
ATOM     32  H   UNL     1      35.549 -20.246 -23.916  0.00  0.00    -0.084 HD
ENDBRANCH   4  24
TORSDOF 2
ENDMDL
MODEL 5
REMARK VINA RESULT:      -9.5      7.813     15.274
REMARK  Name = 118513932
REMARK  2 active torsions:
REMARK  status: ('A' for Active; 'I' for Inactive)
REMARK    1  A    between atoms: C_4  and  N_24
REMARK    2  A    between atoms: C_10  and  C_15
REMARK                            x       y       z     vdW  Elec       q    Type
REMARK                         _______ _______ _______ _____ _____    ______ ____
ROOT
ATOM      1  O   UNL     1      30.841  -9.831 -22.510  0.00  0.00    -0.274 OA
ATOM      2  N   UNL     1      33.013  -9.380 -23.288  0.00  0.00    -0.209 N 
ATOM      3  N   UNL     1      34.545 -11.196 -23.530  0.00  0.00    -0.389 NA
ATOM      4  C   UNL     1      33.725  -7.150 -23.842  0.00  0.00    +0.063 C 
ATOM      5  C   UNL     1      32.789  -8.013 -23.411  0.00  0.00    +0.089 C 
ATOM      6  C   UNL     1      35.026  -7.681 -24.191  0.00  0.00    +0.020 C 
ATOM      7  C   UNL     1      35.304  -8.985 -24.095  0.00  0.00    +0.050 C 
ATOM      8  C   UNL     1      34.259  -9.931 -23.618  0.00  0.00    +0.193 C 
ATOM      9  C   UNL     1      31.971 -10.196 -22.829  0.00  0.00    +0.242 C 
ATOM     10  C   UNL     1      33.547 -12.016 -23.085  0.00  0.00    +0.139 C 
ATOM     11  C   UNL     1      32.314 -11.635 -22.736  0.00  0.00    +0.146 C 
ENDROOT
BRANCH  10  15
ATOM     12  N   UNL     1      34.137 -15.511 -23.767  0.00  0.00    -0.178 N 
ATOM     13  N   UNL     1      33.840 -14.213 -24.032  0.00  0.00    -0.173 NA
ATOM     14  N   UNL     1      34.669 -17.362 -22.648  0.00  0.00    -0.392 NA
ATOM     15  C   UNL     1      33.845 -13.447 -22.977  0.00  0.00    +0.124 C 
ATOM     16  C   UNL     1      34.144 -13.914 -21.589  0.00  0.00    +0.023 C 
ATOM     17  C   UNL     1      34.431 -15.215 -21.393  0.00  0.00    +0.025 C 
ATOM     18  C   UNL     1      34.430 -16.069 -22.536  0.00  0.00    +0.198 C 
ATOM     19  C   UNL     1      34.199 -16.518 -24.693  0.00  0.00    +0.173 C 
ATOM     20  C   UNL     1      34.528 -17.645 -23.981  0.00  0.00    +0.111 C 
ATOM     21  C   UNL     1      34.735 -15.710 -20.002  0.00  0.00    +0.035 C 
ATOM     22  C   UNL     1      34.725 -19.014 -24.481  0.00  0.00    +0.063 C 
ENDBRANCH  10  15
BRANCH   4  24
ATOM     23  N   UNL     1      32.519  -3.216 -24.686  0.00  0.00    +0.389 N 
ATOM     24  N   UNL     1      33.520  -5.807 -23.968  0.00  0.00    -0.311 N 
ATOM     25  C   UNL     1      33.411  -3.985 -25.592  0.00  0.00    -0.027 C 
ATOM     26  C   UNL     1      33.969  -3.277 -26.806  0.00  0.00    -0.020 C 
ATOM     27  C   UNL     1      32.907  -4.321 -26.980  0.00  0.00    -0.020 C 
ATOM     28  C   UNL     1      34.308  -4.986 -24.893  0.00  0.00    +0.071 C 
ATOM     29  C   UNL     1      31.728  -4.132 -23.861  0.00  0.00    -0.060 C 
ATOM     30  C   UNL     1      32.633  -5.070 -23.062  0.00  0.00    +0.067 C 
ATOM     31  H   UNL     1      31.893  -2.635 -25.241  0.00  0.00    -0.084 HD
ATOM     32  H   UNL     1      33.090  -2.629 -24.077  0.00  0.00    -0.084 HD
ENDBRANCH   4  24
TORSDOF 2
ENDMDL
MODEL 6
REMARK VINA RESULT:      -9.5      1.469      2.109
REMARK  Name = 118513932
REMARK  2 active torsions:
REMARK  status: ('A' for Active; 'I' for Inactive)
REMARK    1  A    between atoms: C_4  and  N_24
REMARK    2  A    between atoms: C_10  and  C_15
REMARK                            x       y       z     vdW  Elec       q    Type
REMARK                         _______ _______ _______ _____ _____    ______ ____
ROOT
ATOM      1  O   UNL     1      37.451 -21.793 -18.077  0.00  0.00    -0.274 OA
ATOM      2  N   UNL     1      35.120 -22.096 -18.027  0.00  0.00    -0.209 N 
ATOM      3  N   UNL     1      33.789 -21.040 -19.704  0.00  0.00    -0.389 NA
ATOM      4  C   UNL     1      34.051 -23.433 -16.337  0.00  0.00    +0.063 C 
ATOM      5  C   UNL     1      35.153 -22.905 -16.897  0.00  0.00    +0.089 C 
ATOM      6  C   UNL     1      32.773 -23.137 -16.949  0.00  0.00    +0.020 C 
ATOM      7  C   UNL     1      32.674 -22.366 -18.037  0.00  0.00    +0.050 C 
ATOM      8  C   UNL     1      33.902 -21.787 -18.648  0.00  0.00    +0.193 C 
ATOM      9  C   UNL     1      36.326 -21.593 -18.532  0.00  0.00    +0.242 C 
ATOM     10  C   UNL     1      34.950 -20.536 -20.221  0.00  0.00    +0.139 C 
ATOM     11  C   UNL     1      36.179 -20.744 -19.738  0.00  0.00    +0.146 C 
ENDROOT
BRANCH  10  15
ATOM     12  N   UNL     1      34.750 -17.748 -22.503  0.00  0.00    -0.178 N 
ATOM     13  N   UNL     1      34.848 -18.390 -21.311  0.00  0.00    -0.173 NA
ATOM     14  N   UNL     1      34.574 -17.397 -24.696  0.00  0.00    -0.392 NA
ATOM     15  C   UNL     1      34.849 -19.689 -21.413  0.00  0.00    +0.124 C 
ATOM     16  C   UNL     1      34.752 -20.441 -22.700  0.00  0.00    +0.023 C 
ATOM     17  C   UNL     1      34.657 -19.745 -23.849  0.00  0.00    +0.025 C 
ATOM     18  C   UNL     1      34.654 -18.321 -23.758  0.00  0.00    +0.198 C 
ATOM     19  C   UNL     1      34.728 -16.389 -22.676  0.00  0.00    +0.173 C 
ATOM     20  C   UNL     1      34.619 -16.199 -24.032  0.00  0.00    +0.111 C 
ATOM     21  C   UNL     1      34.558 -20.482 -25.160  0.00  0.00    +0.035 C 
ATOM     22  C   UNL     1      34.553 -14.930 -24.772  0.00  0.00    +0.063 C 
ENDBRANCH  10  15
BRANCH   4  24
ATOM     23  N   UNL     1      34.256 -25.241 -12.552  0.00  0.00    +0.389 N 
ATOM     24  N   UNL     1      34.068 -24.230 -15.229  0.00  0.00    -0.311 N 
ATOM     25  C   UNL     1      35.467 -24.967 -13.367  0.00  0.00    -0.027 C 
ATOM     26  C   UNL     1      36.801 -25.450 -12.841  0.00  0.00    -0.020 C 
ATOM     27  C   UNL     1      36.487 -23.984 -12.832  0.00  0.00    -0.020 C 
ATOM     28  C   UNL     1      35.244 -25.025 -14.865  0.00  0.00    +0.071 C 
ATOM     29  C   UNL     1      33.168 -24.344 -12.947  0.00  0.00    -0.060 C 
ATOM     30  C   UNL     1      32.860 -24.483 -14.438  0.00  0.00    +0.067 C 
ATOM     31  H   UNL     1      34.472 -25.096 -11.566  0.00  0.00    -0.084 HD
ATOM     32  H   UNL     1      33.963 -26.207 -12.704  0.00  0.00    -0.084 HD
ENDBRANCH   4  24
TORSDOF 2
ENDMDL
MODEL 7
REMARK VINA RESULT:      -9.1      8.159     15.340
REMARK  Name = 118513932
REMARK  2 active torsions:
REMARK  status: ('A' for Active; 'I' for Inactive)
REMARK    1  A    between atoms: C_4  and  N_24
REMARK    2  A    between atoms: C_10  and  C_15
REMARK                            x       y       z     vdW  Elec       q    Type
REMARK                         _______ _______ _______ _____ _____    ______ ____
ROOT
ATOM      1  O   UNL     1      35.743  -8.800 -24.131  0.00  0.00    -0.274 OA
ATOM      2  N   UNL     1      33.449  -8.988 -23.653  0.00  0.00    -0.209 N 
ATOM      3  N   UNL     1      32.552 -11.146 -23.164  0.00  0.00    -0.389 NA
ATOM      4  C   UNL     1      31.993  -7.073 -23.647  0.00  0.00    +0.063 C 
ATOM      5  C   UNL     1      33.208  -7.627 -23.804  0.00  0.00    +0.089 C 
ATOM      6  C   UNL     1      30.890  -7.946 -23.305  0.00  0.00    +0.020 C 
ATOM      7  C   UNL     1      31.057  -9.263 -23.146  0.00  0.00    +0.050 C 
ATOM      8  C   UNL     1      32.407  -9.864 -23.322  0.00  0.00    +0.193 C 
ATOM      9  C   UNL     1      34.752  -9.467 -23.840  0.00  0.00    +0.242 C 
ATOM     10  C   UNL     1      33.813 -11.641 -23.339  0.00  0.00    +0.139 C 
ATOM     11  C   UNL     1      34.900 -10.930 -23.655  0.00  0.00    +0.146 C 
ENDROOT
BRANCH  10  15
ATOM     12  N   UNL     1      34.171 -15.194 -23.869  0.00  0.00    -0.178 N 
ATOM     13  N   UNL     1      33.978 -13.889 -24.192  0.00  0.00    -0.173 NA
ATOM     14  N   UNL     1      34.529 -17.032 -22.663  0.00  0.00    -0.392 NA
ATOM     15  C   UNL     1      34.003 -13.085 -23.167  0.00  0.00    +0.124 C 
ATOM     16  C   UNL     1      34.219 -13.517 -21.753  0.00  0.00    +0.023 C 
ATOM     17  C   UNL     1      34.404 -14.826 -21.498  0.00  0.00    +0.025 C 
ATOM     18  C   UNL     1      34.380 -15.722 -22.608  0.00  0.00    +0.198 C 
ATOM     19  C   UNL     1      34.192 -16.238 -24.755  0.00  0.00    +0.173 C 
ATOM     20  C   UNL     1      34.413 -17.357 -23.990  0.00  0.00    +0.111 C 
ATOM     21  C   UNL     1      34.624 -15.286 -20.080  0.00  0.00    +0.035 C 
ATOM     22  C   UNL     1      34.528 -18.755 -24.430  0.00  0.00    +0.063 C 
ENDBRANCH  10  15
BRANCH   4  24
ATOM     23  N   UNL     1      31.894  -2.875 -23.754  0.00  0.00    +0.389 N 
ATOM     24  N   UNL     1      31.741  -5.739 -23.791  0.00  0.00    -0.311 N 
ATOM     25  C   UNL     1      31.486  -3.648 -22.553  0.00  0.00    -0.027 C 
ATOM     26  C   UNL     1      30.928  -2.884 -21.373  0.00  0.00    -0.020 C 
ATOM     27  C   UNL     1      32.298  -3.488 -21.285  0.00  0.00    -0.020 C 
ATOM     28  C   UNL     1      30.885  -5.006 -22.853  0.00  0.00    +0.071 C 
ATOM     29  C   UNL     1      32.803  -3.671 -24.581  0.00  0.00    -0.060 C 
ATOM     30  C   UNL     1      32.156  -4.996 -24.985  0.00  0.00    +0.067 C 
ATOM     31  H   UNL     1      32.365  -2.020 -23.462  0.00  0.00    -0.084 HD
ATOM     32  H   UNL     1      31.063  -2.645 -24.300  0.00  0.00    -0.084 HD
ENDBRANCH   4  24
TORSDOF 2
ENDMDL
MODEL 8
REMARK VINA RESULT:      -8.8      5.764     12.676
REMARK  Name = 118513932
REMARK  2 active torsions:
REMARK  status: ('A' for Active; 'I' for Inactive)
REMARK    1  A    between atoms: C_4  and  N_24
REMARK    2  A    between atoms: C_10  and  C_15
REMARK                            x       y       z     vdW  Elec       q    Type
REMARK                         _______ _______ _______ _____ _____    ______ ____
ROOT
ATOM      1  O   UNL     1      34.260 -12.499 -25.134  0.00  0.00    -0.274 OA
ATOM      2  N   UNL     1      33.179 -12.454 -23.047  0.00  0.00    -0.209 N 
ATOM      3  N   UNL     1      33.271 -14.399 -21.666  0.00  0.00    -0.389 NA
ATOM      4  C   UNL     1      31.991 -10.510 -22.275  0.00  0.00    +0.063 C 
ATOM      5  C   UNL     1      32.725 -11.149 -23.203  0.00  0.00    +0.089 C 
ATOM      6  C   UNL     1      31.664 -11.226 -21.059  0.00  0.00    +0.020 C 
ATOM      7  C   UNL     1      32.071 -12.482 -20.850  0.00  0.00    +0.050 C 
ATOM      8  C   UNL     1      32.883 -13.179 -21.884  0.00  0.00    +0.193 C 
ATOM      9  C   UNL     1      33.937 -13.031 -24.074  0.00  0.00    +0.242 C 
ATOM     10  C   UNL     1      34.013 -14.988 -22.650  0.00  0.00    +0.139 C 
ATOM     11  C   UNL     1      34.372 -14.423 -23.807  0.00  0.00    +0.146 C 
ENDROOT
BRANCH  10  15
ATOM     12  N   UNL     1      35.406 -18.014 -21.261  0.00  0.00    -0.178 N 
ATOM     13  N   UNL     1      35.052 -16.704 -21.315  0.00  0.00    -0.173 NA
ATOM     14  N   UNL     1      35.678 -20.147 -21.846  0.00  0.00    -0.392 NA
ATOM     15  C   UNL     1      34.462 -16.366 -22.427  0.00  0.00    +0.124 C 
ATOM     16  C   UNL     1      34.183 -17.299 -23.560  0.00  0.00    +0.023 C 
ATOM     17  C   UNL     1      34.559 -18.586 -23.445  0.00  0.00    +0.025 C 
ATOM     18  C   UNL     1      35.207 -18.977 -22.234  0.00  0.00    +0.198 C 
ATOM     19  C   UNL     1      36.036 -18.625 -20.210  0.00  0.00    +0.173 C 
ATOM     20  C   UNL     1      36.192 -19.935 -20.593  0.00  0.00    +0.111 C 
ATOM     21  C   UNL     1      34.289 -19.546 -24.574  0.00  0.00    +0.035 C 
ATOM     22  C   UNL     1      36.810 -21.038 -19.842  0.00  0.00    +0.063 C 
ENDBRANCH  10  15
BRANCH   4  24
ATOM     23  N   UNL     1      31.240  -6.459 -23.092  0.00  0.00    +0.389 N 
ATOM     24  N   UNL     1      31.539  -9.230 -22.413  0.00  0.00    -0.311 N 
ATOM     25  C   UNL     1      32.095  -6.895 -21.957  0.00  0.00    -0.027 C 
ATOM     26  C   UNL     1      32.625  -5.833 -21.019  0.00  0.00    -0.020 C 
ATOM     27  C   UNL     1      33.560  -6.514 -21.973  0.00  0.00    -0.020 C 
ATOM     28  C   UNL     1      31.708  -8.230 -21.354  0.00  0.00    +0.071 C 
ATOM     29  C   UNL     1      31.200  -7.499 -24.122  0.00  0.00    -0.060 C 
ATOM     30  C   UNL     1      30.698  -8.822 -23.543  0.00  0.00    +0.067 C 
ATOM     31  H   UNL     1      31.621  -5.603 -23.492  0.00  0.00    -0.084 HD
ATOM     32  H   UNL     1      30.293  -6.292 -22.750  0.00  0.00    -0.084 HD
ENDBRANCH   4  24
TORSDOF 2
ENDMDL
