MODEL 1
REMARK VINA RESULT:     -12.2      0.000      0.000
REMARK  Name = 446129
REMARK  7 active torsions:
REMARK  status: ('A' for Active; 'I' for Inactive)
REMARK    1  A    between atoms: C_1  and  O_2
REMARK    2  A    between atoms: C_1  and  C_4
REMARK    3  A    between atoms: C_1  and  C_18
REMARK    4  A    between atoms: C_4  and  N_5
REMARK    5  A    between atoms: C_18  and  O_19
REMARK    6  A    between atoms: O_19  and  C_23
REMARK    7  A    between atoms: C_20  and  C_26
REMARK                            x       y       z     vdW  Elec       q    Type
REMARK                         _______ _______ _______ _____ _____    ______ ____
ROOT
ATOM      1  C   UNL     1      33.669 -15.613 -24.024  0.00  0.00    +0.133 C 
ENDROOT
BRANCH   1   2
ATOM      2  O   UNL     1      32.892 -15.395 -25.205  0.00  0.00    -0.383 OA
ATOM      3  H   UNL     1      33.050 -16.116 -25.834  0.00  0.00    +0.210 HD
ENDBRANCH   1   2
BRANCH   1   4
ATOM      4  C   UNL     1      34.986 -16.275 -24.435  0.00  0.00    -0.043 C 
BRANCH   4   5
ATOM      5  N   UNL     1      35.281 -17.460 -23.631  0.00  0.00    +0.391 N 
ATOM      6  N   UNL     1      34.883 -19.348 -21.525  0.00  0.00    -0.298 N 
ATOM      7  C   UNL     1      34.166 -18.412 -23.688  0.00  0.00    -0.055 C 
ATOM      8  C   UNL     1      35.546 -17.084 -22.237  0.00  0.00    -0.055 C 
ATOM      9  C   UNL     1      34.485 -19.682 -22.896  0.00  0.00    +0.069 C 
ATOM     10  C   UNL     1      35.913 -18.309 -21.397  0.00  0.00    +0.069 C 
ATOM     11  H   UNL     1      36.115 -17.906 -24.016  0.00  0.00    -0.079 HD
ATOM     12  N   UNL     1      35.926 -20.694 -19.838  0.00  0.00    -0.229 NA
ATOM     13  C   UNL     1      34.801 -20.320 -20.521  0.00  0.00    +0.132 C 
ATOM     14  C   UNL     1      33.551 -20.889 -20.243  0.00  0.00    +0.034 C 
ATOM     15  C   UNL     1      33.454 -21.857 -19.249  0.00  0.00    +0.004 C 
ATOM     16  C   UNL     1      35.793 -21.638 -18.879  0.00  0.00    +0.100 C 
ATOM     17  C   UNL     1      34.591 -22.243 -18.549  0.00  0.00    +0.021 C 
ENDBRANCH   4   5
ENDBRANCH   1   4
BRANCH   1  18
ATOM     18  C   UNL     1      33.862 -14.275 -23.312  0.00  0.00    +0.232 C 
BRANCH  18  19
ATOM     19  O   UNL     1      32.698 -13.991 -22.542  0.00  0.00    -0.473 OA
BRANCH  19  23
ATOM     20  C   UNL     1      31.996 -10.006 -21.617  0.00  0.00    -0.022 C 
ATOM     21  C   UNL     1      32.655 -10.342 -22.800  0.00  0.00    -0.001 C 
ATOM     22  C   UNL     1      31.574 -11.009 -20.745  0.00  0.00    -0.001 C 
ATOM     23  C   UNL     1      32.467 -12.677 -22.237  0.00  0.00    +0.139 C 
ATOM     24  C   UNL     1      32.890 -11.681 -23.111  0.00  0.00    +0.037 C 
ATOM     25  C   UNL     1      31.811 -12.349 -21.056  0.00  0.00    +0.037 C 
BRANCH  20  26
ATOM     26  C   UNL     1      31.741  -8.549 -21.279  0.00  0.00    +0.022 C 
ATOM     27  C   UNL     1      33.005  -7.854 -20.745  0.00  0.00    +0.004 C 
ATOM     28  C   UNL     1      31.152  -7.779 -22.473  0.00  0.00    +0.004 C 
ATOM     29  C   UNL     1      32.735  -6.390 -20.399  0.00  0.00    +0.000 C 
ATOM     30  C   UNL     1      30.889  -6.316 -22.120  0.00  0.00    +0.000 C 
ATOM     31  C   UNL     1      32.143  -5.632 -21.583  0.00  0.00    +0.000 C 
ENDBRANCH  20  26
ENDBRANCH  19  23
ENDBRANCH  18  19
ENDBRANCH   1  18
TORSDOF 7
ENDMDL
MODEL 2
REMARK VINA RESULT:     -12.0      2.916     11.054
REMARK  Name = 446129
REMARK  7 active torsions:
REMARK  status: ('A' for Active; 'I' for Inactive)
REMARK    1  A    between atoms: C_1  and  O_2
REMARK    2  A    between atoms: C_1  and  C_4
REMARK    3  A    between atoms: C_1  and  C_18
REMARK    4  A    between atoms: C_4  and  N_5
REMARK    5  A    between atoms: C_18  and  O_19
REMARK    6  A    between atoms: O_19  and  C_23
REMARK    7  A    between atoms: C_20  and  C_26
REMARK                            x       y       z     vdW  Elec       q    Type
REMARK                         _______ _______ _______ _____ _____    ______ ____
ROOT
ATOM      1  C   UNL     1      35.414 -18.005 -22.281  0.00  0.00    +0.133 C 
ENDROOT
BRANCH   1   2
ATOM      2  O   UNL     1      36.815 -18.270 -22.389  0.00  0.00    -0.383 OA
ATOM      3  H   UNL     1      37.276 -17.893 -21.623  0.00  0.00    +0.210 HD
ENDBRANCH   1   2
BRANCH   1   4
ATOM      4  C   UNL     1      34.953 -17.337 -23.578  0.00  0.00    -0.043 C 
BRANCH   4   5
ATOM      5  N   UNL     1      34.735 -15.900 -23.410  0.00  0.00    +0.391 N 
ATOM      6  N   UNL     1      33.280 -13.549 -22.695  0.00  0.00    -0.298 N 
ATOM      7  C   UNL     1      34.495 -15.576 -21.999  0.00  0.00    -0.055 C 
ATOM      8  C   UNL     1      33.600 -15.453 -24.226  0.00  0.00    -0.055 C 
ATOM      9  C   UNL     1      34.322 -14.068 -21.803  0.00  0.00    +0.069 C 
ATOM     10  C   UNL     1      33.397 -13.941 -24.105  0.00  0.00    +0.069 C 
ATOM     11  H   UNL     1      35.576 -15.413 -23.722  0.00  0.00    -0.079 HD
ATOM     12  N   UNL     1      32.728 -11.293 -23.291  0.00  0.00    -0.229 NA
ATOM     13  C   UNL     1      32.658 -12.330 -22.401  0.00  0.00    +0.132 C 
ATOM     14  C   UNL     1      31.972 -12.207 -21.184  0.00  0.00    +0.034 C 
ATOM     15  C   UNL     1      31.349 -11.002 -20.877  0.00  0.00    +0.004 C 
ATOM     16  C   UNL     1      32.111 -10.137 -22.958  0.00  0.00    +0.100 C 
ATOM     17  C   UNL     1      31.415  -9.943 -21.776  0.00  0.00    +0.021 C 
ENDBRANCH   4   5
ENDBRANCH   1   4
BRANCH   1  18
ATOM     18  C   UNL     1      34.689 -19.317 -21.986  0.00  0.00    +0.232 C 
BRANCH  18  19
ATOM     19  O   UNL     1      35.573 -20.183 -21.281  0.00  0.00    -0.473 OA
BRANCH  19  23
ATOM     20  C   UNL     1      33.915 -22.464 -18.235  0.00  0.00    -0.022 C 
ATOM     21  C   UNL     1      33.091 -21.701 -19.063  0.00  0.00    -0.001 C 
ATOM     22  C   UNL     1      35.296 -22.459 -18.431  0.00  0.00    -0.001 C 
ATOM     23  C   UNL     1      35.026 -20.935 -20.276  0.00  0.00    +0.139 C 
ATOM     24  C   UNL     1      33.648 -20.935 -20.086  0.00  0.00    +0.037 C 
ATOM     25  C   UNL     1      35.853 -21.692 -19.454  0.00  0.00    +0.037 C 
BRANCH  20  26
ATOM     26  C   UNL     1      33.309 -23.297 -17.121  0.00  0.00    +0.022 C 
ATOM     27  C   UNL     1      34.186 -23.290 -15.857  0.00  0.00    +0.004 C 
ATOM     28  C   UNL     1      31.871 -22.858 -16.796  0.00  0.00    +0.004 C 
ATOM     29  C   UNL     1      33.571 -24.138 -14.745  0.00  0.00    +0.000 C 
ATOM     30  C   UNL     1      31.265 -23.708 -15.681  0.00  0.00    +0.000 C 
ATOM     31  C   UNL     1      32.141 -23.705 -14.432  0.00  0.00    +0.000 C 
ENDBRANCH  20  26
ENDBRANCH  19  23
ENDBRANCH  18  19
ENDBRANCH   1  18
TORSDOF 7
ENDMDL
MODEL 3
REMARK VINA RESULT:     -11.7      0.744      1.664
REMARK  Name = 446129
REMARK  7 active torsions:
REMARK  status: ('A' for Active; 'I' for Inactive)
REMARK    1  A    between atoms: C_1  and  O_2
REMARK    2  A    between atoms: C_1  and  C_4
REMARK    3  A    between atoms: C_1  and  C_18
REMARK    4  A    between atoms: C_4  and  N_5
REMARK    5  A    between atoms: C_18  and  O_19
REMARK    6  A    between atoms: O_19  and  C_23
REMARK    7  A    between atoms: C_20  and  C_26
REMARK                            x       y       z     vdW  Elec       q    Type
REMARK                         _______ _______ _______ _____ _____    ______ ____
ROOT
ATOM      1  C   UNL     1      33.755 -15.573 -24.721  0.00  0.00    +0.133 C 
ENDROOT
BRANCH   1   2
ATOM      2  O   UNL     1      33.810 -15.113 -26.074  0.00  0.00    -0.383 OA
ATOM      3  H   UNL     1      32.995 -14.631 -26.285  0.00  0.00    +0.210 HD
ENDBRANCH   1   2
BRANCH   1   4
ATOM      4  C   UNL     1      34.727 -16.747 -24.577  0.00  0.00    -0.043 C 
BRANCH   4   5
ATOM      5  N   UNL     1      34.471 -17.528 -23.367  0.00  0.00    +0.391 N 
ATOM      6  N   UNL     1      35.007 -19.508 -21.379  0.00  0.00    -0.298 N 
ATOM      7  C   UNL     1      35.542 -17.324 -22.385  0.00  0.00    -0.055 C 
ATOM      8  C   UNL     1      34.356 -18.955 -23.691  0.00  0.00    -0.055 C 
ATOM      9  C   UNL     1      35.257 -18.092 -21.092  0.00  0.00    +0.069 C 
ATOM     10  C   UNL     1      34.031 -19.778 -22.442  0.00  0.00    +0.069 C 
ATOM     11  H   UNL     1      33.589 -17.210 -22.964  0.00  0.00    -0.079 HD
ATOM     12  N   UNL     1      34.087 -21.234 -19.994  0.00  0.00    -0.229 NA
ATOM     13  C   UNL     1      35.152 -20.459 -20.363  0.00  0.00    +0.132 C 
ATOM     14  C   UNL     1      36.403 -20.590 -19.744  0.00  0.00    +0.034 C 
ATOM     15  C   UNL     1      36.563 -21.530 -18.731  0.00  0.00    +0.004 C 
ATOM     16  C   UNL     1      34.279 -22.138 -19.006  0.00  0.00    +0.100 C 
ATOM     17  C   UNL     1      35.486 -22.322 -18.350  0.00  0.00    +0.021 C 
ENDBRANCH   4   5
ENDBRANCH   1   4
BRANCH   1  18
ATOM     18  C   UNL     1      34.078 -14.404 -23.793  0.00  0.00    +0.232 C 
BRANCH  18  19
ATOM     19  O   UNL     1      32.984 -14.206 -22.903  0.00  0.00    -0.473 OA
BRANCH  19  23
ATOM     20  C   UNL     1      32.042 -10.278 -21.951  0.00  0.00    -0.022 C 
ATOM     21  C   UNL     1      31.593 -11.319 -21.138  0.00  0.00    -0.001 C 
ATOM     22  C   UNL     1      32.806 -10.557 -23.084  0.00  0.00    -0.001 C 
ATOM     23  C   UNL     1      32.673 -12.911 -22.589  0.00  0.00    +0.139 C 
ATOM     24  C   UNL     1      31.910 -12.639 -21.458  0.00  0.00    +0.037 C 
ATOM     25  C   UNL     1      33.122 -11.877 -23.404  0.00  0.00    +0.037 C 
BRANCH  20  26
ATOM     26  C   UNL     1      31.696  -8.842 -21.603  0.00  0.00    +0.022 C 
ATOM     27  C   UNL     1      32.770  -8.191 -20.714  0.00  0.00    +0.004 C 
ATOM     28  C   UNL     1      31.436  -7.995 -22.861  0.00  0.00    +0.004 C 
ATOM     29  C   UNL     1      32.408  -6.750 -20.363  0.00  0.00    +0.000 C 
ATOM     30  C   UNL     1      31.079  -6.554 -22.501  0.00  0.00    +0.000 C 
ATOM     31  C   UNL     1      32.142  -5.915 -21.613  0.00  0.00    +0.000 C 
ENDBRANCH  20  26
ENDBRANCH  19  23
ENDBRANCH  18  19
ENDBRANCH   1  18
TORSDOF 7
ENDMDL
MODEL 4
REMARK VINA RESULT:     -11.6      2.853     10.877
REMARK  Name = 446129
REMARK  7 active torsions:
REMARK  status: ('A' for Active; 'I' for Inactive)
REMARK    1  A    between atoms: C_1  and  O_2
REMARK    2  A    between atoms: C_1  and  C_4
REMARK    3  A    between atoms: C_1  and  C_18
REMARK    4  A    between atoms: C_4  and  N_5
REMARK    5  A    between atoms: C_18  and  O_19
REMARK    6  A    between atoms: O_19  and  C_23
REMARK    7  A    between atoms: C_20  and  C_26
REMARK                            x       y       z     vdW  Elec       q    Type
REMARK                         _______ _______ _______ _____ _____    ______ ____
ROOT
ATOM      1  C   UNL     1      33.530 -14.403 -24.766  0.00  0.00    +0.133 C 
ENDROOT
BRANCH   1   2
ATOM      2  O   UNL     1      32.399 -14.212 -25.620  0.00  0.00    -0.383 OA
ATOM      3  H   UNL     1      32.143 -15.060 -26.014  0.00  0.00    +0.210 HD
ENDBRANCH   1   2
BRANCH   1   4
ATOM      4  C   UNL     1      33.175 -13.869 -23.377  0.00  0.00    -0.043 C 
BRANCH   4   5
ATOM      5  N   UNL     1      32.753 -12.469 -23.416  0.00  0.00    +0.391 N 
ATOM      6  N   UNL     1      32.505  -9.792 -22.453  0.00  0.00    -0.298 N 
ATOM      7  C   UNL     1      33.919 -11.578 -23.391  0.00  0.00    -0.055 C 
ATOM      8  C   UNL     1      31.867 -12.167 -22.285  0.00  0.00    -0.055 C 
ATOM      9  C   UNL     1      33.493 -10.111 -23.489  0.00  0.00    +0.069 C 
ATOM     10  C   UNL     1      31.372 -10.719 -22.347  0.00  0.00    +0.069 C 
ATOM     11  H   UNL     1      32.240 -12.316 -24.285  0.00  0.00    -0.079 HD
ATOM     12  N   UNL     1      31.066  -7.890 -22.214  0.00  0.00    -0.229 NA
ATOM     13  C   UNL     1      32.302  -8.460 -22.074  0.00  0.00    +0.132 C 
ATOM     14  C   UNL     1      33.388  -7.739 -21.557  0.00  0.00    +0.034 C 
ATOM     15  C   UNL     1      33.201  -6.414 -21.178  0.00  0.00    +0.004 C 
ATOM     16  C   UNL     1      30.923  -6.600 -21.834  0.00  0.00    +0.100 C 
ATOM     17  C   UNL     1      31.949  -5.827 -21.315  0.00  0.00    +0.021 C 
ENDBRANCH   4   5
ENDBRANCH   1   4
BRANCH   1  18
ATOM     18  C   UNL     1      33.898 -15.886 -24.767  0.00  0.00    +0.232 C 
BRANCH  18  19
ATOM     19  O   UNL     1      35.006 -16.086 -23.895  0.00  0.00    -0.473 OA
BRANCH  19  23
ATOM     20  C   UNL     1      34.940 -19.508 -21.547  0.00  0.00    -0.022 C 
ATOM     21  C   UNL     1      34.555 -19.573 -22.885  0.00  0.00    -0.001 C 
ATOM     22  C   UNL     1      35.347 -18.292 -20.997  0.00  0.00    -0.001 C 
ATOM     23  C   UNL     1      34.983 -17.214 -23.120  0.00  0.00    +0.139 C 
ATOM     24  C   UNL     1      34.577 -18.424 -23.675  0.00  0.00    +0.037 C 
ATOM     25  C   UNL     1      35.368 -17.142 -21.786  0.00  0.00    +0.037 C 
BRANCH  20  26
ATOM     26  C   UNL     1      34.915 -20.758 -20.688  0.00  0.00    +0.022 C 
ATOM     27  C   UNL     1      36.114 -20.819 -19.725  0.00  0.00    +0.004 C 
ATOM     28  C   UNL     1      33.588 -20.901 -19.924  0.00  0.00    +0.004 C 
ATOM     29  C   UNL     1      36.084 -22.086 -18.873  0.00  0.00    +0.000 C 
ATOM     30  C   UNL     1      33.567 -22.168 -19.070  0.00  0.00    +0.000 C 
ATOM     31  C   UNL     1      34.762 -22.228 -18.123  0.00  0.00    +0.000 C 
ENDBRANCH  20  26
ENDBRANCH  19  23
ENDBRANCH  18  19
ENDBRANCH   1  18
TORSDOF 7
ENDMDL
MODEL 5
REMARK VINA RESULT:     -11.5      2.977     11.098
REMARK  Name = 446129
REMARK  7 active torsions:
REMARK  status: ('A' for Active; 'I' for Inactive)
REMARK    1  A    between atoms: C_1  and  O_2
REMARK    2  A    between atoms: C_1  and  C_4
REMARK    3  A    between atoms: C_1  and  C_18
REMARK    4  A    between atoms: C_4  and  N_5
REMARK    5  A    between atoms: C_18  and  O_19
REMARK    6  A    between atoms: O_19  and  C_23
REMARK    7  A    between atoms: C_20  and  C_26
REMARK                            x       y       z     vdW  Elec       q    Type
REMARK                         _______ _______ _______ _____ _____    ______ ____
ROOT
ATOM      1  C   UNL     1      33.397 -13.853 -23.771  0.00  0.00    +0.133 C 
ENDROOT
BRANCH   1   2
ATOM      2  O   UNL     1      32.692 -14.728 -24.656  0.00  0.00    -0.383 OA
ATOM      3  H   UNL     1      31.755 -14.479 -24.678  0.00  0.00    +0.210 HD
ENDBRANCH   1   2
BRANCH   1   4
ATOM      4  C   UNL     1      32.418 -13.369 -22.698  0.00  0.00    -0.043 C 
BRANCH   4   5
ATOM      5  N   UNL     1      32.674 -11.984 -22.304  0.00  0.00    +0.391 N 
ATOM      6  N   UNL     1      32.228  -9.164 -22.248  0.00  0.00    -0.298 N 
ATOM      7  C   UNL     1      31.518 -11.429 -21.590  0.00  0.00    -0.055 C 
ATOM      8  C   UNL     1      32.977 -11.162 -23.481  0.00  0.00    -0.055 C 
ATOM      9  C   UNL     1      31.795  -9.998 -21.123  0.00  0.00    +0.069 C 
ATOM     10  C   UNL     1      33.303  -9.722 -23.077  0.00  0.00    +0.069 C 
ATOM     11  H   UNL     1      33.482 -11.976 -21.680  0.00  0.00    -0.079 HD
ATOM     12  N   UNL     1      33.238  -6.990 -22.270  0.00  0.00    -0.229 NA
ATOM     13  C   UNL     1      32.120  -7.771 -22.161  0.00  0.00    +0.132 C 
ATOM     14  C   UNL     1      30.850  -7.210 -21.962  0.00  0.00    +0.034 C 
ATOM     15  C   UNL     1      30.727  -5.828 -21.873  0.00  0.00    +0.004 C 
ATOM     16  C   UNL     1      33.079  -5.650 -22.179  0.00  0.00    +0.100 C 
ATOM     17  C   UNL     1      31.858  -5.026 -21.983  0.00  0.00    +0.021 C 
ENDBRANCH   4   5
ENDBRANCH   1   4
BRANCH   1  18
ATOM     18  C   UNL     1      34.600 -14.601 -23.198  0.00  0.00    +0.232 C 
BRANCH  18  19
ATOM     19  O   UNL     1      34.769 -15.819 -23.917  0.00  0.00    -0.473 OA
BRANCH  19  23
ATOM     20  C   UNL     1      34.984 -19.299 -21.665  0.00  0.00    -0.022 C 
ATOM     21  C   UNL     1      34.563 -19.354 -22.994  0.00  0.00    -0.001 C 
ATOM     22  C   UNL     1      35.331 -18.076 -21.093  0.00  0.00    -0.001 C 
ATOM     23  C   UNL     1      34.839 -16.967 -23.174  0.00  0.00    +0.139 C 
ATOM     24  C   UNL     1      34.491 -18.184 -23.751  0.00  0.00    +0.037 C 
ATOM     25  C   UNL     1      35.258 -16.906 -21.850  0.00  0.00    +0.037 C 
BRANCH  20  26
ATOM     26  C   UNL     1      35.061 -20.571 -20.842  0.00  0.00    +0.022 C 
ATOM     27  C   UNL     1      36.311 -20.600 -19.945  0.00  0.00    +0.004 C 
ATOM     28  C   UNL     1      33.784 -20.795 -20.013  0.00  0.00    +0.004 C 
ATOM     29  C   UNL     1      36.384 -21.889 -19.128  0.00  0.00    +0.000 C 
ATOM     30  C   UNL     1      33.867 -22.084 -19.196  0.00  0.00    +0.000 C 
ATOM     31  C   UNL     1      35.112 -22.112 -18.314  0.00  0.00    +0.000 C 
ENDBRANCH  20  26
ENDBRANCH  19  23
ENDBRANCH  18  19
ENDBRANCH   1  18
TORSDOF 7
ENDMDL
MODEL 6
REMARK VINA RESULT:     -11.3      6.612     10.095
REMARK  Name = 446129
REMARK  7 active torsions:
REMARK  status: ('A' for Active; 'I' for Inactive)
REMARK    1  A    between atoms: C_1  and  O_2
REMARK    2  A    between atoms: C_1  and  C_4
REMARK    3  A    between atoms: C_1  and  C_18
REMARK    4  A    between atoms: C_4  and  N_5
REMARK    5  A    between atoms: C_18  and  O_19
REMARK    6  A    between atoms: O_19  and  C_23
REMARK    7  A    between atoms: C_20  and  C_26
REMARK                            x       y       z     vdW  Elec       q    Type
REMARK                         _______ _______ _______ _____ _____    ______ ____
ROOT
ATOM      1  C   UNL     1      37.240 -22.994 -15.709  0.00  0.00    +0.133 C 
ENDROOT
BRANCH   1   2
ATOM      2  O   UNL     1      37.586 -22.422 -14.446  0.00  0.00    -0.383 OA
ATOM      3  H   UNL     1      36.778 -22.194 -13.961  0.00  0.00    +0.210 HD
ENDBRANCH   1   2
BRANCH   1   4
ATOM      4  C   UNL     1      36.202 -24.092 -15.467  0.00  0.00    -0.043 C 
BRANCH   4   5
ATOM      5  N   UNL     1      34.835 -23.573 -15.497  0.00  0.00    +0.391 N 
ATOM      6  N   UNL     1      31.986 -23.735 -15.622  0.00  0.00    -0.298 N 
ATOM      7  C   UNL     1      34.068 -24.073 -14.350  0.00  0.00    -0.055 C 
ATOM      8  C   UNL     1      34.167 -23.953 -16.748  0.00  0.00    -0.055 C 
ATOM      9  C   UNL     1      32.652 -23.492 -14.339  0.00  0.00    +0.069 C 
ATOM     10  C   UNL     1      32.755 -23.368 -16.817  0.00  0.00    +0.069 C 
ATOM     11  H   UNL     1      34.881 -22.555 -15.445  0.00  0.00    -0.079 HD
ATOM     12  N   UNL     1      29.979 -22.793 -16.533  0.00  0.00    -0.229 NA
ATOM     13  C   UNL     1      30.589 -23.690 -15.699  0.00  0.00    +0.132 C 
ATOM     14  C   UNL     1      29.847 -24.577 -14.907  0.00  0.00    +0.034 C 
ATOM     15  C   UNL     1      28.458 -24.543 -14.972  0.00  0.00    +0.004 C 
ATOM     16  C   UNL     1      28.627 -22.789 -16.569  0.00  0.00    +0.100 C 
ATOM     17  C   UNL     1      27.829 -23.635 -15.817  0.00  0.00    +0.021 C 
ENDBRANCH   4   5
ENDBRANCH   1   4
BRANCH   1  18
ATOM     18  C   UNL     1      36.740 -21.882 -16.630  0.00  0.00    +0.232 C 
BRANCH  18  19
ATOM     19  O   UNL     1      36.603 -22.403 -17.948  0.00  0.00    -0.473 OA
BRANCH  19  23
ATOM     20  C   UNL     1      35.152 -19.802 -20.839  0.00  0.00    -0.022 C 
ATOM     21  C   UNL     1      34.291 -20.708 -20.221  0.00  0.00    -0.001 C 
ATOM     22  C   UNL     1      36.501 -19.770 -20.486  0.00  0.00    -0.001 C 
ATOM     23  C   UNL     1      36.124 -21.546 -18.902  0.00  0.00    +0.139 C 
ATOM     24  C   UNL     1      34.778 -21.582 -19.250  0.00  0.00    +0.037 C 
ATOM     25  C   UNL     1      36.989 -20.645 -19.515  0.00  0.00    +0.037 C 
BRANCH  20  26
ATOM     26  C   UNL     1      34.622 -18.852 -21.896  0.00  0.00    +0.022 C 
ATOM     27  C   UNL     1      35.402 -17.525 -21.920  0.00  0.00    +0.004 C 
ATOM     28  C   UNL     1      34.598 -19.502 -23.290  0.00  0.00    +0.004 C 
ATOM     29  C   UNL     1      34.854 -16.573 -22.981  0.00  0.00    +0.000 C 
ATOM     30  C   UNL     1      34.054 -18.542 -24.346  0.00  0.00    +0.000 C 
ATOM     31  C   UNL     1      34.824 -17.225 -24.361  0.00  0.00    +0.000 C 
ENDBRANCH  20  26
ENDBRANCH  19  23
ENDBRANCH  18  19
ENDBRANCH   1  18
TORSDOF 7
ENDMDL
MODEL 7
REMARK VINA RESULT:     -11.3      2.880     11.074
REMARK  Name = 446129
REMARK  7 active torsions:
REMARK  status: ('A' for Active; 'I' for Inactive)
REMARK    1  A    between atoms: C_1  and  O_2
REMARK    2  A    between atoms: C_1  and  C_4
REMARK    3  A    between atoms: C_1  and  C_18
REMARK    4  A    between atoms: C_4  and  N_5
REMARK    5  A    between atoms: C_18  and  O_19
REMARK    6  A    between atoms: O_19  and  C_23
REMARK    7  A    between atoms: C_20  and  C_26
REMARK                            x       y       z     vdW  Elec       q    Type
REMARK                         _______ _______ _______ _____ _____    ______ ____
ROOT
ATOM      1  C   UNL     1      35.075 -19.101 -23.064  0.00  0.00    +0.133 C 
ENDROOT
BRANCH   1   2
ATOM      2  O   UNL     1      34.137 -19.044 -24.141  0.00  0.00    -0.383 OA
ATOM      3  H   UNL     1      33.920 -18.118 -24.333  0.00  0.00    +0.210 HD
ENDBRANCH   1   2
BRANCH   1   4
ATOM      4  C   UNL     1      35.660 -17.701 -22.865  0.00  0.00    -0.043 C 
BRANCH   4   5
ATOM      5  N   UNL     1      34.617 -16.681 -22.753  0.00  0.00    +0.391 N 
ATOM      6  N   UNL     1      33.570 -14.027 -22.614  0.00  0.00    -0.298 N 
ATOM      7  C   UNL     1      34.603 -15.824 -23.945  0.00  0.00    -0.055 C 
ATOM      8  C   UNL     1      34.826 -15.862 -21.552  0.00  0.00    -0.055 C 
ATOM      9  C   UNL     1      33.480 -14.788 -23.865  0.00  0.00    +0.069 C 
ATOM     10  C   UNL     1      33.710 -14.827 -21.392  0.00  0.00    +0.069 C 
ATOM     11  H   UNL     1      33.717 -17.154 -22.676  0.00  0.00    -0.079 HD
ATOM     12  N   UNL     1      31.982 -12.568 -21.567  0.00  0.00    -0.229 NA
ATOM     13  C   UNL     1      32.946 -12.778 -22.515  0.00  0.00    +0.132 C 
ATOM     14  C   UNL     1      33.333 -11.765 -23.404  0.00  0.00    +0.034 C 
ATOM     15  C   UNL     1      32.721 -10.519 -23.318  0.00  0.00    +0.004 C 
ATOM     16  C   UNL     1      31.410 -11.344 -21.513  0.00  0.00    +0.100 C 
ATOM     17  C   UNL     1      31.741 -10.297 -22.357  0.00  0.00    +0.021 C 
ENDBRANCH   4   5
ENDBRANCH   1   4
BRANCH   1  18
ATOM     18  C   UNL     1      34.365 -19.641 -21.824  0.00  0.00    +0.232 C 
BRANCH  18  19
ATOM     19  O   UNL     1      35.330 -20.240 -20.965  0.00  0.00    -0.473 OA
BRANCH  19  23
ATOM     20  C   UNL     1      33.870 -22.624 -17.897  0.00  0.00    -0.022 C 
ATOM     21  C   UNL     1      35.245 -22.446 -18.047  0.00  0.00    -0.001 C 
ATOM     22  C   UNL     1      32.986 -22.003 -18.779  0.00  0.00    -0.001 C 
ATOM     23  C   UNL     1      34.848 -21.027 -19.953  0.00  0.00    +0.139 C 
ATOM     24  C   UNL     1      35.736 -21.644 -19.078  0.00  0.00    +0.037 C 
ATOM     25  C   UNL     1      33.476 -21.202 -19.810  0.00  0.00    +0.037 C 
BRANCH  20  26
ATOM     26  C   UNL     1      33.336 -23.497 -16.776  0.00  0.00    +0.022 C 
ATOM     27  C   UNL     1      34.236 -23.444 -15.529  0.00  0.00    +0.004 C 
ATOM     28  C   UNL     1      31.882 -23.146 -16.420  0.00  0.00    +0.004 C 
ATOM     29  C   UNL     1      33.695 -24.333 -14.411  0.00  0.00    +0.000 C 
ATOM     30  C   UNL     1      31.350 -24.036 -15.298  0.00  0.00    +0.000 C 
ATOM     31  C   UNL     1      32.249 -23.987 -14.067  0.00  0.00    +0.000 C 
ENDBRANCH  20  26
ENDBRANCH  19  23
ENDBRANCH  18  19
ENDBRANCH   1  18
TORSDOF 7
ENDMDL
MODEL 8
REMARK VINA RESULT:     -11.0      3.493     11.320
REMARK  Name = 446129
REMARK  7 active torsions:
REMARK  status: ('A' for Active; 'I' for Inactive)
REMARK    1  A    between atoms: C_1  and  O_2
REMARK    2  A    between atoms: C_1  and  C_4
REMARK    3  A    between atoms: C_1  and  C_18
REMARK    4  A    between atoms: C_4  and  N_5
REMARK    5  A    between atoms: C_18  and  O_19
REMARK    6  A    between atoms: O_19  and  C_23
REMARK    7  A    between atoms: C_20  and  C_26
REMARK                            x       y       z     vdW  Elec       q    Type
REMARK                         _______ _______ _______ _____ _____    ______ ____
ROOT
ATOM      1  C   UNL     1      36.147 -19.122 -20.670  0.00  0.00    +0.133 C 
ENDROOT
BRANCH   1   2
ATOM      2  O   UNL     1      37.453 -19.025 -20.095  0.00  0.00    -0.383 OA
ATOM      3  H   UNL     1      38.077 -18.700 -20.763  0.00  0.00    +0.210 HD
ENDBRANCH   1   2
BRANCH   1   4
ATOM      4  C   UNL     1      36.165 -18.404 -22.021  0.00  0.00    -0.043 C 
BRANCH   4   5
ATOM      5  N   UNL     1      35.115 -17.391 -22.120  0.00  0.00    +0.391 N 
ATOM      6  N   UNL     1      34.052 -14.748 -22.326  0.00  0.00    -0.298 N 
ATOM      7  C   UNL     1      35.246 -16.633 -23.370  0.00  0.00    -0.055 C 
ATOM      8  C   UNL     1      35.172 -16.476 -20.973  0.00  0.00    -0.055 C 
ATOM      9  C   UNL     1      34.119 -15.607 -23.512  0.00  0.00    +0.069 C 
ATOM     10  C   UNL     1      34.042 -15.446 -21.035  0.00  0.00    +0.069 C 
ATOM     11  H   UNL     1      34.213 -17.867 -22.116  0.00  0.00    -0.079 HD
ATOM     12  N   UNL     1      32.343 -13.230 -21.602  0.00  0.00    -0.229 NA
ATOM     13  C   UNL     1      33.417 -13.503 -22.405  0.00  0.00    +0.132 C 
ATOM     14  C   UNL     1      33.908 -12.559 -23.319  0.00  0.00    +0.034 C 
ATOM     15  C   UNL     1      33.287 -11.318 -23.410  0.00  0.00    +0.004 C 
ATOM     16  C   UNL     1      31.766 -12.013 -21.719  0.00  0.00    +0.100 C 
ATOM     17  C   UNL     1      32.196 -11.032 -22.598  0.00  0.00    +0.021 C 
ENDBRANCH   4   5
ENDBRANCH   1   4
BRANCH   1  18
ATOM     18  C   UNL     1      35.768 -20.599 -20.776  0.00  0.00    +0.232 C 
BRANCH  18  19
ATOM     19  O   UNL     1      36.366 -21.306 -19.694  0.00  0.00    -0.473 OA
BRANCH  19  23
ATOM     20  C   UNL     1      33.786 -23.072 -16.965  0.00  0.00    -0.022 C 
ATOM     21  C   UNL     1      33.324 -22.718 -18.232  0.00  0.00    -0.001 C 
ATOM     22  C   UNL     1      35.115 -22.832 -16.614  0.00  0.00    -0.001 C 
ATOM     23  C   UNL     1      35.515 -21.888 -18.794  0.00  0.00    +0.139 C 
ATOM     24  C   UNL     1      34.191 -22.125 -19.150  0.00  0.00    +0.037 C 
ATOM     25  C   UNL     1      35.981 -22.238 -17.532  0.00  0.00    +0.037 C 
BRANCH  20  26
ATOM     26  C   UNL     1      32.843 -23.717 -15.967  0.00  0.00    +0.022 C 
ATOM     27  C   UNL     1      33.321 -23.525 -14.517  0.00  0.00    +0.004 C 
ATOM     28  C   UNL     1      31.398 -23.217 -16.139  0.00  0.00    +0.004 C 
ATOM     29  C   UNL     1      32.369 -24.185 -13.521  0.00  0.00    +0.000 C 
ATOM     30  C   UNL     1      30.453 -23.879 -15.137  0.00  0.00    +0.000 C 
ATOM     31  C   UNL     1      30.936 -23.693 -13.702  0.00  0.00    +0.000 C 
ENDBRANCH  20  26
ENDBRANCH  19  23
ENDBRANCH  18  19
ENDBRANCH   1  18
TORSDOF 7
ENDMDL
MODEL 9
REMARK VINA RESULT:     -10.6      3.400      6.185
REMARK  Name = 446129
REMARK  7 active torsions:
REMARK  status: ('A' for Active; 'I' for Inactive)
REMARK    1  A    between atoms: C_1  and  O_2
REMARK    2  A    between atoms: C_1  and  C_4
REMARK    3  A    between atoms: C_1  and  C_18
REMARK    4  A    between atoms: C_4  and  N_5
REMARK    5  A    between atoms: C_18  and  O_19
REMARK    6  A    between atoms: O_19  and  C_23
REMARK    7  A    between atoms: C_20  and  C_26
REMARK                            x       y       z     vdW  Elec       q    Type
REMARK                         _______ _______ _______ _____ _____    ______ ____
ROOT
ATOM      1  C   UNL     1      34.603 -20.151 -20.623  0.00  0.00    +0.133 C 
ENDROOT
BRANCH   1   2
ATOM      2  O   UNL     1      33.218 -20.487 -20.497  0.00  0.00    -0.383 OA
ATOM      3  H   UNL     1      33.108 -21.446 -20.588  0.00  0.00    +0.210 HD
ENDBRANCH   1   2
BRANCH   1   4
ATOM      4  C   UNL     1      35.429 -21.368 -20.201  0.00  0.00    -0.043 C 
BRANCH   4   5
ATOM      5  N   UNL     1      35.434 -21.553 -18.749  0.00  0.00    +0.391 N 
ATOM      6  N   UNL     1      35.987 -22.904 -16.294  0.00  0.00    -0.298 N 
ATOM      7  C   UNL     1      36.810 -21.647 -18.247  0.00  0.00    -0.055 C 
ATOM      8  C   UNL     1      34.684 -22.759 -18.381  0.00  0.00    -0.055 C 
ATOM      9  C   UNL     1      36.831 -21.784 -16.723  0.00  0.00    +0.069 C 
ATOM     10  C   UNL     1      34.633 -22.933 -16.861  0.00  0.00    +0.069 C 
ATOM     11  H   UNL     1      34.983 -20.742 -18.325  0.00  0.00    -0.079 HD
ATOM     12  N   UNL     1      35.168 -23.488 -14.119  0.00  0.00    -0.229 NA
ATOM     13  C   UNL     1      36.184 -23.481 -15.035  0.00  0.00    +0.132 C 
ATOM     14  C   UNL     1      37.436 -24.041 -14.745  0.00  0.00    +0.034 C 
ATOM     15  C   UNL     1      37.648 -24.616 -13.497  0.00  0.00    +0.004 C 
ATOM     16  C   UNL     1      35.410 -24.057 -12.916  0.00  0.00    +0.100 C 
ATOM     17  C   UNL     1      36.621 -24.629 -12.560  0.00  0.00    +0.021 C 
ENDBRANCH   4   5
ENDBRANCH   1   4
BRANCH   1  18
ATOM     18  C   UNL     1      34.870 -19.710 -22.062  0.00  0.00    +0.232 C 
BRANCH  18  19
ATOM     19  O   UNL     1      35.792 -18.626 -22.047  0.00  0.00    -0.473 OA
BRANCH  19  23
ATOM     20  C   UNL     1      34.180 -14.811 -21.770  0.00  0.00    -0.022 C 
ATOM     21  C   UNL     1      34.377 -15.396 -23.021  0.00  0.00    -0.001 C 
ATOM     22  C   UNL     1      34.526 -15.508 -20.612  0.00  0.00    -0.001 C 
ATOM     23  C   UNL     1      35.261 -17.367 -21.956  0.00  0.00    +0.139 C 
ATOM     24  C   UNL     1      34.919 -16.678 -23.114  0.00  0.00    +0.037 C 
ATOM     25  C   UNL     1      35.069 -16.790 -20.706  0.00  0.00    +0.037 C 
BRANCH  20  26
ATOM     26  C   UNL     1      33.592 -13.416 -21.669  0.00  0.00    +0.022 C 
ATOM     27  C   UNL     1      33.275 -12.825 -23.054  0.00  0.00    +0.004 C 
ATOM     28  C   UNL     1      32.352 -13.382 -20.760  0.00  0.00    +0.004 C 
ATOM     29  C   UNL     1      32.692 -11.418 -22.942  0.00  0.00    +0.000 C 
ATOM     30  C   UNL     1      31.773 -11.972 -20.656  0.00  0.00    +0.000 C 
ATOM     31  C   UNL     1      31.467 -11.387 -22.031  0.00  0.00    +0.000 C 
ENDBRANCH  20  26
ENDBRANCH  19  23
ENDBRANCH  18  19
ENDBRANCH   1  18
TORSDOF 7
ENDMDL
