MODEL 1
REMARK VINA RESULT:     -12.8      0.000      0.000
REMARK  Name = 6105620
REMARK  4 active torsions:
REMARK  status: ('A' for Active; 'I' for Inactive)
REMARK    1  A    between atoms: N_2  and  C_7
REMARK    2  A    between atoms: N_3  and  C_21
REMARK    3  A    between atoms: C_9  and  C_29
REMARK    4  A    between atoms: C_30  and  C_31
REMARK                            x       y       z     vdW  Elec       q    Type
REMARK                         _______ _______ _______ _____ _____    ______ ____
ROOT
ATOM      1  N   UNL     1      33.692 -23.047 -17.165  0.00  0.00    -0.086 NA
ATOM      2  N   UNL     1      35.073 -22.791 -16.767  0.00  0.00    -0.132 N 
ATOM      3  N   UNL     1      33.554 -22.481 -18.465  0.00  0.00    -0.240 N 
ATOM      4  N   UNL     1      35.682 -22.024 -17.752  0.00  0.00    -0.146 NA
ATOM      5  C   UNL     1      34.768 -21.874 -18.698  0.00  0.00    +0.162 C 
ATOM      6  H   UNL     1      32.770 -22.515 -19.060  0.00  0.00    +0.170 HD
ENDROOT
BRANCH   2  11
ATOM      7  O   UNL     1      36.698 -27.473 -15.545  0.00  0.00    -0.220 OA
ATOM      8  O   UNL     1      38.721 -24.478 -11.809  0.00  0.00    -0.220 OA
ATOM      9  N   UNL     1      37.941 -27.254 -13.645  0.00  0.00    -0.062 NA
ATOM     10  N   UNL     1      38.426 -26.535 -12.748  0.00  0.00    -0.062 NA
ATOM     11  C   UNL     1      35.859 -23.370 -15.750  0.00  0.00    +0.089 C 
ATOM     12  C   UNL     1      36.107 -24.755 -15.732  0.00  0.00    +0.030 C 
ATOM     13  C   UNL     1      36.414 -22.576 -14.731  0.00  0.00    +0.019 C 
ATOM     14  C   UNL     1      36.889 -25.319 -14.720  0.00  0.00    +0.097 C 
ATOM     15  C   UNL     1      37.426 -24.523 -13.727  0.00  0.00    +0.096 C 
ATOM     16  C   UNL     1      37.194 -23.144 -13.723  0.00  0.00    +0.014 C 
ATOM     17  C   UNL     1      37.170 -26.757 -14.666  0.00  0.00    +0.174 C 
ATOM     18  C   UNL     1      38.237 -25.177 -12.694  0.00  0.00    +0.174 C 
ENDBRANCH   2  11
BRANCH   1  21
ATOM     19  S   UNL     1      33.006 -24.285 -14.894  0.00  0.00    -0.074 S 
ATOM     20  N   UNL     1      31.416 -23.535 -16.838  0.00  0.00    -0.310 N 
ATOM     21  C   UNL     1      32.699 -23.542 -16.461  0.00  0.00    +0.222 C 
ATOM     22  C   UNL     1      30.600 -24.113 -15.919  0.00  0.00    +0.052 C 
ATOM     23  C   UNL     1      31.258 -24.590 -14.780  0.00  0.00    +0.041 C 
ATOM     24  C   UNL     1      29.225 -24.245 -16.046  0.00  0.00    +0.015 C 
ATOM     25  C   UNL     1      30.565 -25.205 -13.751  0.00  0.00    +0.007 C 
ATOM     26  C   UNL     1      28.515 -24.863 -15.014  0.00  0.00    +0.001 C 
ATOM     27  C   UNL     1      29.180 -25.340 -13.875  0.00  0.00    +0.001 C 
ATOM     28  H   UNL     1      31.098 -23.153 -17.689  0.00  0.00    +0.149 HD
ENDBRANCH   1  21
BRANCH   5  29
ATOM     29  C   UNL     1      35.063 -21.096 -19.911  0.00  0.00    +0.037 C 
ATOM     30  C   UNL     1      34.240 -20.160 -20.356  0.00  0.00    +0.003 C 
BRANCH  30  31
ATOM     31  C   UNL     1      34.487 -19.363 -21.570  0.00  0.00    +0.000 C 
ATOM     32  C   UNL     1      35.242 -18.203 -21.478  0.00  0.00    +0.000 C 
ATOM     33  C   UNL     1      33.960 -19.786 -22.779  0.00  0.00    +0.000 C 
ATOM     34  C   UNL     1      35.476 -17.448 -22.628  0.00  0.00    +0.000 C 
ATOM     35  C   UNL     1      34.194 -19.030 -23.928  0.00  0.00    +0.000 C 
ATOM     36  C   UNL     1      34.952 -17.862 -23.853  0.00  0.00    +0.000 C 
ENDBRANCH  30  31
ENDBRANCH   5  29
TORSDOF 4
ENDMDL
MODEL 2
REMARK VINA RESULT:     -12.8      2.372      5.439
REMARK  Name = 6105620
REMARK  4 active torsions:
REMARK  status: ('A' for Active; 'I' for Inactive)
REMARK    1  A    between atoms: N_2  and  C_7
REMARK    2  A    between atoms: N_3  and  C_21
REMARK    3  A    between atoms: C_9  and  C_29
REMARK    4  A    between atoms: C_30  and  C_31
REMARK                            x       y       z     vdW  Elec       q    Type
REMARK                         _______ _______ _______ _____ _____    ______ ____
ROOT
ATOM      1  N   UNL     1      35.688 -22.796 -16.972  0.00  0.00    -0.086 NA
ATOM      2  N   UNL     1      34.277 -22.857 -17.337  0.00  0.00    -0.132 N 
ATOM      3  N   UNL     1      36.299 -21.940 -17.933  0.00  0.00    -0.240 N 
ATOM      4  N   UNL     1      34.094 -22.147 -18.517  0.00  0.00    -0.146 NA
ATOM      5  C   UNL     1      35.283 -21.645 -18.814  0.00  0.00    +0.162 C 
ATOM      6  H   UNL     1      37.233 -21.631 -17.961  0.00  0.00    +0.170 HD
ENDROOT
BRANCH   2  11
ATOM      7  O   UNL     1      33.418 -24.990 -12.780  0.00  0.00    -0.220 OA
ATOM      8  O   UNL     1      28.650 -24.449 -14.779  0.00  0.00    -0.220 OA
ATOM      9  N   UNL     1      31.160 -25.253 -12.600  0.00  0.00    -0.062 NA
ATOM     10  N   UNL     1      30.015 -25.123 -13.080  0.00  0.00    -0.062 NA
ATOM     11  C   UNL     1      33.152 -23.279 -16.598  0.00  0.00    +0.089 C 
ATOM     12  C   UNL     1      33.302 -23.848 -15.321  0.00  0.00    +0.030 C 
ATOM     13  C   UNL     1      31.854 -23.141 -17.123  0.00  0.00    +0.019 C 
ATOM     14  C   UNL     1      32.182 -24.263 -14.596  0.00  0.00    +0.097 C 
ATOM     15  C   UNL     1      30.914 -24.120 -15.127  0.00  0.00    +0.096 C 
ATOM     16  C   UNL     1      30.739 -23.558 -16.395  0.00  0.00    +0.014 C 
ATOM     17  C   UNL     1      32.297 -24.860 -13.262  0.00  0.00    +0.174 C 
ATOM     18  C   UNL     1      29.780 -24.575 -14.316  0.00  0.00    +0.174 C 
ENDBRANCH   2  11
BRANCH   1  21
ATOM     19  S   UNL     1      37.966 -22.992 -15.580  0.00  0.00    -0.074 S 
ATOM     20  N   UNL     1      35.878 -24.570 -15.442  0.00  0.00    -0.310 N 
ATOM     21  C   UNL     1      36.345 -23.483 -16.064  0.00  0.00    +0.222 C 
ATOM     22  C   UNL     1      36.765 -25.081 -14.550  0.00  0.00    +0.052 C 
ATOM     23  C   UNL     1      37.970 -24.375 -14.464  0.00  0.00    +0.041 C 
ATOM     24  C   UNL     1      36.548 -26.204 -13.764  0.00  0.00    +0.015 C 
ATOM     25  C   UNL     1      38.977 -24.771 -13.599  0.00  0.00    +0.007 C 
ATOM     26  C   UNL     1      37.557 -26.612 -12.889  0.00  0.00    +0.001 C 
ATOM     27  C   UNL     1      38.763 -25.901 -12.807  0.00  0.00    +0.001 C 
ATOM     28  H   UNL     1      34.988 -24.958 -15.612  0.00  0.00    +0.149 HD
ENDBRANCH   1  21
BRANCH   5  29
ATOM     29  C   UNL     1      35.473 -20.830 -20.023  0.00  0.00    +0.037 C 
ATOM     30  C   UNL     1      34.513 -20.056 -20.501  0.00  0.00    +0.003 C 
BRANCH  30  31
ATOM     31  C   UNL     1      34.654 -19.230 -21.712  0.00  0.00    +0.000 C 
ATOM     32  C   UNL     1      35.269 -17.991 -21.622  0.00  0.00    +0.000 C 
ATOM     33  C   UNL     1      34.168 -19.706 -22.919  0.00  0.00    +0.000 C 
ATOM     34  C   UNL     1      35.402 -17.209 -22.770  0.00  0.00    +0.000 C 
ATOM     35  C   UNL     1      34.301 -18.924 -24.067  0.00  0.00    +0.000 C 
ATOM     36  C   UNL     1      34.918 -17.676 -23.992  0.00  0.00    +0.000 C 
ENDBRANCH  30  31
ENDBRANCH   5  29
TORSDOF 4
ENDMDL
MODEL 3
REMARK VINA RESULT:     -12.5      2.446      6.050
REMARK  Name = 6105620
REMARK  4 active torsions:
REMARK  status: ('A' for Active; 'I' for Inactive)
REMARK    1  A    between atoms: N_2  and  C_7
REMARK    2  A    between atoms: N_3  and  C_21
REMARK    3  A    between atoms: C_9  and  C_29
REMARK    4  A    between atoms: C_30  and  C_31
REMARK                            x       y       z     vdW  Elec       q    Type
REMARK                         _______ _______ _______ _____ _____    ______ ____
ROOT
ATOM      1  N   UNL     1      35.717 -22.837 -16.547  0.00  0.00    -0.086 NA
ATOM      2  N   UNL     1      34.339 -23.085 -16.959  0.00  0.00    -0.132 N 
ATOM      3  N   UNL     1      36.274 -21.995 -17.551  0.00  0.00    -0.240 N 
ATOM      4  N   UNL     1      34.134 -22.492 -18.198  0.00  0.00    -0.146 NA
ATOM      5  C   UNL     1      35.273 -21.884 -18.491  0.00  0.00    +0.162 C 
ATOM      6  H   UNL     1      37.169 -21.585 -17.570  0.00  0.00    +0.170 HD
ENDROOT
BRANCH   2  11
ATOM      7  O   UNL     1      29.268 -22.518 -17.082  0.00  0.00    -0.220 OA
ATOM      8  O   UNL     1      30.021 -25.800 -13.121  0.00  0.00    -0.220 OA
ATOM      9  N   UNL     1      28.429 -23.801 -15.393  0.00  0.00    -0.062 NA
ATOM     10  N   UNL     1      28.609 -24.589 -14.443  0.00  0.00    -0.062 NA
ATOM     11  C   UNL     1      33.235 -23.573 -16.230  0.00  0.00    +0.089 C 
ATOM     12  C   UNL     1      31.924 -23.183 -16.561  0.00  0.00    +0.030 C 
ATOM     13  C   UNL     1      33.419 -24.461 -15.155  0.00  0.00    +0.019 C 
ATOM     14  C   UNL     1      30.837 -23.673 -15.833  0.00  0.00    +0.097 C 
ATOM     15  C   UNL     1      31.037 -24.545 -14.780  0.00  0.00    +0.096 C 
ATOM     16  C   UNL     1      32.329 -24.947 -14.432  0.00  0.00    +0.014 C 
ATOM     17  C   UNL     1      29.456 -23.291 -16.147  0.00  0.00    +0.174 C 
ATOM     18  C   UNL     1      29.853 -25.023 -14.057  0.00  0.00    +0.174 C 
ENDBRANCH   2  11
BRANCH   1  21
ATOM     19  S   UNL     1      35.900 -23.132 -13.894  0.00  0.00    -0.074 S 
ATOM     20  N   UNL     1      37.500 -24.125 -15.717  0.00  0.00    -0.310 N 
ATOM     21  C   UNL     1      36.403 -23.375 -15.563  0.00  0.00    +0.222 C 
ATOM     22  C   UNL     1      38.007 -24.552 -14.532  0.00  0.00    +0.052 C 
ATOM     23  C   UNL     1      37.290 -24.127 -13.408  0.00  0.00    +0.041 C 
ATOM     24  C   UNL     1      39.137 -25.344 -14.388  0.00  0.00    +0.015 C 
ATOM     25  C   UNL     1      37.681 -24.480 -12.127  0.00  0.00    +0.007 C 
ATOM     26  C   UNL     1      39.541 -25.706 -13.102  0.00  0.00    +0.001 C 
ATOM     27  C   UNL     1      38.818 -25.277 -11.979  0.00  0.00    +0.001 C 
ATOM     28  H   UNL     1      37.895 -24.344 -16.592  0.00  0.00    +0.149 HD
ENDBRANCH   1  21
BRANCH   5  29
ATOM     29  C   UNL     1      35.428 -21.147 -19.754  0.00  0.00    +0.037 C 
ATOM     30  C   UNL     1      34.614 -20.160 -20.091  0.00  0.00    +0.003 C 
BRANCH  30  31
ATOM     31  C   UNL     1      34.724 -19.401 -21.348  0.00  0.00    +0.000 C 
ATOM     32  C   UNL     1      34.226 -19.951 -22.519  0.00  0.00    +0.000 C 
ATOM     33  C   UNL     1      35.324 -18.152 -21.337  0.00  0.00    +0.000 C 
ATOM     34  C   UNL     1      34.330 -19.231 -23.710  0.00  0.00    +0.000 C 
ATOM     35  C   UNL     1      35.427 -17.433 -22.528  0.00  0.00    +0.000 C 
ATOM     36  C   UNL     1      34.930 -17.972 -23.714  0.00  0.00    +0.000 C 
ENDBRANCH  30  31
ENDBRANCH   5  29
TORSDOF 4
ENDMDL
