MODEL 1
REMARK VINA RESULT:     -11.7      0.000      0.000
REMARK  Name = 4470378
REMARK  6 active torsions:
REMARK  status: ('A' for Active; 'I' for Inactive)
REMARK    1  A    between atoms: C_5  and  O_10
REMARK    2  A    between atoms: C_6  and  O_24
REMARK    3  A    between atoms: O_10  and  C_11
REMARK    4  A    between atoms: C_12  and  C_19
REMARK    5  A    between atoms: O_24  and  C_25
REMARK    6  A    between atoms: C_26  and  C_33
REMARK                            x       y       z     vdW  Elec       q    Type
REMARK                         _______ _______ _______ _____ _____    ______ ____
ROOT
ATOM      1  F   UNL     1      32.213 -23.757 -17.545  0.00  0.00    -0.221 F 
ATOM      2  F   UNL     1      34.069 -23.234 -13.201  0.00  0.00    -0.199 F 
ATOM      3  N   UNL     1      35.608 -23.048 -16.481  0.00  0.00    -0.331 NA
ATOM      4  C   UNL     1      33.092 -23.505 -15.351  0.00  0.00    +0.031 C 
ATOM      5  C   UNL     1      34.517 -23.291 -17.243  0.00  0.00    +0.298 C 
ATOM      6  C   UNL     1      35.404 -23.042 -15.152  0.00  0.00    +0.312 C 
ATOM      7  C   UNL     1      33.250 -23.523 -16.732  0.00  0.00    +0.270 C 
ATOM      8  C   UNL     1      34.191 -23.259 -14.534  0.00  0.00    +0.201 C 
ATOM      9  C   UNL     1      31.751 -23.749 -14.747  0.00  0.00    +0.032 C 
ENDROOT
BRANCH   5  10
ATOM     10  O   UNL     1      34.700 -23.305 -18.601  0.00  0.00    -0.428 OA
BRANCH  10  11
ATOM     11  C   UNL     1      34.444 -22.135 -19.287  0.00  0.00    +0.148 C 
ATOM     12  C   UNL     1      35.246 -20.189 -20.439  0.00  0.00    +0.032 C 
ATOM     13  C   UNL     1      35.505 -21.372 -19.746  0.00  0.00    +0.040 C 
ATOM     14  C   UNL     1      33.131 -21.750 -19.503  0.00  0.00    +0.038 C 
ATOM     15  C   UNL     1      33.929 -19.788 -20.665  0.00  0.00    +0.003 C 
ATOM     16  C   UNL     1      32.872 -20.567 -20.196  0.00  0.00    +0.003 C 
BRANCH  12  19
ATOM     17  N   UNL     1      36.202 -18.642 -22.039  0.00  0.00    -0.387 N 
ATOM     18  N   UNL     1      37.514 -19.359 -20.269  0.00  0.00    -0.345 N 
ATOM     19  C   UNL     1      36.341 -19.381 -20.924  0.00  0.00    +0.096 C 
ATOM     20  H   UNL     1      36.953 -18.094 -22.363  0.00  0.00    +0.157 HD
ATOM     21  H   UNL     1      35.349 -18.648 -22.531  0.00  0.00    +0.157 HD
ATOM     22  H   UNL     1      38.257 -18.806 -20.607  0.00  0.00    +0.144 HD
ATOM     23  H   UNL     1      37.632 -19.896 -19.452  0.00  0.00    +0.144 HD
ENDBRANCH  12  19
ENDBRANCH  10  11
ENDBRANCH   5  10
BRANCH   6  24
ATOM     24  O   UNL     1      36.514 -22.796 -14.361  0.00  0.00    -0.426 OA
BRANCH  24  25
ATOM     25  C   UNL     1      37.118 -23.863 -13.771  0.00  0.00    +0.148 C 
ATOM     26  C   UNL     1      38.836 -25.562 -13.775  0.00  0.00    +0.034 C 
ATOM     27  C   UNL     1      38.218 -24.468 -14.380  0.00  0.00    +0.040 C 
ATOM     28  C   UNL     1      36.636 -24.353 -12.557  0.00  0.00    +0.038 C 
ATOM     29  C   UNL     1      38.354 -26.052 -12.561  0.00  0.00    +0.003 C 
ATOM     30  C   UNL     1      37.255 -25.447 -11.952  0.00  0.00    +0.003 C 
BRANCH  26  33
ATOM     31  N   UNL     1      40.890 -26.953 -13.676  0.00  0.00    -0.343 N 
ATOM     32  N   UNL     1      40.180 -26.044 -15.708  0.00  0.00    -0.285 NA
ATOM     33  C   UNL     1      39.982 -26.193 -14.410  0.00  0.00    +0.117 C 
ATOM     34  H   UNL     1      41.659 -27.371 -14.125  0.00  0.00    +0.144 HD
ATOM     35  H   UNL     1      40.762 -27.073 -12.706  0.00  0.00    +0.144 HD
ATOM     36  H   UNL     1      40.955 -26.470 -16.139  0.00  0.00    +0.188 HD
ENDBRANCH  26  33
ENDBRANCH  24  25
ENDBRANCH   6  24
TORSDOF 6
ENDMDL
MODEL 2
REMARK VINA RESULT:     -11.5      0.427      7.692
REMARK  Name = 4470378
REMARK  6 active torsions:
REMARK  status: ('A' for Active; 'I' for Inactive)
REMARK    1  A    between atoms: C_5  and  O_10
REMARK    2  A    between atoms: C_6  and  O_24
REMARK    3  A    between atoms: O_10  and  C_11
REMARK    4  A    between atoms: C_12  and  C_19
REMARK    5  A    between atoms: O_24  and  C_25
REMARK    6  A    between atoms: C_26  and  C_33
REMARK                            x       y       z     vdW  Elec       q    Type
REMARK                         _______ _______ _______ _____ _____    ______ ____
ROOT
ATOM      1  F   UNL     1      33.335 -23.364 -13.332  0.00  0.00    -0.221 F 
ATOM      2  F   UNL     1      32.296 -23.673 -17.960  0.00  0.00    -0.199 F 
ATOM      3  N   UNL     1      35.437 -23.016 -16.268  0.00  0.00    -0.331 NA
ATOM      4  C   UNL     1      32.763 -23.528 -15.634  0.00  0.00    +0.031 C 
ATOM      5  C   UNL     1      35.006 -23.072 -14.988  0.00  0.00    +0.298 C 
ATOM      6  C   UNL     1      34.500 -23.221 -17.211  0.00  0.00    +0.312 C 
ATOM      7  C   UNL     1      33.694 -23.323 -14.621  0.00  0.00    +0.270 C 
ATOM      8  C   UNL     1      33.168 -23.478 -16.964  0.00  0.00    +0.201 C 
ATOM      9  C   UNL     1      31.337 -23.800 -15.296  0.00  0.00    +0.032 C 
ENDROOT
BRANCH   5  10
ATOM     10  O   UNL     1      35.942 -22.865 -14.009  0.00  0.00    -0.428 OA
BRANCH  10  11
ATOM     11  C   UNL     1      36.611 -23.971 -13.526  0.00  0.00    +0.148 C 
ATOM     12  C   UNL     1      38.455 -25.501 -13.656  0.00  0.00    +0.032 C 
ATOM     13  C   UNL     1      37.780 -24.381 -14.145  0.00  0.00    +0.040 C 
ATOM     14  C   UNL     1      36.098 -24.648 -12.431  0.00  0.00    +0.038 C 
ATOM     15  C   UNL     1      37.952 -26.193 -12.555  0.00  0.00    +0.003 C 
ATOM     16  C   UNL     1      36.773 -25.767 -11.942  0.00  0.00    +0.003 C 
BRANCH  12  19
ATOM     17  N   UNL     1      40.511 -26.781 -13.654  0.00  0.00    -0.387 N 
ATOM     18  N   UNL     1      39.994 -25.519 -15.526  0.00  0.00    -0.345 N 
ATOM     19  C   UNL     1      39.676 -25.942 -14.291  0.00  0.00    +0.096 C 
ATOM     20  H   UNL     1      41.341 -27.077 -14.092  0.00  0.00    +0.157 HD
ATOM     21  H   UNL     1      40.292 -27.099 -12.747  0.00  0.00    +0.157 HD
ATOM     22  H   UNL     1      40.828 -25.823 -15.952  0.00  0.00    +0.144 HD
ATOM     23  H   UNL     1      39.393 -24.903 -16.005  0.00  0.00    +0.144 HD
ENDBRANCH  12  19
ENDBRANCH  10  11
ENDBRANCH   5  10
BRANCH   6  24
ATOM     24  O   UNL     1      34.929 -23.164 -18.526  0.00  0.00    -0.426 OA
BRANCH  24  25
ATOM     25  C   UNL     1      34.645 -22.038 -19.236  0.00  0.00    +0.148 C 
ATOM     26  C   UNL     1      35.391 -20.093 -20.460  0.00  0.00    +0.034 C 
ATOM     27  C   UNL     1      35.681 -21.248 -19.734  0.00  0.00    +0.040 C 
ATOM     28  C   UNL     1      33.319 -21.673 -19.463  0.00  0.00    +0.038 C 
ATOM     29  C   UNL     1      34.064 -19.727 -20.687  0.00  0.00    +0.003 C 
ATOM     30  C   UNL     1      33.028 -20.518 -20.189  0.00  0.00    +0.003 C 
BRANCH  26  33
ATOM     31  N   UNL     1      36.377 -18.653 -22.226  0.00  0.00    -0.343 N 
ATOM     32  N   UNL     1      37.570 -19.099 -20.267  0.00  0.00    -0.285 NA
ATOM     33  C   UNL     1      36.471 -19.269 -20.980  0.00  0.00    +0.117 C 
ATOM     34  H   UNL     1      37.120 -18.100 -22.559  0.00  0.00    +0.144 HD
ATOM     35  H   UNL     1      35.567 -18.770 -22.774  0.00  0.00    +0.144 HD
ATOM     36  H   UNL     1      38.302 -18.542 -20.617  0.00  0.00    +0.188 HD
ENDBRANCH  26  33
ENDBRANCH  24  25
ENDBRANCH   6  24
TORSDOF 6
ENDMDL
MODEL 3
REMARK VINA RESULT:     -11.4      1.334      1.852
REMARK  Name = 4470378
REMARK  6 active torsions:
REMARK  status: ('A' for Active; 'I' for Inactive)
REMARK    1  A    between atoms: C_5  and  O_10
REMARK    2  A    between atoms: C_6  and  O_24
REMARK    3  A    between atoms: O_10  and  C_11
REMARK    4  A    between atoms: C_12  and  C_19
REMARK    5  A    between atoms: O_24  and  C_25
REMARK    6  A    between atoms: C_26  and  C_33
REMARK                            x       y       z     vdW  Elec       q    Type
REMARK                         _______ _______ _______ _____ _____    ______ ____
ROOT
ATOM      1  F   UNL     1      30.984 -23.336 -16.870  0.00  0.00    -0.221 F 
ATOM      2  F   UNL     1      33.589 -23.925 -12.938  0.00  0.00    -0.199 F 
ATOM      3  N   UNL     1      34.572 -23.185 -16.351  0.00  0.00    -0.331 NA
ATOM      4  C   UNL     1      32.242 -23.640 -14.875  0.00  0.00    +0.031 C 
ATOM      5  C   UNL     1      33.348 -23.158 -16.925  0.00  0.00    +0.298 C 
ATOM      6  C   UNL     1      34.594 -23.444 -15.031  0.00  0.00    +0.312 C 
ATOM      7  C   UNL     1      32.164 -23.376 -16.238  0.00  0.00    +0.270 C 
ATOM      8  C   UNL     1      33.483 -23.676 -14.249  0.00  0.00    +0.201 C 
ATOM      9  C   UNL     1      30.999 -23.883 -14.088  0.00  0.00    +0.032 C 
ENDROOT
BRANCH   5  10
ATOM     10  O   UNL     1      33.299 -22.898 -18.269  0.00  0.00    -0.428 OA
BRANCH  10  11
ATOM     11  C   UNL     1      34.327 -22.153 -18.809  0.00  0.00    +0.148 C 
ATOM     12  C   UNL     1      35.075 -20.421 -20.292  0.00  0.00    +0.032 C 
ATOM     13  C   UNL     1      34.035 -21.174 -19.745  0.00  0.00    +0.040 C 
ATOM     14  C   UNL     1      35.628 -22.400 -18.405  0.00  0.00    +0.038 C 
ATOM     15  C   UNL     1      36.391 -20.658 -19.894  0.00  0.00    +0.003 C 
ATOM     16  C   UNL     1      36.668 -21.648 -18.951  0.00  0.00    +0.003 C 
BRANCH  12  19
ATOM     17  N   UNL     1      35.130 -18.117 -21.036  0.00  0.00    -0.387 N 
ATOM     18  N   UNL     1      34.176 -19.707 -22.424  0.00  0.00    -0.345 N 
ATOM     19  C   UNL     1      34.789 -19.396 -21.269  0.00  0.00    +0.096 C 
ATOM     20  H   UNL     1      34.931 -17.424 -21.706  0.00  0.00    +0.157 HD
ATOM     21  H   UNL     1      35.579 -17.873 -20.194  0.00  0.00    +0.157 HD
ATOM     22  H   UNL     1      33.983 -19.003 -23.085  0.00  0.00    +0.144 HD
ATOM     23  H   UNL     1      33.918 -20.639 -22.609  0.00  0.00    +0.144 HD
ENDBRANCH  12  19
ENDBRANCH  10  11
ENDBRANCH   5  10
BRANCH   6  24
ATOM     24  O   UNL     1      35.843 -23.475 -14.432  0.00  0.00    -0.426 OA
BRANCH  24  25
ATOM     25  C   UNL     1      36.546 -24.638 -14.499  0.00  0.00    +0.148 C 
ATOM     26  C   UNL     1      38.651 -25.819 -14.391  0.00  0.00    +0.034 C 
ATOM     27  C   UNL     1      37.930 -24.628 -14.322  0.00  0.00    +0.040 C 
ATOM     28  C   UNL     1      35.884 -25.841 -14.746  0.00  0.00    +0.038 C 
ATOM     29  C   UNL     1      37.989 -27.022 -14.638  0.00  0.00    +0.003 C 
ATOM     30  C   UNL     1      36.605 -27.033 -14.815  0.00  0.00    +0.003 C 
BRANCH  26  33
ATOM     31  N   UNL     1      40.771 -26.927 -13.724  0.00  0.00    -0.343 N 
ATOM     32  N   UNL     1      40.786 -24.720 -14.492  0.00  0.00    -0.285 NA
ATOM     33  C   UNL     1      40.094 -25.808 -14.206  0.00  0.00    +0.117 C 
ATOM     34  H   UNL     1      41.748 -26.898 -13.607  0.00  0.00    +0.144 HD
ATOM     35  H   UNL     1      40.273 -27.747 -13.502  0.00  0.00    +0.144 HD
ATOM     36  H   UNL     1      41.762 -24.711 -14.368  0.00  0.00    +0.188 HD
ENDBRANCH  26  33
ENDBRANCH  24  25
ENDBRANCH   6  24
TORSDOF 6
ENDMDL
MODEL 4
REMARK VINA RESULT:     -11.3      8.606     12.346
REMARK  Name = 4470378
REMARK  6 active torsions:
REMARK  status: ('A' for Active; 'I' for Inactive)
REMARK    1  A    between atoms: C_5  and  O_10
REMARK    2  A    between atoms: C_6  and  O_24
REMARK    3  A    between atoms: O_10  and  C_11
REMARK    4  A    between atoms: C_12  and  C_19
REMARK    5  A    between atoms: O_24  and  C_25
REMARK    6  A    between atoms: C_26  and  C_33
REMARK                            x       y       z     vdW  Elec       q    Type
REMARK                         _______ _______ _______ _____ _____    ______ ____
ROOT
ATOM      1  F   UNL     1      31.358 -11.584 -21.252  0.00  0.00    -0.221 F 
ATOM      2  F   UNL     1      34.011 -15.501 -20.799  0.00  0.00    -0.199 F 
ATOM      3  N   UNL     1      34.013 -12.911 -23.339  0.00  0.00    -0.331 NA
ATOM      4  C   UNL     1      32.658 -13.556 -20.980  0.00  0.00    +0.031 C 
ATOM      5  C   UNL     1      33.026 -12.128 -22.847  0.00  0.00    +0.298 C 
ATOM      6  C   UNL     1      34.297 -14.014 -22.623  0.00  0.00    +0.312 C 
ATOM      7  C   UNL     1      32.325 -12.403 -21.683  0.00  0.00    +0.270 C 
ATOM      8  C   UNL     1      33.668 -14.386 -21.455  0.00  0.00    +0.201 C 
ATOM      9  C   UNL     1      31.935 -13.901 -19.723  0.00  0.00    +0.032 C 
ENDROOT
BRANCH   5  10
ATOM     10  O   UNL     1      32.716 -10.999 -23.558  0.00  0.00    -0.428 OA
BRANCH  10  11
ATOM     11  C   UNL     1      33.376  -9.835 -23.222  0.00  0.00    +0.148 C 
ATOM     12  C   UNL     1      33.533  -7.855 -21.875  0.00  0.00    +0.032 C 
ATOM     13  C   UNL     1      32.865  -9.033 -22.215  0.00  0.00    +0.040 C 
ATOM     14  C   UNL     1      34.536  -9.493 -23.898  0.00  0.00    +0.038 C 
ATOM     15  C   UNL     1      34.702  -7.498 -22.547  0.00  0.00    +0.003 C 
ATOM     16  C   UNL     1      35.203  -8.316 -23.559  0.00  0.00    +0.003 C 
BRANCH  12  19
ATOM     17  N   UNL     1      33.149  -7.356 -19.536  0.00  0.00    -0.387 N 
ATOM     18  N   UNL     1      32.385  -5.858 -21.129  0.00  0.00    -0.345 N 
ATOM     19  C   UNL     1      33.013  -7.007 -20.827  0.00  0.00    +0.096 C 
ATOM     20  H   UNL     1      32.792  -6.773 -18.828  0.00  0.00    +0.157 HD
ATOM     21  H   UNL     1      33.607  -8.196 -19.299  0.00  0.00    +0.157 HD
ATOM     22  H   UNL     1      32.032  -5.285 -20.409  0.00  0.00    +0.144 HD
ATOM     23  H   UNL     1      32.275  -5.589 -22.069  0.00  0.00    +0.144 HD
ENDBRANCH  12  19
ENDBRANCH  10  11
ENDBRANCH   5  10
BRANCH   6  24
ATOM     24  O   UNL     1      35.305 -14.824 -23.119  0.00  0.00    -0.426 OA
BRANCH  24  25
ATOM     25  C   UNL     1      35.063 -16.161 -23.193  0.00  0.00    +0.148 C 
ATOM     26  C   UNL     1      35.242 -18.375 -22.244  0.00  0.00    +0.034 C 
ATOM     27  C   UNL     1      35.490 -17.005 -22.168  0.00  0.00    +0.040 C 
ATOM     28  C   UNL     1      34.389 -16.688 -24.295  0.00  0.00    +0.038 C 
ATOM     29  C   UNL     1      34.569 -18.903 -23.346  0.00  0.00    +0.003 C 
ATOM     30  C   UNL     1      34.142 -18.058 -24.371  0.00  0.00    +0.003 C 
BRANCH  26  33
ATOM     31  N   UNL     1      34.907 -20.327 -20.746  0.00  0.00    -0.343 N 
ATOM     32  N   UNL     1      36.851 -19.041 -20.587  0.00  0.00    -0.285 NA
ATOM     33  C   UNL     1      35.688 -19.255 -21.175  0.00  0.00    +0.117 C 
ATOM     34  H   UNL     1      35.227 -20.910 -20.021  0.00  0.00    +0.144 HD
ATOM     35  H   UNL     1      34.035 -20.502 -21.169  0.00  0.00    +0.144 HD
ATOM     36  H   UNL     1      37.154 -19.636 -19.864  0.00  0.00    +0.188 HD
ENDBRANCH  26  33
ENDBRANCH  24  25
ENDBRANCH   6  24
TORSDOF 6
ENDMDL
MODEL 5
REMARK VINA RESULT:     -11.3      8.583     13.728
REMARK  Name = 4470378
REMARK  6 active torsions:
REMARK  status: ('A' for Active; 'I' for Inactive)
REMARK    1  A    between atoms: C_5  and  O_10
REMARK    2  A    between atoms: C_6  and  O_24
REMARK    3  A    between atoms: O_10  and  C_11
REMARK    4  A    between atoms: C_12  and  C_19
REMARK    5  A    between atoms: O_24  and  C_25
REMARK    6  A    between atoms: C_26  and  C_33
REMARK                            x       y       z     vdW  Elec       q    Type
REMARK                         _______ _______ _______ _____ _____    ______ ____
ROOT
ATOM      1  F   UNL     1      34.036 -15.505 -20.671  0.00  0.00    -0.221 F 
ATOM      2  F   UNL     1      31.372 -11.602 -21.179  0.00  0.00    -0.199 F 
ATOM      3  N   UNL     1      34.019 -12.959 -23.256  0.00  0.00    -0.331 NA
ATOM      4  C   UNL     1      32.678 -13.564 -20.879  0.00  0.00    +0.031 C 
ATOM      5  C   UNL     1      34.321 -14.057 -22.527  0.00  0.00    +0.298 C 
ATOM      6  C   UNL     1      33.037 -12.182 -22.764  0.00  0.00    +0.312 C 
ATOM      7  C   UNL     1      33.687 -14.402 -21.344  0.00  0.00    +0.270 C 
ATOM      8  C   UNL     1      32.339 -12.425 -21.601  0.00  0.00    +0.201 C 
ATOM      9  C   UNL     1      31.964 -13.886 -19.610  0.00  0.00    +0.032 C 
ENDROOT
BRANCH   5  10
ATOM     10  O   UNL     1      35.319 -14.864 -23.005  0.00  0.00    -0.428 OA
BRANCH  10  11
ATOM     11  C   UNL     1      35.039 -16.209 -23.137  0.00  0.00    +0.148 C 
ATOM     12  C   UNL     1      35.113 -18.439 -22.254  0.00  0.00    +0.032 C 
ATOM     13  C   UNL     1      35.395 -17.079 -22.120  0.00  0.00    +0.040 C 
ATOM     14  C   UNL     1      34.409 -16.661 -24.285  0.00  0.00    +0.038 C 
ATOM     15  C   UNL     1      34.479 -18.909 -23.404  0.00  0.00    +0.003 C 
ATOM     16  C   UNL     1      34.127 -18.020 -24.420  0.00  0.00    +0.003 C 
BRANCH  12  19
ATOM     17  N   UNL     1      34.612 -20.303 -20.791  0.00  0.00    -0.387 N 
ATOM     18  N   UNL     1      36.685 -19.285 -20.618  0.00  0.00    -0.345 N 
ATOM     19  C   UNL     1      35.477 -19.360 -21.202  0.00  0.00    +0.096 C 
ATOM     20  H   UNL     1      34.867 -20.927 -20.074  0.00  0.00    +0.157 HD
ATOM     21  H   UNL     1      33.722 -20.371 -21.209  0.00  0.00    +0.157 HD
ATOM     22  H   UNL     1      36.926 -19.915 -19.901  0.00  0.00    +0.144 HD
ATOM     23  H   UNL     1      37.329 -18.598 -20.906  0.00  0.00    +0.144 HD
ENDBRANCH  12  19
ENDBRANCH  10  11
ENDBRANCH   5  10
BRANCH   6  24
ATOM     24  O   UNL     1      32.721 -11.053 -23.502  0.00  0.00    -0.426 OA
BRANCH  24  25
ATOM     25  C   UNL     1      33.361  -9.894 -23.189  0.00  0.00    +0.148 C 
ATOM     26  C   UNL     1      33.508  -7.875 -21.869  0.00  0.00    +0.034 C 
ATOM     27  C   UNL     1      32.853  -9.064 -22.189  0.00  0.00    +0.040 C 
ATOM     28  C   UNL     1      34.523  -9.533 -23.870  0.00  0.00    +0.038 C 
ATOM     29  C   UNL     1      34.670  -7.514 -22.549  0.00  0.00    +0.003 C 
ATOM     30  C   UNL     1      35.178  -8.343 -23.550  0.00  0.00    +0.003 C 
BRANCH  26  33
ATOM     31  N   UNL     1      33.112  -7.336 -19.477  0.00  0.00    -0.343 N 
ATOM     32  N   UNL     1      32.349  -5.895 -21.151  0.00  0.00    -0.285 NA
ATOM     33  C   UNL     1      32.977  -7.011 -20.826  0.00  0.00    +0.117 C 
ATOM     34  H   UNL     1      32.746  -6.737 -18.788  0.00  0.00    +0.144 HD
ATOM     35  H   UNL     1      33.575  -8.165 -19.214  0.00  0.00    +0.144 HD
ATOM     36  H   UNL     1      31.990  -5.310 -20.446  0.00  0.00    +0.188 HD
ENDBRANCH  26  33
ENDBRANCH  24  25
ENDBRANCH   6  24
TORSDOF 6
ENDMDL
MODEL 6
REMARK VINA RESULT:     -11.2      3.027      7.752
REMARK  Name = 4470378
REMARK  6 active torsions:
REMARK  status: ('A' for Active; 'I' for Inactive)
REMARK    1  A    between atoms: C_5  and  O_10
REMARK    2  A    between atoms: C_6  and  O_24
REMARK    3  A    between atoms: O_10  and  C_11
REMARK    4  A    between atoms: C_12  and  C_19
REMARK    5  A    between atoms: O_24  and  C_25
REMARK    6  A    between atoms: C_26  and  C_33
REMARK                            x       y       z     vdW  Elec       q    Type
REMARK                         _______ _______ _______ _____ _____    ______ ____
ROOT
ATOM      1  F   UNL     1      37.291 -20.779 -18.365  0.00  0.00    -0.221 F 
ATOM      2  F   UNL     1      33.064 -22.756 -19.266  0.00  0.00    -0.199 F 
ATOM      3  N   UNL     1      35.387 -23.260 -16.526  0.00  0.00    -0.331 NA
ATOM      4  C   UNL     1      35.173 -21.738 -18.861  0.00  0.00    +0.031 C 
ATOM      5  C   UNL     1      36.355 -22.394 -16.904  0.00  0.00    +0.298 C 
ATOM      6  C   UNL     1      34.322 -23.341 -17.344  0.00  0.00    +0.312 C 
ATOM      7  C   UNL     1      36.296 -21.617 -18.050  0.00  0.00    +0.270 C 
ATOM      8  C   UNL     1      34.157 -22.619 -18.506  0.00  0.00    +0.201 C 
ATOM      9  C   UNL     1      35.059 -20.928 -20.107  0.00  0.00    +0.032 C 
ENDROOT
BRANCH   5  10
ATOM     10  O   UNL     1      37.451 -22.294 -16.088  0.00  0.00    -0.428 OA
BRANCH  10  11
ATOM     11  C   UNL     1      37.576 -23.224 -15.077  0.00  0.00    +0.148 C 
ATOM     12  C   UNL     1      36.963 -24.010 -12.894  0.00  0.00    +0.032 C 
ATOM     13  C   UNL     1      36.834 -23.069 -13.917  0.00  0.00    +0.040 C 
ATOM     14  C   UNL     1      38.442 -24.293 -15.242  0.00  0.00    +0.038 C 
ATOM     15  C   UNL     1      37.830 -25.091 -13.046  0.00  0.00    +0.003 C 
ATOM     16  C   UNL     1      38.570 -25.233 -14.220  0.00  0.00    +0.003 C 
BRANCH  12  19
ATOM     17  N   UNL     1      34.854 -23.790 -11.722  0.00  0.00    -0.387 N 
ATOM     18  N   UNL     1      36.814 -23.796 -10.486  0.00  0.00    -0.345 N 
ATOM     19  C   UNL     1      36.196 -23.863 -11.678  0.00  0.00    +0.096 C 
ATOM     20  H   UNL     1      34.339 -23.690 -10.889  0.00  0.00    +0.157 HD
ATOM     21  H   UNL     1      34.387 -23.836 -12.588  0.00  0.00    +0.157 HD
ATOM     22  H   UNL     1      36.285 -23.695  -9.662  0.00  0.00    +0.144 HD
ATOM     23  H   UNL     1      37.796 -23.847 -10.438  0.00  0.00    +0.144 HD
ENDBRANCH  12  19
ENDBRANCH  10  11
ENDBRANCH   5  10
BRANCH   6  24
ATOM     24  O   UNL     1      33.326 -24.227 -16.968  0.00  0.00    -0.426 OA
BRANCH  24  25
ATOM     25  C   UNL     1      32.414 -23.801 -16.052  0.00  0.00    +0.148 C 
ATOM     26  C   UNL     1      30.155 -23.150 -15.496  0.00  0.00    +0.034 C 
ATOM     27  C   UNL     1      31.089 -23.588 -16.434  0.00  0.00    +0.040 C 
ATOM     28  C   UNL     1      32.804 -23.575 -14.732  0.00  0.00    +0.038 C 
ATOM     29  C   UNL     1      30.544 -22.924 -14.176  0.00  0.00    +0.003 C 
ATOM     30  C   UNL     1      31.869 -23.137 -13.794  0.00  0.00    +0.003 C 
BRANCH  26  33
ATOM     31  N   UNL     1      28.290 -23.387 -17.118  0.00  0.00    -0.343 N 
ATOM     32  N   UNL     1      27.953 -22.274 -15.091  0.00  0.00    -0.285 NA
ATOM     33  C   UNL     1      28.773 -22.928 -15.894  0.00  0.00    +0.117 C 
ATOM     34  H   UNL     1      27.352 -23.226 -17.368  0.00  0.00    +0.144 HD
ATOM     35  H   UNL     1      28.886 -23.874 -17.732  0.00  0.00    +0.144 HD
ATOM     36  H   UNL     1      27.019 -22.123 -15.359  0.00  0.00    +0.188 HD
ENDBRANCH  26  33
ENDBRANCH  24  25
ENDBRANCH   6  24
TORSDOF 6
ENDMDL
MODEL 7
REMARK VINA RESULT:     -11.1      1.830      2.627
REMARK  Name = 4470378
REMARK  6 active torsions:
REMARK  status: ('A' for Active; 'I' for Inactive)
REMARK    1  A    between atoms: C_5  and  O_10
REMARK    2  A    between atoms: C_6  and  O_24
REMARK    3  A    between atoms: O_10  and  C_11
REMARK    4  A    between atoms: C_12  and  C_19
REMARK    5  A    between atoms: O_24  and  C_25
REMARK    6  A    between atoms: C_26  and  C_33
REMARK                            x       y       z     vdW  Elec       q    Type
REMARK                         _______ _______ _______ _____ _____    ______ ____
ROOT
ATOM      1  F   UNL     1      31.220 -22.879 -17.032  0.00  0.00    -0.221 F 
ATOM      2  F   UNL     1      31.206 -23.646 -12.342  0.00  0.00    -0.199 F 
ATOM      3  N   UNL     1      33.743 -24.305 -14.849  0.00  0.00    -0.331 NA
ATOM      4  C   UNL     1      31.163 -23.242 -14.684  0.00  0.00    +0.031 C 
ATOM      5  C   UNL     1      33.089 -23.848 -15.941  0.00  0.00    +0.298 C 
ATOM      6  C   UNL     1      33.075 -24.215 -13.686  0.00  0.00    +0.312 C 
ATOM      7  C   UNL     1      31.811 -23.313 -15.912  0.00  0.00    +0.270 C 
ATOM      8  C   UNL     1      31.804 -23.702 -13.538  0.00  0.00    +0.201 C 
ATOM      9  C   UNL     1      29.786 -22.677 -14.595  0.00  0.00    +0.032 C 
ENDROOT
BRANCH   5  10
ATOM     10  O   UNL     1      33.748 -23.930 -17.139  0.00  0.00    -0.428 OA
BRANCH  10  11
ATOM     11  C   UNL     1      34.803 -23.064 -17.344  0.00  0.00    +0.148 C 
ATOM     12  C   UNL     1      35.905 -21.424 -18.705  0.00  0.00    +0.032 C 
ATOM     13  C   UNL     1      34.837 -22.299 -18.498  0.00  0.00    +0.040 C 
ATOM     14  C   UNL     1      35.805 -22.979 -16.391  0.00  0.00    +0.038 C 
ATOM     15  C   UNL     1      36.921 -21.327 -17.755  0.00  0.00    +0.003 C 
ATOM     16  C   UNL     1      36.872 -22.105 -16.597  0.00  0.00    +0.003 C 
BRANCH  12  19
ATOM     17  N   UNL     1      34.967 -20.682 -20.811  0.00  0.00    -0.387 N 
ATOM     18  N   UNL     1      36.996 -19.796 -20.128  0.00  0.00    -0.345 N 
ATOM     19  C   UNL     1      35.957 -20.618 -19.903  0.00  0.00    +0.096 C 
ATOM     20  H   UNL     1      35.010 -20.130 -21.625  0.00  0.00    +0.157 HD
ATOM     21  H   UNL     1      34.200 -21.280 -20.661  0.00  0.00    +0.157 HD
ATOM     22  H   UNL     1      37.025 -19.251 -20.948  0.00  0.00    +0.144 HD
ATOM     23  H   UNL     1      37.729 -19.740 -19.473  0.00  0.00    +0.144 HD
ENDBRANCH  12  19
ENDBRANCH  10  11
ENDBRANCH   5  10
BRANCH   6  24
ATOM     24  O   UNL     1      33.735 -24.681 -12.561  0.00  0.00    -0.426 OA
BRANCH  24  25
ATOM     25  C   UNL     1      35.093 -24.602 -12.547  0.00  0.00    +0.148 C 
ATOM     26  C   UNL     1      37.242 -25.369 -13.340  0.00  0.00    +0.034 C 
ATOM     27  C   UNL     1      35.850 -25.450 -13.355  0.00  0.00    +0.040 C 
ATOM     28  C   UNL     1      35.729 -23.674 -11.722  0.00  0.00    +0.038 C 
ATOM     29  C   UNL     1      37.878 -24.442 -12.515  0.00  0.00    +0.003 C 
ATOM     30  C   UNL     1      37.121 -23.594 -11.706  0.00  0.00    +0.003 C 
BRANCH  26  33
ATOM     31  N   UNL     1      39.328 -26.623 -13.831  0.00  0.00    -0.343 N 
ATOM     32  N   UNL     1      37.522 -26.717 -15.310  0.00  0.00    -0.285 NA
ATOM     33  C   UNL     1      38.032 -26.253 -14.183  0.00  0.00    +0.117 C 
ATOM     34  H   UNL     1      39.845 -27.222 -14.416  0.00  0.00    +0.144 HD
ATOM     35  H   UNL     1      39.728 -26.286 -12.997  0.00  0.00    +0.144 HD
ATOM     36  H   UNL     1      38.054 -27.315 -15.882  0.00  0.00    +0.188 HD
ENDBRANCH  26  33
ENDBRANCH  24  25
ENDBRANCH   6  24
TORSDOF 6
ENDMDL
MODEL 8
REMARK VINA RESULT:     -11.1      2.957      6.090
REMARK  Name = 4470378
REMARK  6 active torsions:
REMARK  status: ('A' for Active; 'I' for Inactive)
REMARK    1  A    between atoms: C_5  and  O_10
REMARK    2  A    between atoms: C_6  and  O_24
REMARK    3  A    between atoms: O_10  and  C_11
REMARK    4  A    between atoms: C_12  and  C_19
REMARK    5  A    between atoms: O_24  and  C_25
REMARK    6  A    between atoms: C_26  and  C_33
REMARK                            x       y       z     vdW  Elec       q    Type
REMARK                         _______ _______ _______ _____ _____    ______ ____
ROOT
ATOM      1  F   UNL     1      37.200 -24.597 -15.348  0.00  0.00    -0.221 F 
ATOM      2  F   UNL     1      33.610 -24.257 -12.251  0.00  0.00    -0.199 F 
ATOM      3  N   UNL     1      33.961 -22.987 -15.632  0.00  0.00    -0.331 NA
ATOM      4  C   UNL     1      35.434 -24.455 -13.763  0.00  0.00    +0.031 C 
ATOM      5  C   UNL     1      35.205 -23.444 -15.904  0.00  0.00    +0.298 C 
ATOM      6  C   UNL     1      33.483 -23.284 -14.410  0.00  0.00    +0.312 C 
ATOM      7  C   UNL     1      35.975 -24.176 -15.014  0.00  0.00    +0.270 C 
ATOM      8  C   UNL     1      34.157 -24.002 -13.446  0.00  0.00    +0.201 C 
ATOM      9  C   UNL     1      36.219 -25.237 -12.766  0.00  0.00    +0.032 C 
ENDROOT
BRANCH   5  10
ATOM     10  O   UNL     1      35.715 -23.154 -17.142  0.00  0.00    -0.428 OA
BRANCH  10  11
ATOM     11  C   UNL     1      34.898 -22.476 -18.022  0.00  0.00    +0.148 C 
ATOM     12  C   UNL     1      34.636 -20.922 -19.832  0.00  0.00    +0.032 C 
ATOM     13  C   UNL     1      35.464 -21.609 -18.942  0.00  0.00    +0.040 C 
ATOM     14  C   UNL     1      33.528 -22.676 -17.967  0.00  0.00    +0.038 C 
ATOM     15  C   UNL     1      33.256 -21.113 -19.789  0.00  0.00    +0.003 C 
ATOM     16  C   UNL     1      32.701 -21.989 -18.856  0.00  0.00    +0.003 C 
BRANCH  12  19
ATOM     17  N   UNL     1      36.377 -19.395 -20.543  0.00  0.00    -0.387 N 
ATOM     18  N   UNL     1      34.585 -19.772 -21.963  0.00  0.00    -0.345 N 
ATOM     19  C   UNL     1      35.211 -20.013 -20.798  0.00  0.00    +0.096 C 
ATOM     20  H   UNL     1      36.762 -18.778 -21.206  0.00  0.00    +0.157 HD
ATOM     21  H   UNL     1      36.847 -19.561 -19.694  0.00  0.00    +0.157 HD
ATOM     22  H   UNL     1      34.983 -19.151 -22.615  0.00  0.00    +0.144 HD
ATOM     23  H   UNL     1      33.729 -20.215 -22.163  0.00  0.00    +0.144 HD
ENDBRANCH  12  19
ENDBRANCH  10  11
ENDBRANCH   5  10
BRANCH   6  24
ATOM     24  O   UNL     1      32.211 -22.819 -14.120  0.00  0.00    -0.426 OA
BRANCH  24  25
ATOM     25  C   UNL     1      31.158 -23.623 -14.431  0.00  0.00    +0.148 C 
ATOM     26  C   UNL     1      28.984 -23.926 -15.440  0.00  0.00    +0.034 C 
ATOM     27  C   UNL     1      30.064 -23.103 -15.122  0.00  0.00    +0.040 C 
ATOM     28  C   UNL     1      31.172 -24.967 -14.057  0.00  0.00    +0.038 C 
ATOM     29  C   UNL     1      28.997 -25.270 -15.066  0.00  0.00    +0.003 C 
ATOM     30  C   UNL     1      30.092 -25.790 -14.375  0.00  0.00    +0.003 C 
BRANCH  26  33
ATOM     31  N   UNL     1      26.942 -22.517 -15.545  0.00  0.00    -0.343 N 
ATOM     32  N   UNL     1      27.643 -23.716 -17.424  0.00  0.00    -0.285 NA
ATOM     33  C   UNL     1      27.843 -23.383 -16.161  0.00  0.00    +0.117 C 
ATOM     34  H   UNL     1      26.177 -22.161 -16.051  0.00  0.00    +0.144 HD
ATOM     35  H   UNL     1      27.072 -22.259 -14.603  0.00  0.00    +0.144 HD
ATOM     36  H   UNL     1      26.872 -23.349 -17.913  0.00  0.00    +0.188 HD
ENDBRANCH  26  33
ENDBRANCH  24  25
ENDBRANCH   6  24
TORSDOF 6
ENDMDL
MODEL 9
REMARK VINA RESULT:     -10.8      5.184     10.872
REMARK  Name = 4470378
REMARK  6 active torsions:
REMARK  status: ('A' for Active; 'I' for Inactive)
REMARK    1  A    between atoms: C_5  and  O_10
REMARK    2  A    between atoms: C_6  and  O_24
REMARK    3  A    between atoms: O_10  and  C_11
REMARK    4  A    between atoms: C_12  and  C_19
REMARK    5  A    between atoms: O_24  and  C_25
REMARK    6  A    between atoms: C_26  and  C_33
REMARK                            x       y       z     vdW  Elec       q    Type
REMARK                         _______ _______ _______ _____ _____    ______ ____
ROOT
ATOM      1  F   UNL     1      34.884 -20.518 -23.303  0.00  0.00    -0.221 F 
ATOM      2  F   UNL     1      33.893 -15.970 -24.265  0.00  0.00    -0.199 F 
ATOM      3  N   UNL     1      35.749 -17.471 -21.533  0.00  0.00    -0.331 NA
ATOM      4  C   UNL     1      34.361 -18.259 -23.828  0.00  0.00    +0.031 C 
ATOM      5  C   UNL     1      35.635 -18.771 -21.886  0.00  0.00    +0.298 C 
ATOM      6  C   UNL     1      35.154 -16.587 -22.354  0.00  0.00    +0.312 C 
ATOM      7  C   UNL     1      34.959 -19.213 -23.012  0.00  0.00    +0.270 C 
ATOM      8  C   UNL     1      34.457 -16.911 -23.498  0.00  0.00    +0.201 C 
ATOM      9  C   UNL     1      33.621 -18.678 -25.052  0.00  0.00    +0.032 C 
ENDROOT
BRANCH   5  10
ATOM     10  O   UNL     1      36.231 -19.691 -21.065  0.00  0.00    -0.428 OA
BRANCH  10  11
ATOM     11  C   UNL     1      35.409 -20.438 -20.245  0.00  0.00    +0.148 C 
ATOM     12  C   UNL     1      35.132 -21.893 -18.358  0.00  0.00    +0.032 C 
ATOM     13  C   UNL     1      35.963 -21.138 -19.186  0.00  0.00    +0.040 C 
ATOM     14  C   UNL     1      34.048 -20.471 -20.499  0.00  0.00    +0.038 C 
ATOM     15  C   UNL     1      33.759 -21.936 -18.600  0.00  0.00    +0.003 C 
ATOM     16  C   UNL     1      33.217 -21.225 -19.671  0.00  0.00    +0.003 C 
BRANCH  12  19
ATOM     17  N   UNL     1      34.911 -23.412 -16.484  0.00  0.00    -0.387 N 
ATOM     18  N   UNL     1      37.004 -22.543 -16.965  0.00  0.00    -0.345 N 
ATOM     19  C   UNL     1      35.693 -22.631 -17.249  0.00  0.00    +0.096 C 
ATOM     20  H   UNL     1      35.301 -23.911 -15.730  0.00  0.00    +0.157 HD
ATOM     21  H   UNL     1      33.948 -23.486 -16.678  0.00  0.00    +0.157 HD
ATOM     22  H   UNL     1      37.379 -23.047 -16.207  0.00  0.00    +0.144 HD
ATOM     23  H   UNL     1      37.589 -21.973 -17.515  0.00  0.00    +0.144 HD
ENDBRANCH  12  19
ENDBRANCH  10  11
ENDBRANCH   5  10
BRANCH   6  24
ATOM     24  O   UNL     1      35.262 -15.252 -22.001  0.00  0.00    -0.426 OA
BRANCH  24  25
ATOM     25  C   UNL     1      34.165 -14.647 -21.470  0.00  0.00    +0.148 C 
ATOM     26  C   UNL     1      32.479 -12.919 -21.561  0.00  0.00    +0.034 C 
ATOM     27  C   UNL     1      33.603 -13.540 -22.106  0.00  0.00    +0.040 C 
ATOM     28  C   UNL     1      33.603 -15.133 -20.289  0.00  0.00    +0.038 C 
ATOM     29  C   UNL     1      31.917 -13.404 -20.380  0.00  0.00    +0.003 C 
ATOM     30  C   UNL     1      32.479 -14.512 -19.745  0.00  0.00    +0.003 C 
BRANCH  26  33
ATOM     31  N   UNL     1      32.576 -11.084 -23.230  0.00  0.00    -0.343 N 
ATOM     32  N   UNL     1      30.693 -11.340 -21.870  0.00  0.00    -0.285 NA
ATOM     33  C   UNL     1      31.893 -11.764 -22.224  0.00  0.00    +0.117 C 
ATOM     34  H   UNL     1      32.161 -10.305 -23.666  0.00  0.00    +0.144 HD
ATOM     35  H   UNL     1      33.473 -11.382 -23.507  0.00  0.00    +0.144 HD
ATOM     36  H   UNL     1      30.296 -10.559 -22.318  0.00  0.00    +0.188 HD
ENDBRANCH  26  33
ENDBRANCH  24  25
ENDBRANCH   6  24
TORSDOF 6
ENDMDL
