MODEL 1
REMARK VINA RESULT:     -12.1      0.000      0.000
REMARK  Name = 447546
REMARK  10 active torsions:
REMARK  status: ('A' for Active; 'I' for Inactive)
REMARK    1  A    between atoms: N_1  and  C_23
REMARK    2  A    between atoms: C_8  and  N_11
REMARK    3  A    between atoms: N_12  and  C_16
REMARK    4  A    between atoms: C_16  and  C_17
REMARK    5  A    between atoms: C_23  and  C_24
REMARK    6  A    between atoms: C_24  and  C_25
REMARK    7  A    between atoms: C_25  and  N_26
REMARK    8  A    between atoms: C_25  and  C_36
REMARK    9  A    between atoms: C_30  and  C_33
REMARK   10  A    between atoms: C_36  and  O_37
REMARK                            x       y       z     vdW  Elec       q    Type
REMARK                         _______ _______ _______ _____ _____    ______ ____
ROOT
ATOM      1  N   UNL     1      33.523 -23.665 -15.906  0.00  0.00    -0.286 N 
ATOM      2  C   UNL     1      34.356 -23.005 -16.782  0.00  0.00    +0.053 C 
ATOM      3  C   UNL     1      35.648 -23.079 -16.253  0.00  0.00    +0.015 C 
ATOM      4  C   UNL     1      34.240 -24.153 -14.847  0.00  0.00    +0.065 C 
ATOM      5  C   UNL     1      35.558 -23.806 -15.034  0.00  0.00    +0.017 C 
ATOM      6  C   UNL     1      34.069 -22.355 -17.987  0.00  0.00    +0.030 C 
ATOM      7  C   UNL     1      36.705 -22.475 -16.961  0.00  0.00    +0.003 C 
ATOM      8  C   UNL     1      35.136 -21.763 -18.672  0.00  0.00    +0.053 C 
ATOM      9  C   UNL     1      36.434 -21.822 -18.169  0.00  0.00    +0.015 C 
ENDROOT
BRANCH   8  11
ATOM     10  O   UNL     1      36.771 -19.714 -20.133  0.00  0.00    -0.252 OA
ATOM     11  N   UNL     1      34.893 -21.107 -19.879  0.00  0.00    -0.268 N 
ATOM     12  N   UNL     1      35.096 -19.731 -21.727  0.00  0.00    -0.285 N 
ATOM     13  C   UNL     1      35.693 -20.148 -20.532  0.00  0.00    +0.305 C 
ATOM     14  H   UNL     1      34.054 -21.346 -20.336  0.00  0.00    +0.156 HD
ATOM     15  H   UNL     1      34.231 -20.123 -21.981  0.00  0.00    +0.151 HD
BRANCH  12  16
ATOM     16  C   UNL     1      35.693 -18.751 -22.605  0.00  0.00    +0.118 C 
BRANCH  16  17
ATOM     17  C   UNL     1      35.221 -17.359 -22.297  0.00  0.00    -0.003 C 
ATOM     18  C   UNL     1      34.940 -16.472 -23.334  0.00  0.00    -0.003 C 
ATOM     19  C   UNL     1      35.064 -16.954 -20.971  0.00  0.00    -0.003 C 
ATOM     20  C   UNL     1      34.502 -15.179 -23.047  0.00  0.00    -0.000 C 
ATOM     21  C   UNL     1      34.626 -15.661 -20.684  0.00  0.00    -0.000 C 
ATOM     22  C   UNL     1      34.345 -14.774 -21.722  0.00  0.00    -0.000 C 
ENDBRANCH  16  17
ENDBRANCH  12  16
ENDBRANCH   8  11
BRANCH   1  23
ATOM     23  C   UNL     1      32.094 -23.827 -16.067  0.00  0.00    +0.097 C 
BRANCH  23  24
ATOM     24  C   UNL     1      31.254 -23.144 -14.979  0.00  0.00    +0.040 C 
BRANCH  24  25
ATOM     25  C   UNL     1      29.931 -23.860 -14.625  0.00  0.00    +0.091 C 
BRANCH  25  26
ATOM     26  N   UNL     1      28.887 -23.710 -15.653  0.00  0.00    -0.246 NA
ATOM     27  N   UNL     1      27.431 -24.108 -17.280  0.00  0.00    -0.251 NA
ATOM     28  C   UNL     1      28.211 -22.559 -15.972  0.00  0.00    +0.125 C 
ATOM     29  C   UNL     1      28.393 -24.624 -16.459  0.00  0.00    +0.201 C 
ATOM     30  C   UNL     1      27.301 -22.781 -16.979  0.00  0.00    +0.124 C 
BRANCH  30  33
ATOM     31  O   UNL     1      26.174 -20.714 -17.184  0.00  0.00    -0.269 OA
ATOM     32  N   UNL     1      25.753 -22.290 -18.775  0.00  0.00    -0.324 N 
ATOM     33  C   UNL     1      26.402 -21.872 -17.607  0.00  0.00    +0.257 C 
ATOM     34  H   UNL     1      25.126 -21.686 -19.233  0.00  0.00    +0.145 HD
ATOM     35  H   UNL     1      25.925 -23.189 -19.140  0.00  0.00    +0.145 HD
ENDBRANCH  30  33
ENDBRANCH  25  26
BRANCH  25  36
ATOM     36  C   UNL     1      30.184 -25.348 -14.329  0.00  0.00    +0.153 C 
BRANCH  36  37
ATOM     37  O   UNL     1      30.514 -25.514 -12.955  0.00  0.00    -0.381 OA
ATOM     38  H   UNL     1      31.149 -24.831 -12.691  0.00  0.00    +0.210 HD
ENDBRANCH  36  37
ENDBRANCH  25  36
ENDBRANCH  24  25
ENDBRANCH  23  24
ENDBRANCH   1  23
TORSDOF 10
ENDMDL
MODEL 2
REMARK VINA RESULT:     -11.8      3.509      7.452
REMARK  Name = 447546
REMARK  10 active torsions:
REMARK  status: ('A' for Active; 'I' for Inactive)
REMARK    1  A    between atoms: N_1  and  C_23
REMARK    2  A    between atoms: C_8  and  N_11
REMARK    3  A    between atoms: N_12  and  C_16
REMARK    4  A    between atoms: C_16  and  C_17
REMARK    5  A    between atoms: C_23  and  C_24
REMARK    6  A    between atoms: C_24  and  C_25
REMARK    7  A    between atoms: C_25  and  N_26
REMARK    8  A    between atoms: C_25  and  C_36
REMARK    9  A    between atoms: C_30  and  C_33
REMARK   10  A    between atoms: C_36  and  O_37
REMARK                            x       y       z     vdW  Elec       q    Type
REMARK                         _______ _______ _______ _____ _____    ______ ____
ROOT
ATOM      1  N   UNL     1      32.644 -25.015 -13.587  0.00  0.00    -0.286 N 
ATOM      2  C   UNL     1      32.145 -24.330 -14.672  0.00  0.00    +0.053 C 
ATOM      3  C   UNL     1      30.757 -24.280 -14.523  0.00  0.00    +0.015 C 
ATOM      4  C   UNL     1      31.622 -25.397 -12.759  0.00  0.00    +0.065 C 
ATOM      5  C   UNL     1      30.443 -24.957 -13.312  0.00  0.00    +0.017 C 
ATOM      6  C   UNL     1      32.810 -23.757 -15.763  0.00  0.00    +0.030 C 
ATOM      7  C   UNL     1      29.993 -23.627 -15.511  0.00  0.00    +0.003 C 
ATOM      8  C   UNL     1      32.030 -23.115 -16.729  0.00  0.00    +0.053 C 
ATOM      9  C   UNL     1      30.643 -23.049 -16.607  0.00  0.00    +0.015 C 
ENDROOT
BRANCH   8  11
ATOM     10  O   UNL     1      34.942 -22.850 -17.402  0.00  0.00    -0.252 OA
ATOM     11  N   UNL     1      32.653 -22.528 -17.832  0.00  0.00    -0.268 N 
ATOM     12  N   UNL     1      34.248 -21.764 -19.322  0.00  0.00    -0.285 N 
ATOM     13  C   UNL     1      34.031 -22.427 -18.109  0.00  0.00    +0.305 C 
ATOM     14  H   UNL     1      32.051 -22.135 -18.505  0.00  0.00    +0.156 HD
ATOM     15  H   UNL     1      33.467 -21.454 -19.833  0.00  0.00    +0.151 HD
BRANCH  12  16
ATOM     16  C   UNL     1      35.566 -21.516 -19.859  0.00  0.00    +0.118 C 
BRANCH  16  17
ATOM     17  C   UNL     1      35.581 -20.337 -20.789  0.00  0.00    -0.003 C 
ATOM     18  C   UNL     1      34.505 -20.109 -21.644  0.00  0.00    -0.003 C 
ATOM     19  C   UNL     1      36.673 -19.468 -20.795  0.00  0.00    -0.003 C 
ATOM     20  C   UNL     1      34.519 -19.014 -22.508  0.00  0.00    -0.000 C 
ATOM     21  C   UNL     1      36.687 -18.372 -21.658  0.00  0.00    -0.000 C 
ATOM     22  C   UNL     1      35.610 -18.145 -22.515  0.00  0.00    -0.000 C 
ENDBRANCH  16  17
ENDBRANCH  12  16
ENDBRANCH   8  11
BRANCH   1  23
ATOM     23  C   UNL     1      34.041 -25.299 -13.341  0.00  0.00    +0.097 C 
BRANCH  23  24
ATOM     24  C   UNL     1      34.743 -24.279 -12.433  0.00  0.00    +0.040 C 
BRANCH  24  25
ATOM     25  C   UNL     1      36.100 -24.739 -11.855  0.00  0.00    +0.091 C 
BRANCH  25  26
ATOM     26  N   UNL     1      37.179 -24.793 -12.857  0.00  0.00    -0.246 NA
ATOM     27  N   UNL     1      38.520 -24.337 -14.566  0.00  0.00    -0.251 NA
ATOM     28  C   UNL     1      38.159 -25.749 -12.955  0.00  0.00    +0.125 C 
ATOM     29  C   UNL     1      37.425 -23.957 -13.842  0.00  0.00    +0.201 C 
ATOM     30  C   UNL     1      39.003 -25.487 -14.009  0.00  0.00    +0.124 C 
BRANCH  30  33
ATOM     31  O   UNL     1      40.500 -26.267 -15.664  0.00  0.00    -0.269 OA
ATOM     32  N   UNL     1      40.913 -26.891 -13.511  0.00  0.00    -0.324 N 
ATOM     33  C   UNL     1      40.141 -26.214 -14.463  0.00  0.00    +0.257 C 
ATOM     34  H   UNL     1      41.704 -27.403 -13.792  0.00  0.00    +0.145 HD
ATOM     35  H   UNL     1      40.663 -26.855 -12.559  0.00  0.00    +0.145 HD
ENDBRANCH  30  33
ENDBRANCH  25  26
BRANCH  25  36
ATOM     36  C   UNL     1      36.513 -23.851 -10.670  0.00  0.00    +0.153 C 
BRANCH  36  37
ATOM     37  O   UNL     1      36.082 -24.447  -9.452  0.00  0.00    -0.381 OA
ATOM     38  H   UNL     1      36.853 -24.635  -8.894  0.00  0.00    +0.210 HD
ENDBRANCH  36  37
ENDBRANCH  25  36
ENDBRANCH  24  25
ENDBRANCH  23  24
ENDBRANCH   1  23
TORSDOF 10
ENDMDL
MODEL 3
REMARK VINA RESULT:     -11.7      1.479      2.133
REMARK  Name = 447546
REMARK  10 active torsions:
REMARK  status: ('A' for Active; 'I' for Inactive)
REMARK    1  A    between atoms: N_1  and  C_23
REMARK    2  A    between atoms: C_8  and  N_11
REMARK    3  A    between atoms: N_12  and  C_16
REMARK    4  A    between atoms: C_16  and  C_17
REMARK    5  A    between atoms: C_23  and  C_24
REMARK    6  A    between atoms: C_24  and  C_25
REMARK    7  A    between atoms: C_25  and  N_26
REMARK    8  A    between atoms: C_25  and  C_36
REMARK    9  A    between atoms: C_30  and  C_33
REMARK   10  A    between atoms: C_36  and  O_37
REMARK                            x       y       z     vdW  Elec       q    Type
REMARK                         _______ _______ _______ _____ _____    ______ ____
ROOT
ATOM      1  N   UNL     1      34.038 -22.771 -17.314  0.00  0.00    -0.286 N 
ATOM      2  C   UNL     1      34.616 -22.042 -18.329  0.00  0.00    +0.053 C 
ATOM      3  C   UNL     1      35.988 -21.995 -18.070  0.00  0.00    +0.015 C 
ATOM      4  C   UNL     1      34.995 -23.185 -16.426  0.00  0.00    +0.065 C 
ATOM      5  C   UNL     1      36.211 -22.720 -16.867  0.00  0.00    +0.017 C 
ATOM      6  C   UNL     1      34.035 -21.428 -19.445  0.00  0.00    +0.030 C 
ATOM      7  C   UNL     1      36.823 -21.300 -18.968  0.00  0.00    +0.003 C 
ATOM      8  C   UNL     1      34.885 -20.745 -20.321  0.00  0.00    +0.053 C 
ATOM      9  C   UNL     1      36.257 -20.682 -20.088  0.00  0.00    +0.015 C 
ENDROOT
BRANCH   8  11
ATOM     10  O   UNL     1      36.171 -18.935 -22.340  0.00  0.00    -0.252 OA
ATOM     11  N   UNL     1      34.347 -20.120 -21.447  0.00  0.00    -0.268 N 
ATOM     12  N   UNL     1      34.100 -18.853 -23.365  0.00  0.00    -0.285 N 
ATOM     13  C   UNL     1      34.991 -19.275 -22.373  0.00  0.00    +0.305 C 
ATOM     14  H   UNL     1      33.392 -20.294 -21.618  0.00  0.00    +0.156 HD
ATOM     15  H   UNL     1      33.169 -19.167 -23.325  0.00  0.00    +0.151 HD
BRANCH  12  16
ATOM     16  C   UNL     1      34.484 -17.976 -24.448  0.00  0.00    +0.118 C 
BRANCH  16  17
ATOM     17  C   UNL     1      34.252 -16.532 -24.111  0.00  0.00    -0.003 C 
ATOM     18  C   UNL     1      34.777 -15.996 -22.937  0.00  0.00    -0.003 C 
ATOM     19  C   UNL     1      33.510 -15.725 -24.975  0.00  0.00    -0.003 C 
ATOM     20  C   UNL     1      34.561 -14.654 -22.624  0.00  0.00    -0.000 C 
ATOM     21  C   UNL     1      33.294 -14.383 -24.663  0.00  0.00    -0.000 C 
ATOM     22  C   UNL     1      33.820 -13.848 -23.487  0.00  0.00    -0.000 C 
ENDBRANCH  16  17
ENDBRANCH  12  16
ENDBRANCH   8  11
BRANCH   1  23
ATOM     23  C   UNL     1      32.627 -23.065 -17.188  0.00  0.00    +0.097 C 
BRANCH  23  24
ATOM     24  C   UNL     1      32.281 -24.023 -16.039  0.00  0.00    +0.040 C 
BRANCH  24  25
ATOM     25  C   UNL     1      31.290 -23.463 -14.994  0.00  0.00    +0.091 C 
BRANCH  25  26
ATOM     26  N   UNL     1      29.878 -23.598 -15.392  0.00  0.00    -0.246 NA
ATOM     27  N   UNL     1      27.935 -24.404 -16.101  0.00  0.00    -0.251 NA
ATOM     28  C   UNL     1      28.923 -22.612 -15.372  0.00  0.00    +0.125 C 
ATOM     29  C   UNL     1      29.249 -24.664 -15.836  0.00  0.00    +0.201 C 
ATOM     30  C   UNL     1      27.709 -23.089 -15.808  0.00  0.00    +0.124 C 
BRANCH  30  33
ATOM     31  O   UNL     1      25.571 -22.408 -15.062  0.00  0.00    -0.269 OA
ATOM     32  N   UNL     1      26.233 -21.687 -17.120  0.00  0.00    -0.324 N 
ATOM     33  C   UNL     1      26.463 -22.411 -15.943  0.00  0.00    +0.257 C 
ATOM     34  H   UNL     1      25.383 -21.208 -17.245  0.00  0.00    +0.145 HD
ATOM     35  H   UNL     1      26.922 -21.658 -17.823  0.00  0.00    +0.145 HD
ENDBRANCH  30  33
ENDBRANCH  25  26
BRANCH  25  36
ATOM     36  C   UNL     1      31.526 -24.115 -13.621  0.00  0.00    +0.153 C 
BRANCH  36  37
ATOM     37  O   UNL     1      31.992 -23.135 -12.701  0.00  0.00    -0.381 OA
ATOM     38  H   UNL     1      32.056 -23.528 -11.816  0.00  0.00    +0.210 HD
ENDBRANCH  36  37
ENDBRANCH  25  36
ENDBRANCH  24  25
ENDBRANCH  23  24
ENDBRANCH   1  23
TORSDOF 10
ENDMDL
MODEL 4
REMARK VINA RESULT:     -11.6      1.351      1.815
REMARK  Name = 447546
REMARK  10 active torsions:
REMARK  status: ('A' for Active; 'I' for Inactive)
REMARK    1  A    between atoms: N_1  and  C_23
REMARK    2  A    between atoms: C_8  and  N_11
REMARK    3  A    between atoms: N_12  and  C_16
REMARK    4  A    between atoms: C_16  and  C_17
REMARK    5  A    between atoms: C_23  and  C_24
REMARK    6  A    between atoms: C_24  and  C_25
REMARK    7  A    between atoms: C_25  and  N_26
REMARK    8  A    between atoms: C_25  and  C_36
REMARK    9  A    between atoms: C_30  and  C_33
REMARK   10  A    between atoms: C_36  and  O_37
REMARK                            x       y       z     vdW  Elec       q    Type
REMARK                         _______ _______ _______ _____ _____    ______ ____
ROOT
ATOM      1  N   UNL     1      34.416 -24.124 -15.018  0.00  0.00    -0.286 N 
ATOM      2  C   UNL     1      35.363 -23.388 -15.696  0.00  0.00    +0.053 C 
ATOM      3  C   UNL     1      36.566 -23.526 -14.998  0.00  0.00    +0.015 C 
ATOM      4  C   UNL     1      34.977 -24.720 -13.921  0.00  0.00    +0.065 C 
ATOM      5  C   UNL     1      36.306 -24.369 -13.882  0.00  0.00    +0.017 C 
ATOM      6  C   UNL     1      35.248 -22.620 -16.860  0.00  0.00    +0.030 C 
ATOM      7  C   UNL     1      37.711 -22.865 -15.484  0.00  0.00    +0.003 C 
ATOM      8  C   UNL     1      36.398 -21.973 -17.322  0.00  0.00    +0.053 C 
ATOM      9  C   UNL     1      37.611 -22.094 -16.648  0.00  0.00    +0.015 C 
ENDROOT
BRANCH   8  11
ATOM     10  O   UNL     1      34.463 -22.075 -19.614  0.00  0.00    -0.252 OA
ATOM     11  N   UNL     1      36.328 -21.199 -18.482  0.00  0.00    -0.268 N 
ATOM     12  N   UNL     1      35.670 -20.322 -20.518  0.00  0.00    -0.285 N 
ATOM     13  C   UNL     1      35.397 -21.281 -19.536  0.00  0.00    +0.305 C 
ATOM     14  H   UNL     1      37.018 -20.502 -18.573  0.00  0.00    +0.156 HD
ATOM     15  H   UNL     1      36.436 -19.720 -20.385  0.00  0.00    +0.151 HD
BRANCH  12  16
ATOM     16  C   UNL     1      34.877 -20.175 -21.717  0.00  0.00    +0.118 C 
BRANCH  16  17
ATOM     17  C   UNL     1      34.900 -18.766 -22.235  0.00  0.00    -0.003 C 
ATOM     18  C   UNL     1      35.280 -17.719 -21.397  0.00  0.00    -0.003 C 
ATOM     19  C   UNL     1      34.540 -18.504 -23.558  0.00  0.00    -0.003 C 
ATOM     20  C   UNL     1      35.300 -16.411 -21.879  0.00  0.00    -0.000 C 
ATOM     21  C   UNL     1      34.561 -17.195 -24.040  0.00  0.00    -0.000 C 
ATOM     22  C   UNL     1      34.941 -16.149 -23.200  0.00  0.00    -0.000 C 
ENDBRANCH  16  17
ENDBRANCH  12  16
ENDBRANCH   8  11
BRANCH   1  23
ATOM     23  C   UNL     1      33.026 -24.256 -15.397  0.00  0.00    +0.097 C 
BRANCH  23  24
ATOM     24  C   UNL     1      32.104 -23.183 -14.802  0.00  0.00    +0.040 C 
BRANCH  24  25
ATOM     25  C   UNL     1      30.871 -23.724 -14.043  0.00  0.00    +0.091 C 
BRANCH  25  26
ATOM     26  N   UNL     1      29.645 -23.754 -14.858  0.00  0.00    -0.246 NA
ATOM     27  N   UNL     1      28.027 -24.375 -16.247  0.00  0.00    -0.251 NA
ATOM     28  C   UNL     1      28.691 -22.771 -14.940  0.00  0.00    +0.125 C 
ATOM     29  C   UNL     1      29.214 -24.706 -15.657  0.00  0.00    +0.201 C 
ATOM     30  C   UNL     1      27.676 -23.134 -15.796  0.00  0.00    +0.124 C 
BRANCH  30  33
ATOM     31  O   UNL     1      25.569 -22.150 -15.372  0.00  0.00    -0.269 OA
ATOM     32  N   UNL     1      26.395 -21.968 -17.489  0.00  0.00    -0.324 N 
ATOM     33  C   UNL     1      26.502 -22.418 -16.167  0.00  0.00    +0.257 C 
ATOM     34  H   UNL     1      25.597 -21.471 -17.776  0.00  0.00    +0.145 HD
ATOM     35  H   UNL     1      27.119 -22.150 -18.131  0.00  0.00    +0.145 HD
ENDBRANCH  30  33
ENDBRANCH  25  26
BRANCH  25  36
ATOM     36  C   UNL     1      31.163 -25.117 -13.460  0.00  0.00    +0.153 C 
BRANCH  36  37
ATOM     37  O   UNL     1      30.415 -25.302 -12.264  0.00  0.00    -0.381 OA
ATOM     38  H   UNL     1      29.889 -26.113 -12.335  0.00  0.00    +0.210 HD
ENDBRANCH  36  37
ENDBRANCH  25  36
ENDBRANCH  24  25
ENDBRANCH  23  24
ENDBRANCH   1  23
TORSDOF 10
ENDMDL
MODEL 5
REMARK VINA RESULT:     -11.3      5.238     10.131
REMARK  Name = 447546
REMARK  10 active torsions:
REMARK  status: ('A' for Active; 'I' for Inactive)
REMARK    1  A    between atoms: N_1  and  C_23
REMARK    2  A    between atoms: C_8  and  N_11
REMARK    3  A    between atoms: N_12  and  C_16
REMARK    4  A    between atoms: C_16  and  C_17
REMARK    5  A    between atoms: C_23  and  C_24
REMARK    6  A    between atoms: C_24  and  C_25
REMARK    7  A    between atoms: C_25  and  N_26
REMARK    8  A    between atoms: C_25  and  C_36
REMARK    9  A    between atoms: C_30  and  C_33
REMARK   10  A    between atoms: C_36  and  O_37
REMARK                            x       y       z     vdW  Elec       q    Type
REMARK                         _______ _______ _______ _____ _____    ______ ____
ROOT
ATOM      1  N   UNL     1      34.706 -16.541 -22.968  0.00  0.00    -0.286 N 
ATOM      2  C   UNL     1      34.244 -15.363 -23.510  0.00  0.00    +0.053 C 
ATOM      3  C   UNL     1      33.879 -15.635 -24.831  0.00  0.00    +0.015 C 
ATOM      4  C   UNL     1      34.644 -17.545 -23.897  0.00  0.00    +0.065 C 
ATOM      5  C   UNL     1      34.136 -17.015 -25.060  0.00  0.00    +0.017 C 
ATOM      6  C   UNL     1      34.123 -14.091 -22.939  0.00  0.00    +0.030 C 
ATOM      7  C   UNL     1      33.367 -14.586 -25.622  0.00  0.00    +0.003 C 
ATOM      8  C   UNL     1      33.613 -13.068 -23.744  0.00  0.00    +0.053 C 
ATOM      9  C   UNL     1      33.239 -13.310 -25.064  0.00  0.00    +0.015 C 
ENDROOT
BRANCH   8  11
ATOM     10  O   UNL     1      31.369 -11.851 -22.165  0.00  0.00    -0.252 OA
ATOM     11  N   UNL     1      33.474 -11.784 -23.212  0.00  0.00    -0.268 N 
ATOM     12  N   UNL     1      32.644  -9.922 -22.120  0.00  0.00    -0.285 N 
ATOM     13  C   UNL     1      32.398 -11.254 -22.473  0.00  0.00    +0.305 C 
ATOM     14  H   UNL     1      34.226 -11.170 -23.373  0.00  0.00    +0.156 HD
ATOM     15  H   UNL     1      33.492  -9.511 -22.403  0.00  0.00    +0.151 HD
BRANCH  12  16
ATOM     16  C   UNL     1      31.712  -9.124 -21.358  0.00  0.00    +0.118 C 
BRANCH  16  17
ATOM     17  C   UNL     1      31.772  -7.673 -21.739  0.00  0.00    -0.003 C 
ATOM     18  C   UNL     1      32.284  -6.736 -20.843  0.00  0.00    -0.003 C 
ATOM     19  C   UNL     1      31.317  -7.262 -22.993  0.00  0.00    -0.003 C 
ATOM     20  C   UNL     1      32.340  -5.388 -21.198  0.00  0.00    -0.000 C 
ATOM     21  C   UNL     1      31.373  -5.914 -23.348  0.00  0.00    -0.000 C 
ATOM     22  C   UNL     1      31.885  -4.978 -22.450  0.00  0.00    -0.000 C 
ENDBRANCH  16  17
ENDBRANCH  12  16
ENDBRANCH   8  11
BRANCH   1  23
ATOM     23  C   UNL     1      35.191 -16.711 -21.615  0.00  0.00    +0.097 C 
BRANCH  23  24
ATOM     24  C   UNL     1      34.933 -18.104 -21.022  0.00  0.00    +0.040 C 
BRANCH  24  25
ATOM     25  C   UNL     1      36.202 -18.910 -20.666  0.00  0.00    +0.091 C 
BRANCH  25  26
ATOM     26  N   UNL     1      35.919 -20.181 -19.978  0.00  0.00    -0.246 NA
ATOM     27  N   UNL     1      36.108 -22.041 -18.781  0.00  0.00    -0.251 NA
ATOM     28  C   UNL     1      34.717 -20.843 -19.943  0.00  0.00    +0.125 C 
ATOM     29  C   UNL     1      36.735 -20.929 -19.269  0.00  0.00    +0.201 C 
ATOM     30  C   UNL     1      34.810 -22.001 -19.205  0.00  0.00    +0.124 C 
BRANCH  30  33
ATOM     31  O   UNL     1      33.896 -24.180 -19.254  0.00  0.00    -0.269 OA
ATOM     32  N   UNL     1      32.684 -22.568 -18.194  0.00  0.00    -0.324 N 
ATOM     33  C   UNL     1      33.812 -22.975 -18.916  0.00  0.00    +0.257 C 
ATOM     34  H   UNL     1      31.976 -23.216 -17.979  0.00  0.00    +0.145 HD
ATOM     35  H   UNL     1      32.598 -21.631 -17.902  0.00  0.00    +0.145 HD
ENDBRANCH  30  33
ENDBRANCH  25  26
BRANCH  25  36
ATOM     36  C   UNL     1      37.056 -19.158 -21.922  0.00  0.00    +0.153 C 
BRANCH  36  37
ATOM     37  O   UNL     1      38.395 -18.743 -21.679  0.00  0.00    -0.381 OA
ATOM     38  H   UNL     1      38.976 -19.520 -21.666  0.00  0.00    +0.210 HD
ENDBRANCH  36  37
ENDBRANCH  25  36
ENDBRANCH  24  25
ENDBRANCH  23  24
ENDBRANCH   1  23
TORSDOF 10
ENDMDL
MODEL 6
REMARK VINA RESULT:     -11.2      7.155     12.418
REMARK  Name = 447546
REMARK  10 active torsions:
REMARK  status: ('A' for Active; 'I' for Inactive)
REMARK    1  A    between atoms: N_1  and  C_23
REMARK    2  A    between atoms: C_8  and  N_11
REMARK    3  A    between atoms: N_12  and  C_16
REMARK    4  A    between atoms: C_16  and  C_17
REMARK    5  A    between atoms: C_23  and  C_24
REMARK    6  A    between atoms: C_24  and  C_25
REMARK    7  A    between atoms: C_25  and  N_26
REMARK    8  A    between atoms: C_25  and  C_36
REMARK    9  A    between atoms: C_30  and  C_33
REMARK   10  A    between atoms: C_36  and  O_37
REMARK                            x       y       z     vdW  Elec       q    Type
REMARK                         _______ _______ _______ _____ _____    ______ ____
ROOT
ATOM      1  N   UNL     1      33.110 -13.566 -22.078  0.00  0.00    -0.286 N 
ATOM      2  C   UNL     1      32.511 -12.353 -21.821  0.00  0.00    +0.053 C 
ATOM      3  C   UNL     1      32.005 -12.414 -20.520  0.00  0.00    +0.015 C 
ATOM      4  C   UNL     1      33.000 -14.388 -20.989  0.00  0.00    +0.065 C 
ATOM      5  C   UNL     1      32.321 -13.703 -20.009  0.00  0.00    +0.017 C 
ATOM      6  C   UNL     1      32.381 -11.219 -22.630  0.00  0.00    +0.030 C 
ATOM      7  C   UNL     1      31.334 -11.288 -20.001  0.00  0.00    +0.003 C 
ATOM      8  C   UNL     1      31.712 -10.115 -22.093  0.00  0.00    +0.053 C 
ATOM      9  C   UNL     1      31.197 -10.147 -20.798  0.00  0.00    +0.015 C 
ENDROOT
BRANCH   8  11
ATOM     10  O   UNL     1      33.634  -7.874 -22.634  0.00  0.00    -0.252 OA
ATOM     11  N   UNL     1      31.562  -8.963 -22.866  0.00  0.00    -0.268 N 
ATOM     12  N   UNL     1      31.959  -6.949 -23.932  0.00  0.00    -0.285 N 
ATOM     13  C   UNL     1      32.496  -7.932 -23.094  0.00  0.00    +0.305 C 
ATOM     14  H   UNL     1      30.691  -8.857 -23.312  0.00  0.00    +0.156 HD
ATOM     15  H   UNL     1      31.039  -7.066 -24.262  0.00  0.00    +0.151 HD
BRANCH  12  16
ATOM     16  C   UNL     1      32.692  -5.772 -24.337  0.00  0.00    +0.118 C 
BRANCH  16  17
ATOM     17  C   UNL     1      32.314  -4.568 -23.524  0.00  0.00    -0.003 C 
ATOM     18  C   UNL     1      32.003  -4.708 -22.173  0.00  0.00    -0.003 C 
ATOM     19  C   UNL     1      32.277  -3.307 -24.122  0.00  0.00    -0.003 C 
ATOM     20  C   UNL     1      31.652  -3.588 -21.418  0.00  0.00    -0.000 C 
ATOM     21  C   UNL     1      31.926  -2.188 -23.367  0.00  0.00    -0.000 C 
ATOM     22  C   UNL     1      31.614  -2.329 -22.015  0.00  0.00    -0.000 C 
ENDBRANCH  16  17
ENDBRANCH  12  16
ENDBRANCH   8  11
BRANCH   1  23
ATOM     23  C   UNL     1      33.763 -13.935 -23.316  0.00  0.00    +0.097 C 
BRANCH  23  24
ATOM     24  C   UNL     1      34.878 -14.979 -23.154  0.00  0.00    +0.040 C 
BRANCH  24  25
ATOM     25  C   UNL     1      34.734 -16.235 -24.043  0.00  0.00    +0.091 C 
BRANCH  25  26
ATOM     26  N   UNL     1      34.902 -17.499 -23.306  0.00  0.00    -0.246 NA
ATOM     27  N   UNL     1      34.809 -19.628 -22.685  0.00  0.00    -0.251 NA
ATOM     28  C   UNL     1      35.584 -17.677 -22.129  0.00  0.00    +0.125 C 
ATOM     29  C   UNL     1      34.448 -18.694 -23.614  0.00  0.00    +0.201 C 
ATOM     30  C   UNL     1      35.541 -18.991 -21.724  0.00  0.00    +0.124 C 
BRANCH  30  33
ATOM     31  O   UNL     1      37.193 -19.242 -20.052  0.00  0.00    -0.269 OA
ATOM     32  N   UNL     1      35.410 -20.659 -19.973  0.00  0.00    -0.324 N 
ATOM     33  C   UNL     1      36.111 -19.605 -20.571  0.00  0.00    +0.257 C 
ATOM     34  H   UNL     1      35.777 -21.104 -19.176  0.00  0.00    +0.145 HD
ATOM     35  H   UNL     1      34.549 -20.955 -20.350  0.00  0.00    +0.145 HD
ENDBRANCH  30  33
ENDBRANCH  25  26
BRANCH  25  36
ATOM     36  C   UNL     1      33.386 -16.221 -24.785  0.00  0.00    +0.153 C 
BRANCH  36  37
ATOM     37  O   UNL     1      33.534 -15.551 -26.032  0.00  0.00    -0.381 OA
ATOM     38  H   UNL     1      32.855 -15.865 -26.649  0.00  0.00    +0.210 HD
ENDBRANCH  36  37
ENDBRANCH  25  36
ENDBRANCH  24  25
ENDBRANCH  23  24
ENDBRANCH   1  23
TORSDOF 10
ENDMDL
MODEL 7
REMARK VINA RESULT:     -11.1      6.070     11.884
REMARK  Name = 447546
REMARK  10 active torsions:
REMARK  status: ('A' for Active; 'I' for Inactive)
REMARK    1  A    between atoms: N_1  and  C_23
REMARK    2  A    between atoms: C_8  and  N_11
REMARK    3  A    between atoms: N_12  and  C_16
REMARK    4  A    between atoms: C_16  and  C_17
REMARK    5  A    between atoms: C_23  and  C_24
REMARK    6  A    between atoms: C_24  and  C_25
REMARK    7  A    between atoms: C_25  and  N_26
REMARK    8  A    between atoms: C_25  and  C_36
REMARK    9  A    between atoms: C_30  and  C_33
REMARK   10  A    between atoms: C_36  and  O_37
REMARK                            x       y       z     vdW  Elec       q    Type
REMARK                         _______ _______ _______ _____ _____    ______ ____
ROOT
ATOM      1  N   UNL     1      33.174 -13.469 -21.755  0.00  0.00    -0.286 N 
ATOM      2  C   UNL     1      33.888 -14.616 -22.020  0.00  0.00    +0.053 C 
ATOM      3  C   UNL     1      34.201 -14.600 -23.382  0.00  0.00    +0.015 C 
ATOM      4  C   UNL     1      33.027 -12.730 -22.898  0.00  0.00    +0.065 C 
ATOM      5  C   UNL     1      33.652 -13.404 -23.921  0.00  0.00    +0.017 C 
ATOM      6  C   UNL     1      34.276 -15.657 -21.168  0.00  0.00    +0.030 C 
ATOM      7  C   UNL     1      34.937 -15.673 -23.921  0.00  0.00    +0.003 C 
ATOM      8  C   UNL     1      35.006 -16.710 -21.726  0.00  0.00    +0.053 C 
ATOM      9  C   UNL     1      35.333 -16.720 -23.080  0.00  0.00    +0.015 C 
ENDROOT
BRANCH   8  11
ATOM     10  O   UNL     1      35.009 -19.668 -22.232  0.00  0.00    -0.252 OA
ATOM     11  N   UNL     1      35.415 -17.767 -20.910  0.00  0.00    -0.268 N 
ATOM     12  N   UNL     1      35.895 -19.882 -20.107  0.00  0.00    -0.285 N 
ATOM     13  C   UNL     1      35.399 -19.148 -21.191  0.00  0.00    +0.305 C 
ATOM     14  H   UNL     1      35.761 -17.514 -20.024  0.00  0.00    +0.156 HD
ATOM     15  H   UNL     1      36.189 -19.393 -19.306  0.00  0.00    +0.151 HD
BRANCH  12  16
ATOM     16  C   UNL     1      35.995 -21.323 -20.112  0.00  0.00    +0.118 C 
BRANCH  16  17
ATOM     17  C   UNL     1      35.627 -21.916 -18.783  0.00  0.00    -0.003 C 
ATOM     18  C   UNL     1      34.360 -22.463 -18.590  0.00  0.00    -0.003 C 
ATOM     19  C   UNL     1      36.555 -21.922 -17.741  0.00  0.00    -0.003 C 
ATOM     20  C   UNL     1      34.018 -23.014 -17.355  0.00  0.00    -0.000 C 
ATOM     21  C   UNL     1      36.214 -22.473 -16.506  0.00  0.00    -0.000 C 
ATOM     22  C   UNL     1      34.945 -23.019 -16.314  0.00  0.00    -0.000 C 
ENDBRANCH  16  17
ENDBRANCH  12  16
ENDBRANCH   8  11
BRANCH   1  23
ATOM     23  C   UNL     1      32.649 -13.085 -20.462  0.00  0.00    +0.097 C 
BRANCH  23  24
ATOM     24  C   UNL     1      31.523 -12.043 -20.523  0.00  0.00    +0.040 C 
BRANCH  24  25
ATOM     25  C   UNL     1      31.914 -10.628 -20.041  0.00  0.00    +0.091 C 
BRANCH  25  26
ATOM     26  N   UNL     1      31.712  -9.583 -21.060  0.00  0.00    -0.246 NA
ATOM     27  N   UNL     1      31.170  -8.503 -22.922  0.00  0.00    -0.251 NA
ATOM     28  C   UNL     1      32.033  -8.253 -20.944  0.00  0.00    +0.125 C 
ATOM     29  C   UNL     1      31.195  -9.700 -22.263  0.00  0.00    +0.201 C 
ATOM     30  C   UNL     1      31.705  -7.563 -22.088  0.00  0.00    +0.124 C 
BRANCH  30  33
ATOM     31  O   UNL     1      32.919  -5.686 -22.859  0.00  0.00    -0.269 OA
ATOM     32  N   UNL     1      30.775  -5.328 -22.173  0.00  0.00    -0.324 N 
ATOM     33  C   UNL     1      31.865  -6.180 -22.391  0.00  0.00    +0.257 C 
ATOM     34  H   UNL     1      30.853  -4.368 -22.371  0.00  0.00    +0.145 HD
ATOM     35  H   UNL     1      29.930  -5.691 -21.820  0.00  0.00    +0.145 HD
ENDBRANCH  30  33
ENDBRANCH  25  26
BRANCH  25  36
ATOM     36  C   UNL     1      31.161 -10.269 -18.749  0.00  0.00    +0.153 C 
BRANCH  36  37
ATOM     37  O   UNL     1      32.094 -10.047 -17.697  0.00  0.00    -0.381 OA
ATOM     38  H   UNL     1      32.887 -10.585 -17.851  0.00  0.00    +0.210 HD
ENDBRANCH  36  37
ENDBRANCH  25  36
ENDBRANCH  24  25
ENDBRANCH  23  24
ENDBRANCH   1  23
TORSDOF 10
ENDMDL
MODEL 8
REMARK VINA RESULT:     -11.1      6.909     12.244
REMARK  Name = 447546
REMARK  10 active torsions:
REMARK  status: ('A' for Active; 'I' for Inactive)
REMARK    1  A    between atoms: N_1  and  C_23
REMARK    2  A    between atoms: C_8  and  N_11
REMARK    3  A    between atoms: N_12  and  C_16
REMARK    4  A    between atoms: C_16  and  C_17
REMARK    5  A    between atoms: C_23  and  C_24
REMARK    6  A    between atoms: C_24  and  C_25
REMARK    7  A    between atoms: C_25  and  N_26
REMARK    8  A    between atoms: C_25  and  C_36
REMARK    9  A    between atoms: C_30  and  C_33
REMARK   10  A    between atoms: C_36  and  O_37
REMARK                            x       y       z     vdW  Elec       q    Type
REMARK                         _______ _______ _______ _____ _____    ______ ____
ROOT
ATOM      1  N   UNL     1      32.951 -13.568 -21.940  0.00  0.00    -0.286 N 
ATOM      2  C   UNL     1      32.457 -12.319 -21.640  0.00  0.00    +0.053 C 
ATOM      3  C   UNL     1      32.038 -12.352 -20.308  0.00  0.00    +0.015 C 
ATOM      4  C   UNL     1      32.861 -14.387 -20.846  0.00  0.00    +0.065 C 
ATOM      5  C   UNL     1      32.300 -13.662 -19.820  0.00  0.00    +0.017 C 
ATOM      6  C   UNL     1      32.348 -11.174 -22.438  0.00  0.00    +0.030 C 
ATOM      7  C   UNL     1      31.483 -11.186 -19.742  0.00  0.00    +0.003 C 
ATOM      8  C   UNL     1      31.795 -10.030 -21.855  0.00  0.00    +0.053 C 
ATOM      9  C   UNL     1      31.370 -10.034 -20.528  0.00  0.00    +0.015 C 
ENDROOT
BRANCH   8  11
ATOM     10  O   UNL     1      33.064  -7.333 -21.501  0.00  0.00    -0.252 OA
ATOM     11  N   UNL     1      31.671  -8.866 -22.615  0.00  0.00    -0.268 N 
ATOM     12  N   UNL     1      31.904  -6.703 -23.400  0.00  0.00    -0.285 N 
ATOM     13  C   UNL     1      32.290  -7.616 -22.412  0.00  0.00    +0.305 C 
ATOM     14  H   UNL     1      31.075  -8.927 -23.397  0.00  0.00    +0.156 HD
ATOM     15  H   UNL     1      31.280  -7.004 -24.098  0.00  0.00    +0.151 HD
BRANCH  12  16
ATOM     16  C   UNL     1      32.383  -5.341 -23.443  0.00  0.00    +0.118 C 
BRANCH  16  17
ATOM     17  C   UNL     1      33.458  -5.155 -24.474  0.00  0.00    -0.003 C 
ATOM     18  C   UNL     1      33.329  -4.167 -25.448  0.00  0.00    -0.003 C 
ATOM     19  C   UNL     1      34.589  -5.973 -24.456  0.00  0.00    -0.003 C 
ATOM     20  C   UNL     1      34.328  -3.995 -26.406  0.00  0.00    -0.000 C 
ATOM     21  C   UNL     1      35.589  -5.801 -25.414  0.00  0.00    -0.000 C 
ATOM     22  C   UNL     1      35.458  -4.812 -26.389  0.00  0.00    -0.000 C 
ENDBRANCH  16  17
ENDBRANCH  12  16
ENDBRANCH   8  11
BRANCH   1  23
ATOM     23  C   UNL     1      33.491 -13.974 -23.219  0.00  0.00    +0.097 C 
BRANCH  23  24
ATOM     24  C   UNL     1      34.739 -14.864 -23.125  0.00  0.00    +0.040 C 
BRANCH  24  25
ATOM     25  C   UNL     1      34.728 -16.108 -24.041  0.00  0.00    +0.091 C 
BRANCH  25  26
ATOM     26  N   UNL     1      34.934 -17.374 -23.318  0.00  0.00    -0.246 NA
ATOM     27  N   UNL     1      34.874 -19.505 -22.698  0.00  0.00    -0.251 NA
ATOM     28  C   UNL     1      35.674 -17.555 -22.176  0.00  0.00    +0.125 C 
ATOM     29  C   UNL     1      34.466 -18.569 -23.606  0.00  0.00    +0.201 C 
ATOM     30  C   UNL     1      35.652 -18.869 -21.773  0.00  0.00    +0.124 C 
BRANCH  30  33
ATOM     31  O   UNL     1      37.399 -19.141 -20.204  0.00  0.00    -0.269 OA
ATOM     32  N   UNL     1      35.597 -20.521 -20.003  0.00  0.00    -0.324 N 
ATOM     33  C   UNL     1      36.280 -19.486 -20.653  0.00  0.00    +0.257 C 
ATOM     34  H   UNL     1      36.003 -20.967 -19.226  0.00  0.00    +0.145 HD
ATOM     35  H   UNL     1      34.709 -20.803 -20.323  0.00  0.00    +0.145 HD
ENDBRANCH  30  33
ENDBRANCH  25  26
BRANCH  25  36
ATOM     36  C   UNL     1      33.428 -16.164 -24.862  0.00  0.00    +0.153 C 
BRANCH  36  37
ATOM     37  O   UNL     1      33.587 -15.416 -26.062  0.00  0.00    -0.381 OA
ATOM     38  H   UNL     1      34.280 -14.749 -25.937  0.00  0.00    +0.210 HD
ENDBRANCH  36  37
ENDBRANCH  25  36
ENDBRANCH  24  25
ENDBRANCH  23  24
ENDBRANCH   1  23
TORSDOF 10
ENDMDL
MODEL 9
REMARK VINA RESULT:     -10.9      2.125      3.353
REMARK  Name = 447546
REMARK  10 active torsions:
REMARK  status: ('A' for Active; 'I' for Inactive)
REMARK    1  A    between atoms: N_1  and  C_23
REMARK    2  A    between atoms: C_8  and  N_11
REMARK    3  A    between atoms: N_12  and  C_16
REMARK    4  A    between atoms: C_16  and  C_17
REMARK    5  A    between atoms: C_23  and  C_24
REMARK    6  A    between atoms: C_24  and  C_25
REMARK    7  A    between atoms: C_25  and  N_26
REMARK    8  A    between atoms: C_25  and  C_36
REMARK    9  A    between atoms: C_30  and  C_33
REMARK   10  A    between atoms: C_36  and  O_37
REMARK                            x       y       z     vdW  Elec       q    Type
REMARK                         _______ _______ _______ _____ _____    ______ ____
ROOT
ATOM      1  N   UNL     1      35.446 -24.393 -12.608  0.00  0.00    -0.286 N 
ATOM      2  C   UNL     1      36.241 -24.047 -13.678  0.00  0.00    +0.053 C 
ATOM      3  C   UNL     1      37.487 -24.644 -13.473  0.00  0.00    +0.015 C 
ATOM      4  C   UNL     1      36.145 -25.185 -11.737  0.00  0.00    +0.065 C 
ATOM      5  C   UNL     1      37.411 -25.359 -12.246  0.00  0.00    +0.017 C 
ATOM      6  C   UNL     1      35.954 -23.260 -14.800  0.00  0.00    +0.030 C 
ATOM      7  C   UNL     1      38.499 -24.447 -14.434  0.00  0.00    +0.003 C 
ATOM      8  C   UNL     1      36.974 -23.080 -15.739  0.00  0.00    +0.053 C 
ATOM      9  C   UNL     1      38.227 -23.663 -15.562  0.00  0.00    +0.015 C 
ENDROOT
BRANCH   8  11
ATOM     10  O   UNL     1      34.651 -23.092 -17.639  0.00  0.00    -0.252 OA
ATOM     11  N   UNL     1      36.730 -22.304 -16.874  0.00  0.00    -0.268 N 
ATOM     12  N   UNL     1      35.753 -21.400 -18.765  0.00  0.00    -0.285 N 
ATOM     13  C   UNL     1      35.619 -22.344 -17.740  0.00  0.00    +0.305 C 
ATOM     14  H   UNL     1      37.424 -21.642 -17.097  0.00  0.00    +0.156 HD
ATOM     15  H   UNL     1      36.558 -20.835 -18.780  0.00  0.00    +0.151 HD
BRANCH  12  16
ATOM     16  C   UNL     1      34.763 -21.217 -19.801  0.00  0.00    +0.118 C 
BRANCH  16  17
ATOM     17  C   UNL     1      35.187 -20.188 -20.808  0.00  0.00    -0.003 C 
ATOM     18  C   UNL     1      36.424 -19.557 -20.683  0.00  0.00    -0.003 C 
ATOM     19  C   UNL     1      34.343 -19.863 -21.871  0.00  0.00    -0.003 C 
ATOM     20  C   UNL     1      36.818 -18.602 -21.619  0.00  0.00    -0.000 C 
ATOM     21  C   UNL     1      34.738 -18.907 -22.807  0.00  0.00    -0.000 C 
ATOM     22  C   UNL     1      35.975 -18.277 -22.681  0.00  0.00    -0.000 C 
ENDBRANCH  16  17
ENDBRANCH  12  16
ENDBRANCH   8  11
BRANCH   1  23
ATOM     23  C   UNL     1      34.071 -23.985 -12.415  0.00  0.00    +0.097 C 
BRANCH  23  24
ATOM     24  C   UNL     1      33.228 -23.980 -13.698  0.00  0.00    +0.040 C 
BRANCH  24  25
ATOM     25  C   UNL     1      31.699 -24.028 -13.479  0.00  0.00    +0.091 C 
BRANCH  25  26
ATOM     26  N   UNL     1      30.923 -23.570 -14.644  0.00  0.00    -0.246 NA
ATOM     27  N   UNL     1      30.336 -22.843 -16.658  0.00  0.00    -0.251 NA
ATOM     28  C   UNL     1      29.559 -23.433 -14.717  0.00  0.00    +0.125 C 
ATOM     29  C   UNL     1      31.360 -23.207 -15.829  0.00  0.00    +0.201 C 
ATOM     30  C   UNL     1      29.171 -22.984 -15.958  0.00  0.00    +0.124 C 
BRANCH  30  33
ATOM     31  O   UNL     1      27.028 -21.991 -15.859  0.00  0.00    -0.269 OA
ATOM     32  N   UNL     1      27.506 -23.254 -17.695  0.00  0.00    -0.324 N 
ATOM     33  C   UNL     1      27.866 -22.709 -16.457  0.00  0.00    +0.257 C 
ATOM     34  H   UNL     1      26.611 -23.083 -18.067  0.00  0.00    +0.145 HD
ATOM     35  H   UNL     1      28.149 -23.809 -18.194  0.00  0.00    +0.145 HD
ENDBRANCH  30  33
ENDBRANCH  25  26
BRANCH  25  36
ATOM     36  C   UNL     1      31.256 -25.440 -13.060  0.00  0.00    +0.153 C 
BRANCH  36  37
ATOM     37  O   UNL     1      30.305 -25.350 -12.005  0.00  0.00    -0.381 OA
ATOM     38  H   UNL     1      29.559 -25.941 -12.192  0.00  0.00    +0.210 HD
ENDBRANCH  36  37
ENDBRANCH  25  36
ENDBRANCH  24  25
ENDBRANCH  23  24
ENDBRANCH   1  23
TORSDOF 10
ENDMDL
