MODEL 1
REMARK VINA RESULT:     -11.9      0.000      0.000
REMARK  Name = 5326930
REMARK  4 active torsions:
REMARK  status: ('A' for Active; 'I' for Inactive)
REMARK    1  A    between atoms: C_7  and  C_21
REMARK    2  A    between atoms: C_21  and  C_22
REMARK    3  A    between atoms: C_22  and  C_23
REMARK    4  A    between atoms: C_28  and  O_29
REMARK                            x       y       z     vdW  Elec       q    Type
REMARK                         _______ _______ _______ _____ _____    ______ ____
ROOT
ATOM      1  O   UNL     1      34.695 -25.065 -11.714  0.00  0.00    -0.209 OA
ATOM      2  N   UNL     1      34.648 -23.161 -15.238  0.00  0.00    -0.275 N 
ATOM      3  N   UNL     1      29.866 -25.440 -13.752  0.00  0.00    -0.315 N 
ATOM      4  N   UNL     1      29.873 -24.376 -15.701  0.00  0.00    -0.316 N 
ATOM      5  N   UNL     1      35.830 -23.856 -13.293  0.00  0.00    -0.302 NA
ATOM      6  N   UNL     1      36.861 -22.613 -14.991  0.00  0.00    -0.320 N 
ATOM      7  C   UNL     1      32.295 -23.688 -15.599  0.00  0.00    +0.007 C 
ATOM      8  C   UNL     1      33.456 -23.758 -14.814  0.00  0.00    +0.060 C 
ATOM      9  C   UNL     1      31.121 -24.304 -15.129  0.00  0.00    +0.056 C 
ATOM     10  C   UNL     1      31.144 -24.965 -13.904  0.00  0.00    +0.060 C 
ATOM     11  C   UNL     1      33.439 -24.434 -13.584  0.00  0.00    +0.109 C 
ATOM     12  C   UNL     1      32.279 -25.055 -13.098  0.00  0.00    +0.029 C 
ATOM     13  C   UNL     1      34.701 -24.476 -12.791  0.00  0.00    +0.208 C 
ATOM     14  C   UNL     1      29.146 -25.063 -14.850  0.00  0.00    +0.182 C 
ATOM     15  C   UNL     1      35.772 -23.246 -14.447  0.00  0.00    +0.248 C 
ATOM     16  H   UNL     1      34.683 -22.682 -16.097  0.00  0.00    +0.156 HD
ATOM     17  H   UNL     1      29.530 -25.961 -12.987  0.00  0.00    +0.148 HD
ATOM     18  H   UNL     1      29.585 -23.994 -16.563  0.00  0.00    +0.148 HD
ATOM     19  H   UNL     1      36.784 -22.162 -15.863  0.00  0.00    +0.146 HD
ATOM     20  H   UNL     1      37.720 -22.611 -14.510  0.00  0.00    +0.146 HD
ENDROOT
BRANCH   7  21
ATOM     21  C   UNL     1      32.306 -22.969 -16.912  0.00  0.00    +0.034 C 
BRANCH  21  22
ATOM     22  C   UNL     1      33.420 -23.433 -17.867  0.00  0.00    +0.031 C 
BRANCH  22  23
ATOM     23  C   UNL     1      33.906 -22.342 -18.790  0.00  0.00    -0.022 C 
ATOM     24  C   UNL     1      32.982 -21.530 -19.428  0.00  0.00    -0.001 C 
ATOM     25  C   UNL     1      35.267 -22.174 -18.985  0.00  0.00    -0.001 C 
ATOM     26  C   UNL     1      33.430 -20.522 -20.281  0.00  0.00    +0.037 C 
ATOM     27  C   UNL     1      35.716 -21.166 -19.839  0.00  0.00    +0.037 C 
ATOM     28  C   UNL     1      34.797 -20.340 -20.487  0.00  0.00    +0.139 C 
BRANCH  28  29
ATOM     29  O   UNL     1      35.235 -19.358 -21.320  0.00  0.00    -0.471 OA
ATOM     30  C   UNL     1      34.734 -19.366 -22.656  0.00  0.00    +0.252 C 
ENDBRANCH  28  29
ENDBRANCH  22  23
ENDBRANCH  21  22
ENDBRANCH   7  21
TORSDOF 4
ENDMDL
MODEL 2
REMARK VINA RESULT:     -11.7      1.699      4.178
REMARK  Name = 5326930
REMARK  4 active torsions:
REMARK  status: ('A' for Active; 'I' for Inactive)
REMARK    1  A    between atoms: C_7  and  C_21
REMARK    2  A    between atoms: C_21  and  C_22
REMARK    3  A    between atoms: C_22  and  C_23
REMARK    4  A    between atoms: C_28  and  O_29
REMARK                            x       y       z     vdW  Elec       q    Type
REMARK                         _______ _______ _______ _____ _____    ______ ____
ROOT
ATOM      1  O   UNL     1      28.563 -26.003 -13.746  0.00  0.00    -0.209 OA
ATOM      2  N   UNL     1      29.861 -23.407 -16.507  0.00  0.00    -0.275 N 
ATOM      3  N   UNL     1      33.720 -25.266 -13.054  0.00  0.00    -0.315 N 
ATOM      4  N   UNL     1      34.408 -23.825 -14.598  0.00  0.00    -0.316 N 
ATOM      5  N   UNL     1      28.084 -24.656 -15.535  0.00  0.00    -0.302 NA
ATOM      6  N   UNL     1      27.744 -23.237 -17.368  0.00  0.00    -0.320 N 
ATOM      7  C   UNL     1      32.150 -23.514 -15.671  0.00  0.00    +0.007 C 
ATOM      8  C   UNL     1      30.804 -23.909 -15.604  0.00  0.00    +0.060 C 
ATOM      9  C   UNL     1      33.059 -24.049 -14.740  0.00  0.00    +0.056 C 
ATOM     10  C   UNL     1      32.602 -24.949 -13.783  0.00  0.00    +0.060 C 
ATOM     11  C   UNL     1      30.382 -24.820 -14.624  0.00  0.00    +0.109 C 
ATOM     12  C   UNL     1      31.273 -25.364 -13.687  0.00  0.00    +0.029 C 
ATOM     13  C   UNL     1      28.941 -25.206 -14.600  0.00  0.00    +0.208 C 
ATOM     14  C   UNL     1      34.772 -24.569 -13.578  0.00  0.00    +0.182 C 
ATOM     15  C   UNL     1      28.549 -23.812 -16.418  0.00  0.00    +0.248 C 
ATOM     16  H   UNL     1      30.136 -22.766 -17.202  0.00  0.00    +0.156 HD
ATOM     17  H   UNL     1      33.756 -25.884 -12.289  0.00  0.00    +0.148 HD
ATOM     18  H   UNL     1      34.979 -23.234 -15.142  0.00  0.00    +0.148 HD
ATOM     19  H   UNL     1      28.124 -22.605 -18.020  0.00  0.00    +0.146 HD
ATOM     20  H   UNL     1      26.784 -23.456 -17.398  0.00  0.00    +0.146 HD
ENDROOT
BRANCH   7  21
ATOM     21  C   UNL     1      32.607 -22.543 -16.713  0.00  0.00    +0.034 C 
BRANCH  21  22
ATOM     22  C   UNL     1      33.413 -23.187 -17.855  0.00  0.00    +0.031 C 
BRANCH  22  23
ATOM     23  C   UNL     1      33.975 -22.181 -18.829  0.00  0.00    -0.022 C 
ATOM     24  C   UNL     1      35.345 -22.123 -19.031  0.00  0.00    -0.001 C 
ATOM     25  C   UNL     1      33.112 -21.333 -19.503  0.00  0.00    -0.001 C 
ATOM     26  C   UNL     1      35.865 -21.193 -19.931  0.00  0.00    +0.037 C 
ATOM     27  C   UNL     1      33.632 -20.402 -20.404  0.00  0.00    +0.037 C 
ATOM     28  C   UNL     1      35.008 -20.333 -20.617  0.00  0.00    +0.139 C 
BRANCH  28  29
ATOM     29  O   UNL     1      35.515 -19.425 -21.495  0.00  0.00    -0.471 OA
ATOM     30  C   UNL     1      34.989 -19.437 -22.821  0.00  0.00    +0.252 C 
ENDBRANCH  28  29
ENDBRANCH  22  23
ENDBRANCH  21  22
ENDBRANCH   7  21
TORSDOF 4
ENDMDL
MODEL 3
REMARK VINA RESULT:     -11.5      1.843      2.665
REMARK  Name = 5326930
REMARK  4 active torsions:
REMARK  status: ('A' for Active; 'I' for Inactive)
REMARK    1  A    between atoms: C_7  and  C_21
REMARK    2  A    between atoms: C_21  and  C_22
REMARK    3  A    between atoms: C_22  and  C_23
REMARK    4  A    between atoms: C_28  and  O_29
REMARK                            x       y       z     vdW  Elec       q    Type
REMARK                         _______ _______ _______ _____ _____    ______ ____
ROOT
ATOM      1  O   UNL     1      36.776 -26.442 -11.555  0.00  0.00    -0.209 OA
ATOM      2  N   UNL     1      37.451 -24.524 -15.006  0.00  0.00    -0.275 N 
ATOM      3  N   UNL     1      32.406 -23.859 -12.914  0.00  0.00    -0.315 N 
ATOM      4  N   UNL     1      32.813 -22.807 -14.828  0.00  0.00    -0.316 N 
ATOM      5  N   UNL     1      38.225 -25.937 -13.255  0.00  0.00    -0.302 NA
ATOM      6  N   UNL     1      39.595 -25.335 -15.058  0.00  0.00    -0.320 N 
ATOM      7  C   UNL     1      35.192 -23.606 -15.049  0.00  0.00    +0.007 C 
ATOM      8  C   UNL     1      36.183 -24.387 -14.433  0.00  0.00    +0.060 C 
ATOM      9  C   UNL     1      33.933 -23.500 -14.432  0.00  0.00    +0.056 C 
ATOM     10  C   UNL     1      33.704 -24.170 -13.234  0.00  0.00    +0.060 C 
ATOM     11  C   UNL     1      35.914 -25.047 -13.224  0.00  0.00    +0.109 C 
ATOM     12  C   UNL     1      34.664 -24.954 -12.593  0.00  0.00    +0.029 C 
ATOM     13  C   UNL     1      37.003 -25.862 -12.613  0.00  0.00    +0.208 C 
ATOM     14  C   UNL     1      31.917 -23.045 -13.896  0.00  0.00    +0.182 C 
ATOM     15  C   UNL     1      38.403 -25.296 -14.380  0.00  0.00    +0.248 C 
ATOM     16  H   UNL     1      37.661 -24.070 -15.854  0.00  0.00    +0.156 HD
ATOM     17  H   UNL     1      31.916 -24.170 -12.119  0.00  0.00    +0.148 HD
ATOM     18  H   UNL     1      32.705 -22.253 -15.635  0.00  0.00    +0.148 HD
ATOM     19  H   UNL     1      39.697 -24.840 -15.903  0.00  0.00    +0.146 HD
ATOM     20  H   UNL     1      40.348 -25.858 -14.700  0.00  0.00    +0.146 HD
ENDROOT
BRANCH   7  21
ATOM     21  C   UNL     1      35.472 -22.900 -16.338  0.00  0.00    +0.034 C 
BRANCH  21  22
ATOM     22  C   UNL     1      34.455 -23.210 -17.452  0.00  0.00    +0.031 C 
BRANCH  22  23
ATOM     23  C   UNL     1      34.476 -22.201 -18.574  0.00  0.00    -0.022 C 
ATOM     24  C   UNL     1      35.692 -21.779 -19.087  0.00  0.00    -0.001 C 
ATOM     25  C   UNL     1      33.277 -21.714 -19.071  0.00  0.00    -0.001 C 
ATOM     26  C   UNL     1      35.711 -20.847 -20.124  0.00  0.00    +0.037 C 
ATOM     27  C   UNL     1      33.296 -20.781 -20.109  0.00  0.00    +0.037 C 
ATOM     28  C   UNL     1      34.513 -20.348 -20.635  0.00  0.00    +0.139 C 
BRANCH  28  29
ATOM     29  O   UNL     1      34.531 -19.437 -21.646  0.00  0.00    -0.471 OA
ATOM     30  C   UNL     1      35.703 -18.634 -21.778  0.00  0.00    +0.252 C 
ENDBRANCH  28  29
ENDBRANCH  22  23
ENDBRANCH  21  22
ENDBRANCH   7  21
TORSDOF 4
ENDMDL
MODEL 4
REMARK VINA RESULT:     -11.3      1.271      3.874
REMARK  Name = 5326930
REMARK  4 active torsions:
REMARK  status: ('A' for Active; 'I' for Inactive)
REMARK    1  A    between atoms: C_7  and  C_21
REMARK    2  A    between atoms: C_21  and  C_22
REMARK    3  A    between atoms: C_22  and  C_23
REMARK    4  A    between atoms: C_28  and  O_29
REMARK                            x       y       z     vdW  Elec       q    Type
REMARK                         _______ _______ _______ _____ _____    ______ ____
ROOT
ATOM      1  O   UNL     1      30.737 -25.417 -12.402  0.00  0.00    -0.209 OA
ATOM      2  N   UNL     1      30.492 -23.816 -16.065  0.00  0.00    -0.275 N 
ATOM      3  N   UNL     1      35.521 -23.780 -13.835  0.00  0.00    -0.315 N 
ATOM      4  N   UNL     1      35.352 -22.900 -15.867  0.00  0.00    -0.316 N 
ATOM      5  N   UNL     1      29.441 -24.871 -14.209  0.00  0.00    -0.302 NA
ATOM      6  N   UNL     1      28.242 -24.255 -16.126  0.00  0.00    -0.320 N 
ATOM      7  C   UNL     1      32.876 -23.304 -16.106  0.00  0.00    +0.007 C 
ATOM      8  C   UNL     1      31.750 -23.831 -15.454  0.00  0.00    +0.060 C 
ATOM      9  C   UNL     1      34.119 -23.343 -15.449  0.00  0.00    +0.056 C 
ATOM     10  C   UNL     1      34.197 -23.900 -14.176  0.00  0.00    +0.060 C 
ATOM     11  C   UNL     1      31.870 -24.384 -14.170  0.00  0.00    +0.109 C 
ATOM     12  C   UNL     1      33.100 -24.433 -13.498  0.00  0.00    +0.029 C 
ATOM     13  C   UNL     1      30.641 -24.931 -13.525  0.00  0.00    +0.208 C 
ATOM     14  C   UNL     1      36.168 -23.177 -14.876  0.00  0.00    +0.182 C 
ATOM     15  C   UNL     1      29.405 -24.340 -15.403  0.00  0.00    +0.248 C 
ATOM     16  H   UNL     1      30.385 -23.432 -16.966  0.00  0.00    +0.156 HD
ATOM     17  H   UNL     1      35.930 -24.076 -12.989  0.00  0.00    +0.148 HD
ATOM     18  H   UNL     1      35.574 -22.468 -16.724  0.00  0.00    +0.148 HD
ATOM     19  H   UNL     1      28.249 -23.850 -17.023  0.00  0.00    +0.146 HD
ATOM     20  H   UNL     1      27.401 -24.601 -15.748  0.00  0.00    +0.146 HD
ENDROOT
BRANCH   7  21
ATOM     21  C   UNL     1      32.755 -22.712 -17.475  0.00  0.00    +0.034 C 
BRANCH  21  22
ATOM     22  C   UNL     1      33.866 -23.153 -18.445  0.00  0.00    +0.031 C 
BRANCH  22  23
ATOM     23  C   UNL     1      34.466 -22.008 -19.224  0.00  0.00    -0.022 C 
ATOM     24  C   UNL     1      33.631 -21.143 -19.913  0.00  0.00    -0.001 C 
ATOM     25  C   UNL     1      35.842 -21.843 -19.237  0.00  0.00    -0.001 C 
ATOM     26  C   UNL     1      34.185 -20.085 -20.633  0.00  0.00    +0.037 C 
ATOM     27  C   UNL     1      36.397 -20.784 -19.958  0.00  0.00    +0.037 C 
ATOM     28  C   UNL     1      35.568 -19.906 -20.655  0.00  0.00    +0.139 C 
BRANCH  28  29
ATOM     29  O   UNL     1      36.110 -18.874 -21.358  0.00  0.00    -0.471 OA
ATOM     30  C   UNL     1      35.356 -17.664 -21.423  0.00  0.00    +0.252 C 
ENDBRANCH  28  29
ENDBRANCH  22  23
ENDBRANCH  21  22
ENDBRANCH   7  21
TORSDOF 4
ENDMDL
MODEL 5
REMARK VINA RESULT:     -11.1      3.120      6.115
REMARK  Name = 5326930
REMARK  4 active torsions:
REMARK  status: ('A' for Active; 'I' for Inactive)
REMARK    1  A    between atoms: C_7  and  C_21
REMARK    2  A    between atoms: C_21  and  C_22
REMARK    3  A    between atoms: C_22  and  C_23
REMARK    4  A    between atoms: C_28  and  O_29
REMARK                            x       y       z     vdW  Elec       q    Type
REMARK                         _______ _______ _______ _____ _____    ______ ____
ROOT
ATOM      1  O   UNL     1      37.226 -22.040 -16.784  0.00  0.00    -0.209 OA
ATOM      2  N   UNL     1      33.635 -23.731 -16.247  0.00  0.00    -0.275 N 
ATOM      3  N   UNL     1      37.068 -24.131 -11.966  0.00  0.00    -0.315 N 
ATOM      4  N   UNL     1      35.067 -25.058 -11.699  0.00  0.00    -0.316 N 
ATOM      5  N   UNL     1      35.154 -22.529 -17.629  0.00  0.00    -0.302 NA
ATOM      6  N   UNL     1      33.002 -23.100 -18.358  0.00  0.00    -0.320 N 
ATOM      7  C   UNL     1      34.204 -24.449 -13.987  0.00  0.00    +0.007 C 
ATOM      8  C   UNL     1      34.545 -23.805 -15.187  0.00  0.00    +0.060 C 
ATOM      9  C   UNL     1      35.155 -24.496 -12.951  0.00  0.00    +0.056 C 
ATOM     10  C   UNL     1      36.401 -23.908 -13.144  0.00  0.00    +0.060 C 
ATOM     11  C   UNL     1      35.812 -23.223 -15.343  0.00  0.00    +0.109 C 
ATOM     12  C   UNL     1      36.774 -23.260 -14.323  0.00  0.00    +0.029 C 
ATOM     13  C   UNL     1      36.120 -22.552 -16.639  0.00  0.00    +0.208 C 
ATOM     14  C   UNL     1      36.230 -24.821 -11.136  0.00  0.00    +0.182 C 
ATOM     15  C   UNL     1      33.996 -23.093 -17.412  0.00  0.00    +0.248 C 
ATOM     16  H   UNL     1      32.740 -24.133 -16.159  0.00  0.00    +0.156 HD
ATOM     17  H   UNL     1      37.986 -23.845 -11.757  0.00  0.00    +0.148 HD
ATOM     18  H   UNL     1      34.298 -25.535 -11.308  0.00  0.00    +0.148 HD
ATOM     19  H   UNL     1      32.140 -23.533 -18.164  0.00  0.00    +0.146 HD
ATOM     20  H   UNL     1      33.152 -22.671 -19.232  0.00  0.00    +0.146 HD
ENDROOT
BRANCH   7  21
ATOM     21  C   UNL     1      32.855 -25.072 -13.813  0.00  0.00    +0.034 C 
BRANCH  21  22
ATOM     22  C   UNL     1      31.757 -24.076 -13.398  0.00  0.00    +0.031 C 
BRANCH  22  23
ATOM     23  C   UNL     1      30.606 -24.017 -14.372  0.00  0.00    -0.022 C 
ATOM     24  C   UNL     1      30.484 -22.923 -15.214  0.00  0.00    -0.001 C 
ATOM     25  C   UNL     1      29.692 -25.057 -14.406  0.00  0.00    -0.001 C 
ATOM     26  C   UNL     1      29.420 -22.867 -16.114  0.00  0.00    +0.037 C 
ATOM     27  C   UNL     1      28.627 -25.002 -15.307  0.00  0.00    +0.037 C 
ATOM     28  C   UNL     1      28.492 -23.907 -16.161  0.00  0.00    +0.139 C 
BRANCH  28  29
ATOM     29  O   UNL     1      27.454 -23.854 -17.039  0.00  0.00    -0.471 OA
ATOM     30  C   UNL     1      26.851 -22.579 -17.256  0.00  0.00    +0.252 C 
ENDBRANCH  28  29
ENDBRANCH  22  23
ENDBRANCH  21  22
ENDBRANCH   7  21
TORSDOF 4
ENDMDL
MODEL 6
REMARK VINA RESULT:     -10.8      1.226      1.612
REMARK  Name = 5326930
REMARK  4 active torsions:
REMARK  status: ('A' for Active; 'I' for Inactive)
REMARK    1  A    between atoms: C_7  and  C_21
REMARK    2  A    between atoms: C_21  and  C_22
REMARK    3  A    between atoms: C_22  and  C_23
REMARK    4  A    between atoms: C_28  and  O_29
REMARK                            x       y       z     vdW  Elec       q    Type
REMARK                         _______ _______ _______ _____ _____    ______ ____
ROOT
ATOM      1  O   UNL     1      35.604 -23.823 -11.802  0.00  0.00    -0.209 OA
ATOM      2  N   UNL     1      35.800 -23.624 -15.797  0.00  0.00    -0.275 N 
ATOM      3  N   UNL     1      30.710 -23.632 -13.708  0.00  0.00    -0.315 N 
ATOM      4  N   UNL     1      30.853 -23.521 -15.922  0.00  0.00    -0.316 N 
ATOM      5  N   UNL     1      36.897 -23.751 -13.690  0.00  0.00    -0.302 NA
ATOM      6  N   UNL     1      38.090 -23.671 -15.705  0.00  0.00    -0.320 N 
ATOM      7  C   UNL     1      33.371 -23.566 -16.010  0.00  0.00    +0.007 C 
ATOM      8  C   UNL     1      34.527 -23.629 -15.216  0.00  0.00    +0.060 C 
ATOM      9  C   UNL     1      32.115 -23.574 -15.377  0.00  0.00    +0.056 C 
ATOM     10  C   UNL     1      32.053 -23.645 -13.989  0.00  0.00    +0.060 C 
ATOM     11  C   UNL     1      34.424 -23.699 -13.819  0.00  0.00    +0.109 C 
ATOM     12  C   UNL     1      33.181 -23.708 -13.169  0.00  0.00    +0.029 C 
ATOM     13  C   UNL     1      35.685 -23.762 -13.025  0.00  0.00    +0.208 C 
ATOM     14  C   UNL     1      30.036 -23.559 -14.895  0.00  0.00    +0.182 C 
ATOM     15  C   UNL     1      36.916 -23.686 -14.995  0.00  0.00    +0.248 C 
ATOM     16  H   UNL     1      35.896 -23.576 -16.776  0.00  0.00    +0.156 HD
ATOM     17  H   UNL     1      30.306 -23.671 -12.812  0.00  0.00    +0.148 HD
ATOM     18  H   UNL     1      30.614 -23.467 -16.876  0.00  0.00    +0.148 HD
ATOM     19  H   UNL     1      38.071 -23.621 -16.688  0.00  0.00    +0.146 HD
ATOM     20  H   UNL     1      38.953 -23.712 -15.230  0.00  0.00    +0.146 HD
ENDROOT
BRANCH   7  21
ATOM     21  C   UNL     1      33.474 -23.492 -17.501  0.00  0.00    +0.034 C 
BRANCH  21  22
ATOM     22  C   UNL     1      32.773 -22.266 -18.114  0.00  0.00    +0.031 C 
BRANCH  22  23
ATOM     23  C   UNL     1      33.636 -21.518 -19.101  0.00  0.00    -0.022 C 
ATOM     24  C   UNL     1      35.015 -21.579 -18.980  0.00  0.00    -0.001 C 
ATOM     25  C   UNL     1      33.034 -20.782 -20.108  0.00  0.00    -0.001 C 
ATOM     26  C   UNL     1      35.813 -20.887 -19.891  0.00  0.00    +0.037 C 
ATOM     27  C   UNL     1      33.832 -20.090 -21.020  0.00  0.00    +0.037 C 
ATOM     28  C   UNL     1      35.221 -20.143 -20.911  0.00  0.00    +0.139 C 
BRANCH  28  29
ATOM     29  O   UNL     1      35.999 -19.467 -21.800  0.00  0.00    -0.471 OA
ATOM     30  C   UNL     1      35.629 -18.121 -22.096  0.00  0.00    +0.252 C 
ENDBRANCH  28  29
ENDBRANCH  22  23
ENDBRANCH  21  22
ENDBRANCH   7  21
TORSDOF 4
ENDMDL
MODEL 7
REMARK VINA RESULT:     -10.7      3.275      5.649
REMARK  Name = 5326930
REMARK  4 active torsions:
REMARK  status: ('A' for Active; 'I' for Inactive)
REMARK    1  A    between atoms: C_7  and  C_21
REMARK    2  A    between atoms: C_21  and  C_22
REMARK    3  A    between atoms: C_22  and  C_23
REMARK    4  A    between atoms: C_28  and  O_29
REMARK                            x       y       z     vdW  Elec       q    Type
REMARK                         _______ _______ _______ _____ _____    ______ ____
ROOT
ATOM      1  O   UNL     1      37.931 -23.102 -13.157  0.00  0.00    -0.209 OA
ATOM      2  N   UNL     1      34.501 -24.836 -12.030  0.00  0.00    -0.275 N 
ATOM      3  N   UNL     1      34.541 -22.863 -17.166  0.00  0.00    -0.315 N 
ATOM      4  N   UNL     1      32.653 -23.832 -16.511  0.00  0.00    -0.316 N 
ATOM      5  N   UNL     1      36.732 -24.178 -11.530  0.00  0.00    -0.302 NA
ATOM      6  N   UNL     1      35.387 -25.287  -9.965  0.00  0.00    -0.320 N 
ATOM      7  C   UNL     1      33.461 -24.406 -14.194  0.00  0.00    +0.007 C 
ATOM      8  C   UNL     1      34.562 -24.317 -13.328  0.00  0.00    +0.060 C 
ATOM      9  C   UNL     1      33.573 -23.870 -15.490  0.00  0.00    +0.056 C 
ATOM     10  C   UNL     1      34.767 -23.268 -15.875  0.00  0.00    +0.060 C 
ATOM     11  C   UNL     1      35.750 -23.703 -13.754  0.00  0.00    +0.109 C 
ATOM     12  C   UNL     1      35.882 -23.162 -15.042  0.00  0.00    +0.029 C 
ATOM     13  C   UNL     1      36.888 -23.637 -12.793  0.00  0.00    +0.208 C 
ATOM     14  C   UNL     1      33.266 -23.221 -17.500  0.00  0.00    +0.182 C 
ATOM     15  C   UNL     1      35.596 -24.735 -11.203  0.00  0.00    +0.248 C 
ATOM     16  H   UNL     1      33.677 -25.271 -11.711  0.00  0.00    +0.156 HD
ATOM     17  H   UNL     1      35.184 -22.396 -17.747  0.00  0.00    +0.148 HD
ATOM     18  H   UNL     1      31.734 -24.185 -16.503  0.00  0.00    +0.148 HD
ATOM     19  H   UNL     1      34.519 -25.700  -9.749  0.00  0.00    +0.146 HD
ATOM     20  H   UNL     1      36.105 -25.271  -9.291  0.00  0.00    +0.146 HD
ENDROOT
BRANCH   7  21
ATOM     21  C   UNL     1      32.192 -25.060 -13.747  0.00  0.00    +0.034 C 
BRANCH  21  22
ATOM     22  C   UNL     1      31.076 -24.066 -13.374  0.00  0.00    +0.031 C 
BRANCH  22  23
ATOM     23  C   UNL     1      30.023 -23.923 -14.445  0.00  0.00    -0.022 C 
ATOM     24  C   UNL     1      29.581 -25.050 -15.119  0.00  0.00    -0.001 C 
ATOM     25  C   UNL     1      29.519 -22.666 -14.738  0.00  0.00    -0.001 C 
ATOM     26  C   UNL     1      28.608 -24.918 -16.110  0.00  0.00    +0.037 C 
ATOM     27  C   UNL     1      28.546 -22.533 -15.729  0.00  0.00    +0.037 C 
ATOM     28  C   UNL     1      28.091 -23.659 -16.414  0.00  0.00    +0.139 C 
BRANCH  28  29
ATOM     29  O   UNL     1      27.142 -23.529 -17.382  0.00  0.00    -0.471 OA
ATOM     30  C   UNL     1      26.491 -22.264 -17.489  0.00  0.00    +0.252 C 
ENDBRANCH  28  29
ENDBRANCH  22  23
ENDBRANCH  21  22
ENDBRANCH   7  21
TORSDOF 4
ENDMDL
MODEL 8
REMARK VINA RESULT:     -10.4      1.237      3.919
REMARK  Name = 5326930
REMARK  4 active torsions:
REMARK  status: ('A' for Active; 'I' for Inactive)
REMARK    1  A    between atoms: C_7  and  C_21
REMARK    2  A    between atoms: C_21  and  C_22
REMARK    3  A    between atoms: C_22  and  C_23
REMARK    4  A    between atoms: C_28  and  O_29
REMARK                            x       y       z     vdW  Elec       q    Type
REMARK                         _______ _______ _______ _____ _____    ______ ____
ROOT
ATOM      1  O   UNL     1      34.252 -25.313 -11.697  0.00  0.00    -0.209 OA
ATOM      2  N   UNL     1      32.120 -24.231 -14.911  0.00  0.00    -0.275 N 
ATOM      3  N   UNL     1      37.459 -22.916 -15.101  0.00  0.00    -0.315 N 
ATOM      4  N   UNL     1      36.249 -22.331 -16.870  0.00  0.00    -0.316 N 
ATOM      5  N   UNL     1      32.228 -25.255 -12.765  0.00  0.00    -0.302 NA
ATOM      6  N   UNL     1      30.226 -25.123 -13.976  0.00  0.00    -0.320 N 
ATOM      7  C   UNL     1      34.072 -23.254 -15.997  0.00  0.00    +0.007 C 
ATOM      8  C   UNL     1      33.484 -23.919 -14.910  0.00  0.00    +0.060 C 
ATOM      9  C   UNL     1      35.448 -22.963 -15.948  0.00  0.00    +0.056 C 
ATOM     10  C   UNL     1      36.183 -23.341 -14.828  0.00  0.00    +0.060 C 
ATOM     11  C   UNL     1      34.259 -24.284 -13.799  0.00  0.00    +0.109 C 
ATOM     12  C   UNL     1      35.631 -24.003 -13.731  0.00  0.00    +0.029 C 
ATOM     13  C   UNL     1      33.581 -24.990 -12.673  0.00  0.00    +0.208 C 
ATOM     14  C   UNL     1      37.446 -22.319 -16.331  0.00  0.00    +0.182 C 
ATOM     15  C   UNL     1      31.569 -24.885 -13.832  0.00  0.00    +0.248 C 
ATOM     16  H   UNL     1      31.557 -23.985 -15.680  0.00  0.00    +0.156 HD
ATOM     17  H   UNL     1      38.242 -23.022 -14.515  0.00  0.00    +0.148 HD
ATOM     18  H   UNL     1      35.982 -21.966 -17.745  0.00  0.00    +0.148 HD
ATOM     19  H   UNL     1      29.759 -24.832 -14.792  0.00  0.00    +0.146 HD
ATOM     20  H   UNL     1      29.729 -25.586 -13.262  0.00  0.00    +0.146 HD
ENDROOT
BRANCH   7  21
ATOM     21  C   UNL     1      33.252 -22.862 -17.185  0.00  0.00    +0.034 C 
BRANCH  21  22
ATOM     22  C   UNL     1      33.906 -23.205 -18.536  0.00  0.00    +0.031 C 
BRANCH  22  23
ATOM     23  C   UNL     1      34.170 -21.993 -19.395  0.00  0.00    -0.022 C 
ATOM     24  C   UNL     1      35.469 -21.699 -19.776  0.00  0.00    -0.001 C 
ATOM     25  C   UNL     1      33.107 -21.194 -19.786  0.00  0.00    -0.001 C 
ATOM     26  C   UNL     1      35.714 -20.579 -20.570  0.00  0.00    +0.037 C 
ATOM     27  C   UNL     1      33.351 -20.073 -20.581  0.00  0.00    +0.037 C 
ATOM     28  C   UNL     1      34.654 -19.766 -20.972  0.00  0.00    +0.139 C 
BRANCH  28  29
ATOM     29  O   UNL     1      34.892 -18.672 -21.746  0.00  0.00    -0.471 OA
ATOM     30  C   UNL     1      34.777 -18.837 -23.158  0.00  0.00    +0.252 C 
ENDBRANCH  28  29
ENDBRANCH  22  23
ENDBRANCH  21  22
ENDBRANCH   7  21
TORSDOF 4
ENDMDL
MODEL 9
REMARK VINA RESULT:     -10.1     11.342     15.170
REMARK  Name = 5326930
REMARK  4 active torsions:
REMARK  status: ('A' for Active; 'I' for Inactive)
REMARK    1  A    between atoms: C_7  and  C_21
REMARK    2  A    between atoms: C_21  and  C_22
REMARK    3  A    between atoms: C_22  and  C_23
REMARK    4  A    between atoms: C_28  and  O_29
REMARK                            x       y       z     vdW  Elec       q    Type
REMARK                         _______ _______ _______ _____ _____    ______ ____
ROOT
ATOM      1  O   UNL     1      32.572  -5.001 -21.360  0.00  0.00    -0.209 OA
ATOM      2  N   UNL     1      32.706  -8.161 -23.818  0.00  0.00    -0.275 N 
ATOM      3  N   UNL     1      31.723  -9.351 -18.537  0.00  0.00    -0.315 N 
ATOM      4  N   UNL     1      31.802 -11.082 -19.926  0.00  0.00    -0.316 N 
ATOM      5  N   UNL     1      32.855  -5.809 -23.483  0.00  0.00    -0.302 NA
ATOM      6  N   UNL     1      33.122  -6.779 -25.599  0.00  0.00    -0.320 N 
ATOM      7  C   UNL     1      32.266  -9.719 -21.994  0.00  0.00    +0.007 C 
ATOM      8  C   UNL     1      32.459  -8.410 -22.463  0.00  0.00    +0.060 C 
ATOM      9  C   UNL     1      32.020  -9.917 -20.623  0.00  0.00    +0.056 C 
ATOM     10  C   UNL     1      31.976  -8.815 -19.774  0.00  0.00    +0.060 C 
ATOM     11  C   UNL     1      32.406  -7.325 -21.576  0.00  0.00    +0.109 C 
ATOM     12  C   UNL     1      32.162  -7.501 -20.205  0.00  0.00    +0.029 C 
ATOM     13  C   UNL     1      32.617  -5.956 -22.129  0.00  0.00    +0.208 C 
ATOM     14  C   UNL     1      31.628 -10.707 -18.679  0.00  0.00    +0.182 C 
ATOM     15  C   UNL     1      32.890  -6.867 -24.250  0.00  0.00    +0.248 C 
ATOM     16  H   UNL     1      32.747  -8.907 -24.458  0.00  0.00    +0.156 HD
ATOM     17  H   UNL     1      31.627  -8.847 -17.696  0.00  0.00    +0.148 HD
ATOM     18  H   UNL     1      31.781 -12.000 -20.284  0.00  0.00    +0.148 HD
ATOM     19  H   UNL     1      33.142  -7.595 -26.150  0.00  0.00    +0.146 HD
ATOM     20  H   UNL     1      33.268  -5.899 -26.017  0.00  0.00    +0.146 HD
ENDROOT
BRANCH   7  21
ATOM     21  C   UNL     1      32.321 -10.881 -22.935  0.00  0.00    +0.034 C 
BRANCH  21  22
ATOM     22  C   UNL     1      33.745 -11.408 -23.192  0.00  0.00    +0.031 C 
BRANCH  22  23
ATOM     23  C   UNL     1      33.773 -12.841 -23.664  0.00  0.00    -0.022 C 
ATOM     24  C   UNL     1      33.358 -13.141 -24.952  0.00  0.00    -0.001 C 
ATOM     25  C   UNL     1      34.213 -13.832 -22.801  0.00  0.00    -0.001 C 
ATOM     26  C   UNL     1      33.383 -14.465 -25.389  0.00  0.00    +0.037 C 
ATOM     27  C   UNL     1      34.239 -15.157 -23.238  0.00  0.00    +0.037 C 
ATOM     28  C   UNL     1      33.824 -15.473 -24.532  0.00  0.00    +0.139 C 
BRANCH  28  29
ATOM     29  O   UNL     1      33.849 -16.766 -24.957  0.00  0.00    -0.471 OA
ATOM     30  C   UNL     1      34.548 -17.705 -24.142  0.00  0.00    +0.252 C 
ENDBRANCH  28  29
ENDBRANCH  22  23
ENDBRANCH  21  22
ENDBRANCH   7  21
TORSDOF 4
ENDMDL
