MODEL 1
REMARK VINA RESULT:     -11.5      0.000      0.000
REMARK  Name = 4369497
REMARK  6 active torsions:
REMARK  status: ('A' for Active; 'I' for Inactive)
REMARK    1  A    between atoms: N_2  and  C_9
REMARK    2  A    between atoms: C_5  and  C_21
REMARK    3  A    between atoms: C_8  and  S_14
REMARK    4  A    between atoms: C_12  and  O_19
REMARK    5  A    between atoms: S_14  and  C_17
REMARK    6  A    between atoms: C_22  and  C_28
REMARK                            x       y       z     vdW  Elec       q    Type
REMARK                         _______ _______ _______ _____ _____    ______ ____
ROOT
ATOM      1  O   UNL     1      33.585 -21.000 -19.880  0.00  0.00    -0.424 OA
ATOM      2  N   UNL     1      32.776 -22.293 -18.163  0.00  0.00    -0.265 N 
ATOM      3  N   UNL     1      35.129 -22.033 -18.591  0.00  0.00    -0.193 NA
ATOM      4  C   UNL     1      33.855 -21.816 -18.825  0.00  0.00    +0.293 C 
ATOM      5  C   UNL     1      34.819 -20.679 -20.345  0.00  0.00    +0.168 C 
ATOM      6  C   UNL     1      35.754 -21.302 -19.569  0.00  0.00    +0.141 C 
ATOM      7  H   UNL     1      31.908 -22.084 -18.579  0.00  0.00    +0.157 HD
ENDROOT
BRANCH   2   9
ATOM      8  C   UNL     1      33.796 -24.323 -15.240  0.00  0.00    +0.107 C 
ATOM      9  C   UNL     1      32.696 -23.048 -16.959  0.00  0.00    +0.087 C 
ATOM     10  C   UNL     1      33.861 -23.580 -16.419  0.00  0.00    +0.036 C 
ATOM     11  C   UNL     1      32.568 -24.528 -14.611  0.00  0.00    +0.022 C 
ATOM     12  C   UNL     1      31.469 -23.248 -16.340  0.00  0.00    +0.152 C 
ATOM     13  C   UNL     1      31.405 -23.991 -15.161  0.00  0.00    +0.040 C 
BRANCH   8  14
ATOM     14  S   UNL     1      35.252 -24.997 -14.552  0.00  0.00    +0.009 S 
ATOM     15  O   UNL     1      35.121 -24.961 -13.102  0.00  0.00    -0.169 OA
ATOM     16  O   UNL     1      35.551 -26.256 -15.220  0.00  0.00    -0.169 OA
BRANCH  14  17
ATOM     17  C   UNL     1      36.531 -23.850 -15.013  0.00  0.00    +0.156 C 
ATOM     18  C   UNL     1      37.905 -24.386 -14.678  0.00  0.00    +0.028 C 
ENDBRANCH  14  17
ENDBRANCH   8  14
BRANCH  12  19
ATOM     19  O   UNL     1      30.320 -22.732 -16.861  0.00  0.00    -0.470 OA
ATOM     20  C   UNL     1      29.111 -22.994 -16.151  0.00  0.00    +0.253 C 
ENDBRANCH  12  19
ENDBRANCH   2   9
BRANCH   5  21
ATOM     21  C   UNL     1      34.855 -19.803 -21.492  0.00  0.00    +0.036 C 
ATOM     22  C   UNL     1      34.755 -17.579 -22.430  0.00  0.00    +0.018 C 
ATOM     23  C   UNL     1      34.722 -18.425 -21.321  0.00  0.00    +0.005 C 
ATOM     24  C   UNL     1      35.020 -20.335 -22.770  0.00  0.00    +0.003 C 
ATOM     25  C   UNL     1      34.921 -18.111 -23.708  0.00  0.00    +0.001 C 
ATOM     26  C   UNL     1      35.054 -19.489 -23.879  0.00  0.00    +0.000 C 
BRANCH  22  28
ATOM     27  N   UNL     1      34.480 -15.447 -23.399  0.00  0.00    -0.244 NA
ATOM     28  C   UNL     1      34.617 -16.150 -22.254  0.00  0.00    +0.081 C 
ATOM     29  C   UNL     1      34.629 -15.585 -20.989  0.00  0.00    +0.019 C 
ATOM     30  C   UNL     1      34.492 -14.205 -20.894  0.00  0.00    +0.003 C 
ATOM     31  C   UNL     1      34.349 -14.107 -23.267  0.00  0.00    +0.099 C 
ATOM     32  C   UNL     1      34.349 -13.445 -22.050  0.00  0.00    +0.021 C 
ENDBRANCH  22  28
ENDBRANCH   5  21
TORSDOF 6
ENDMDL
MODEL 2
REMARK VINA RESULT:     -11.2      5.744     10.642
REMARK  Name = 4369497
REMARK  6 active torsions:
REMARK  status: ('A' for Active; 'I' for Inactive)
REMARK    1  A    between atoms: N_2  and  C_9
REMARK    2  A    between atoms: C_5  and  C_21
REMARK    3  A    between atoms: C_8  and  S_14
REMARK    4  A    between atoms: C_12  and  O_19
REMARK    5  A    between atoms: S_14  and  C_17
REMARK    6  A    between atoms: C_22  and  C_28
REMARK                            x       y       z     vdW  Elec       q    Type
REMARK                         _______ _______ _______ _____ _____    ______ ____
ROOT
ATOM      1  O   UNL     1      33.496 -11.478 -22.719  0.00  0.00    -0.424 OA
ATOM      2  N   UNL     1      34.207 -13.586 -23.288  0.00  0.00    -0.265 N 
ATOM      3  N   UNL     1      32.115 -13.183 -22.171  0.00  0.00    -0.193 NA
ATOM      4  C   UNL     1      33.250 -12.817 -22.722  0.00  0.00    +0.293 C 
ATOM      5  C   UNL     1      32.400 -10.964 -22.105  0.00  0.00    +0.168 C 
ATOM      6  C   UNL     1      31.564 -11.991 -21.771  0.00  0.00    +0.141 C 
ATOM      7  H   UNL     1      35.027 -13.106 -23.544  0.00  0.00    +0.157 HD
ENDROOT
BRANCH   2   9
ATOM      8  C   UNL     1      34.862 -17.215 -22.958  0.00  0.00    +0.107 C 
ATOM      9  C   UNL     1      34.215 -14.980 -23.574  0.00  0.00    +0.087 C 
ATOM     10  C   UNL     1      34.846 -15.847 -22.689  0.00  0.00    +0.036 C 
ATOM     11  C   UNL     1      34.247 -17.706 -24.110  0.00  0.00    +0.022 C 
ATOM     12  C   UNL     1      33.601 -15.461 -24.724  0.00  0.00    +0.152 C 
ATOM     13  C   UNL     1      33.617 -16.830 -24.993  0.00  0.00    +0.040 C 
BRANCH   8  14
ATOM     14  S   UNL     1      35.652 -18.313 -21.855  0.00  0.00    +0.009 S 
ATOM     15  O   UNL     1      36.965 -18.630 -22.401  0.00  0.00    -0.169 OA
ATOM     16  O   UNL     1      35.539 -17.786 -20.502  0.00  0.00    -0.169 OA
BRANCH  14  17
ATOM     17  C   UNL     1      34.663 -19.791 -21.919  0.00  0.00    +0.156 C 
ATOM     18  C   UNL     1      34.183 -20.197 -20.544  0.00  0.00    +0.028 C 
ENDBRANCH  14  17
ENDBRANCH   8  14
BRANCH  12  19
ATOM     19  O   UNL     1      32.980 -14.621 -25.599  0.00  0.00    -0.470 OA
ATOM     20  C   UNL     1      33.815 -13.861 -26.471  0.00  0.00    +0.253 C 
ENDBRANCH  12  19
ENDBRANCH   2   9
BRANCH   5  21
ATOM     21  C   UNL     1      32.374  -9.529 -21.952  0.00  0.00    +0.036 C 
ATOM     22  C   UNL     1      32.944  -7.327 -22.766  0.00  0.00    +0.018 C 
ATOM     23  C   UNL     1      32.968  -8.714 -22.916  0.00  0.00    +0.005 C 
ATOM     24  C   UNL     1      31.758  -8.958 -20.839  0.00  0.00    +0.003 C 
ATOM     25  C   UNL     1      32.328  -6.756 -21.654  0.00  0.00    +0.001 C 
ATOM     26  C   UNL     1      31.734  -7.571 -20.690  0.00  0.00    +0.000 C 
BRANCH  22  28
ATOM     27  N   UNL     1      32.775  -5.485 -24.229  0.00  0.00    -0.244 NA
ATOM     28  C   UNL     1      33.560  -6.481 -23.766  0.00  0.00    +0.081 C 
ATOM     29  C   UNL     1      34.859  -6.709 -24.187  0.00  0.00    +0.019 C 
ATOM     30  C   UNL     1      35.388  -5.857 -25.150  0.00  0.00    +0.003 C 
ATOM     31  C   UNL     1      33.322  -4.676 -25.164  0.00  0.00    +0.099 C 
ATOM     32  C   UNL     1      34.611  -4.819 -25.653  0.00  0.00    +0.021 C 
ENDBRANCH  22  28
ENDBRANCH   5  21
TORSDOF 6
ENDMDL
MODEL 3
REMARK VINA RESULT:     -11.0      1.361      1.756
REMARK  Name = 4369497
REMARK  6 active torsions:
REMARK  status: ('A' for Active; 'I' for Inactive)
REMARK    1  A    between atoms: N_2  and  C_9
REMARK    2  A    between atoms: C_5  and  C_21
REMARK    3  A    between atoms: C_8  and  S_14
REMARK    4  A    between atoms: C_12  and  O_19
REMARK    5  A    between atoms: S_14  and  C_17
REMARK    6  A    between atoms: C_22  and  C_28
REMARK                            x       y       z     vdW  Elec       q    Type
REMARK                         _______ _______ _______ _____ _____    ______ ____
ROOT
ATOM      1  O   UNL     1      34.440 -21.234 -19.449  0.00  0.00    -0.424 OA
ATOM      2  N   UNL     1      34.095 -22.547 -17.596  0.00  0.00    -0.265 N 
ATOM      3  N   UNL     1      36.289 -21.879 -18.319  0.00  0.00    -0.193 NA
ATOM      4  C   UNL     1      34.980 -21.918 -18.403  0.00  0.00    +0.293 C 
ATOM      5  C   UNL     1      35.528 -20.718 -20.074  0.00  0.00    +0.168 C 
ATOM      6  C   UNL     1      36.648 -21.106 -19.394  0.00  0.00    +0.141 C 
ATOM      7  H   UNL     1      33.162 -22.529 -17.910  0.00  0.00    +0.157 HD
ENDROOT
BRANCH   2   9
ATOM      8  C   UNL     1      35.796 -23.959 -14.626  0.00  0.00    +0.107 C 
ATOM      9  C   UNL     1      34.298 -23.227 -16.362  0.00  0.00    +0.087 C 
ATOM     10  C   UNL     1      35.582 -23.294 -15.834  0.00  0.00    +0.036 C 
ATOM     11  C   UNL     1      34.725 -24.551 -13.957  0.00  0.00    +0.022 C 
ATOM     12  C   UNL     1      33.226 -23.815 -15.703  0.00  0.00    +0.152 C 
ATOM     13  C   UNL     1      33.440 -24.479 -14.495  0.00  0.00    +0.040 C 
BRANCH   8  14
ATOM     14  S   UNL     1      37.404 -24.050 -13.952  0.00  0.00    +0.009 S 
ATOM     15  O   UNL     1      38.356 -23.880 -15.040  0.00  0.00    -0.169 OA
ATOM     16  O   UNL     1      37.477 -23.182 -12.785  0.00  0.00    -0.169 OA
BRANCH  14  17
ATOM     17  C   UNL     1      37.541 -25.723 -13.362  0.00  0.00    +0.156 C 
ATOM     18  C   UNL     1      38.369 -26.574 -14.298  0.00  0.00    +0.028 C 
ENDBRANCH  14  17
ENDBRANCH   8  14
BRANCH  12  19
ATOM     19  O   UNL     1      31.964 -23.757 -16.212  0.00  0.00    -0.470 OA
ATOM     20  C   UNL     1      30.909 -24.249 -15.388  0.00  0.00    +0.253 C 
ENDBRANCH  12  19
ENDBRANCH   2   9
BRANCH   5  21
ATOM     21  C   UNL     1      35.265 -19.923 -21.249  0.00  0.00    +0.036 C 
ATOM     22  C   UNL     1      34.847 -17.775 -22.273  0.00  0.00    +0.018 C 
ATOM     23  C   UNL     1      35.103 -18.542 -21.137  0.00  0.00    +0.005 C 
ATOM     24  C   UNL     1      35.169 -20.537 -22.498  0.00  0.00    +0.003 C 
ATOM     25  C   UNL     1      34.752 -18.389 -23.522  0.00  0.00    +0.001 C 
ATOM     26  C   UNL     1      34.914 -19.770 -23.635  0.00  0.00    +0.000 C 
BRANCH  22  28
ATOM     27  N   UNL     1      34.565 -15.687 -23.332  0.00  0.00    -0.244 NA
ATOM     28  C   UNL     1      34.679 -16.343 -22.157  0.00  0.00    +0.081 C 
ATOM     29  C   UNL     1      34.642 -15.731 -20.915  0.00  0.00    +0.019 C 
ATOM     30  C   UNL     1      34.478 -14.350 -20.878  0.00  0.00    +0.003 C 
ATOM     31  C   UNL     1      34.407 -14.346 -23.256  0.00  0.00    +0.099 C 
ATOM     32  C   UNL     1      34.358 -13.638 -22.066  0.00  0.00    +0.021 C 
ENDBRANCH  22  28
ENDBRANCH   5  21
TORSDOF 6
ENDMDL
MODEL 4
REMARK VINA RESULT:     -10.7      2.238      3.223
REMARK  Name = 4369497
REMARK  6 active torsions:
REMARK  status: ('A' for Active; 'I' for Inactive)
REMARK    1  A    between atoms: N_2  and  C_9
REMARK    2  A    between atoms: C_5  and  C_21
REMARK    3  A    between atoms: C_8  and  S_14
REMARK    4  A    between atoms: C_12  and  O_19
REMARK    5  A    between atoms: S_14  and  C_17
REMARK    6  A    between atoms: C_22  and  C_28
REMARK                            x       y       z     vdW  Elec       q    Type
REMARK                         _______ _______ _______ _____ _____    ______ ____
ROOT
ATOM      1  O   UNL     1      36.193 -21.335 -17.993  0.00  0.00    -0.424 OA
ATOM      2  N   UNL     1      35.961 -22.510 -16.032  0.00  0.00    -0.265 N 
ATOM      3  N   UNL     1      34.689 -23.024 -18.008  0.00  0.00    -0.193 NA
ATOM      4  C   UNL     1      35.577 -22.345 -17.319  0.00  0.00    +0.293 C 
ATOM      5  C   UNL     1      35.628 -21.398 -19.225  0.00  0.00    +0.168 C 
ATOM      6  C   UNL     1      34.718 -22.416 -19.238  0.00  0.00    +0.141 C 
ATOM      7  H   UNL     1      36.569 -21.816 -15.689  0.00  0.00    +0.157 HD
ENDROOT
BRANCH   2   9
ATOM      8  C   UNL     1      36.316 -25.379 -13.719  0.00  0.00    +0.107 C 
ATOM      9  C   UNL     1      35.627 -23.529 -15.097  0.00  0.00    +0.087 C 
ATOM     10  C   UNL     1      36.629 -24.375 -14.635  0.00  0.00    +0.036 C 
ATOM     11  C   UNL     1      35.003 -25.529 -13.273  0.00  0.00    +0.022 C 
ATOM     12  C   UNL     1      34.317 -23.673 -14.658  0.00  0.00    +0.152 C 
ATOM     13  C   UNL     1      34.004 -24.677 -13.742  0.00  0.00    +0.040 C 
BRANCH   8  14
ATOM     14  S   UNL     1      37.566 -26.447 -13.132  0.00  0.00    +0.009 S 
ATOM     15  O   UNL     1      37.217 -26.840 -11.774  0.00  0.00    -0.169 OA
ATOM     16  O   UNL     1      37.824 -27.468 -14.137  0.00  0.00    -0.169 OA
BRANCH  14  17
ATOM     17  C   UNL     1      39.018 -25.423 -13.048  0.00  0.00    +0.156 C 
ATOM     18  C   UNL     1      40.060 -25.855 -14.055  0.00  0.00    +0.028 C 
ENDBRANCH  14  17
ENDBRANCH   8  14
BRANCH  12  19
ATOM     19  O   UNL     1      33.327 -22.851 -15.105  0.00  0.00    -0.470 OA
ATOM     20  C   UNL     1      32.121 -23.471 -15.548  0.00  0.00    +0.253 C 
ENDBRANCH  12  19
ENDBRANCH   2   9
BRANCH   5  21
ATOM     21  C   UNL     1      36.093 -20.425 -20.185  0.00  0.00    +0.036 C 
ATOM     22  C   UNL     1      35.689 -19.031 -22.116  0.00  0.00    +0.018 C 
ATOM     23  C   UNL     1      35.238 -19.970 -21.188  0.00  0.00    +0.005 C 
ATOM     24  C   UNL     1      37.400 -19.943 -20.110  0.00  0.00    +0.003 C 
ATOM     25  C   UNL     1      36.995 -18.549 -22.041  0.00  0.00    +0.001 C 
ATOM     26  C   UNL     1      37.851 -19.004 -21.038  0.00  0.00    +0.000 C 
BRANCH  22  28
ATOM     27  N   UNL     1      34.908 -17.242 -23.439  0.00  0.00    -0.244 NA
ATOM     28  C   UNL     1      34.802 -18.559 -23.157  0.00  0.00    +0.081 C 
ATOM     29  C   UNL     1      33.927 -19.424 -23.791  0.00  0.00    +0.019 C 
ATOM     30  C   UNL     1      33.103 -18.901 -24.782  0.00  0.00    +0.003 C 
ATOM     31  C   UNL     1      34.092 -16.770 -24.408  0.00  0.00    +0.099 C 
ATOM     32  C   UNL     1      33.181 -17.550 -25.102  0.00  0.00    +0.021 C 
ENDBRANCH  22  28
ENDBRANCH   5  21
TORSDOF 6
ENDMDL
MODEL 5
REMARK VINA RESULT:     -10.7      3.005      6.005
REMARK  Name = 4369497
REMARK  6 active torsions:
REMARK  status: ('A' for Active; 'I' for Inactive)
REMARK    1  A    between atoms: N_2  and  C_9
REMARK    2  A    between atoms: C_5  and  C_21
REMARK    3  A    between atoms: C_8  and  S_14
REMARK    4  A    between atoms: C_12  and  O_19
REMARK    5  A    between atoms: S_14  and  C_17
REMARK    6  A    between atoms: C_22  and  C_28
REMARK                            x       y       z     vdW  Elec       q    Type
REMARK                         _______ _______ _______ _____ _____    ______ ____
ROOT
ATOM      1  O   UNL     1      34.581 -16.881 -22.498  0.00  0.00    -0.424 OA
ATOM      2  N   UNL     1      35.234 -18.862 -21.535  0.00  0.00    -0.265 N 
ATOM      3  N   UNL     1      35.104 -16.802 -20.300  0.00  0.00    -0.193 NA
ATOM      4  C   UNL     1      34.993 -17.540 -21.380  0.00  0.00    +0.293 C 
ATOM      5  C   UNL     1      34.420 -15.606 -22.063  0.00  0.00    +0.168 C 
ATOM      6  C   UNL     1      34.735 -15.554 -20.735  0.00  0.00    +0.141 C 
ATOM      7  H   UNL     1      35.186 -19.185 -22.464  0.00  0.00    +0.157 HD
ENDROOT
BRANCH   2   9
ATOM      8  C   UNL     1      34.837 -21.731 -19.230  0.00  0.00    +0.107 C 
ATOM      9  C   UNL     1      35.542 -19.859 -20.568  0.00  0.00    +0.087 C 
ATOM     10  C   UNL     1      34.549 -20.749 -20.178  0.00  0.00    +0.036 C 
ATOM     11  C   UNL     1      36.117 -21.814 -18.680  0.00  0.00    +0.022 C 
ATOM     12  C   UNL     1      36.819 -19.935 -20.025  0.00  0.00    +0.152 C 
ATOM     13  C   UNL     1      37.107 -20.917 -19.078  0.00  0.00    +0.040 C 
BRANCH   8  14
ATOM     14  S   UNL     1      33.598 -22.855 -18.731  0.00  0.00    +0.009 S 
ATOM     15  O   UNL     1      32.316 -22.168 -18.801  0.00  0.00    -0.169 OA
ATOM     16  O   UNL     1      33.786 -24.111 -19.442  0.00  0.00    -0.169 OA
BRANCH  14  17
ATOM     17  C   UNL     1      33.954 -23.172 -17.017  0.00  0.00    +0.156 C 
ATOM     18  C   UNL     1      32.703 -23.531 -16.248  0.00  0.00    +0.028 C 
ENDBRANCH  14  17
ENDBRANCH   8  14
BRANCH  12  19
ATOM     19  O   UNL     1      37.800 -19.067 -20.400  0.00  0.00    -0.470 OA
ATOM     20  C   UNL     1      38.010 -18.892 -21.800  0.00  0.00    +0.253 C 
ENDBRANCH  12  19
ENDBRANCH   2   9
BRANCH   5  21
ATOM     21  C   UNL     1      33.978 -14.651 -23.050  0.00  0.00    +0.036 C 
ATOM     22  C   UNL     1      33.339 -12.398 -23.645  0.00  0.00    +0.018 C 
ATOM     23  C   UNL     1      33.769 -13.320 -22.690  0.00  0.00    +0.005 C 
ATOM     24  C   UNL     1      33.757 -15.060 -24.365  0.00  0.00    +0.003 C 
ATOM     25  C   UNL     1      33.119 -12.807 -24.959  0.00  0.00    +0.001 C 
ATOM     26  C   UNL     1      33.329 -14.138 -25.320  0.00  0.00    +0.000 C 
BRANCH  22  28
ATOM     27  N   UNL     1      34.148 -10.185 -23.549  0.00  0.00    -0.244 NA
ATOM     28  C   UNL     1      33.121 -11.017 -23.271  0.00  0.00    +0.081 C 
ATOM     29  C   UNL     1      31.935 -10.620 -22.677  0.00  0.00    +0.019 C 
ATOM     30  C   UNL     1      31.794  -9.278 -22.344  0.00  0.00    +0.003 C 
ATOM     31  C   UNL     1      33.975  -8.887 -23.211  0.00  0.00    +0.099 C 
ATOM     32  C   UNL     1      32.829  -8.388 -22.613  0.00  0.00    +0.021 C 
ENDBRANCH  22  28
ENDBRANCH   5  21
TORSDOF 6
ENDMDL
MODEL 6
REMARK VINA RESULT:     -10.7      6.213     12.166
REMARK  Name = 4369497
REMARK  6 active torsions:
REMARK  status: ('A' for Active; 'I' for Inactive)
REMARK    1  A    between atoms: N_2  and  C_9
REMARK    2  A    between atoms: C_5  and  C_21
REMARK    3  A    between atoms: C_8  and  S_14
REMARK    4  A    between atoms: C_12  and  O_19
REMARK    5  A    between atoms: S_14  and  C_17
REMARK    6  A    between atoms: C_22  and  C_28
REMARK                            x       y       z     vdW  Elec       q    Type
REMARK                         _______ _______ _______ _____ _____    ______ ____
ROOT
ATOM      1  O   UNL     1      33.800 -14.797 -23.055  0.00  0.00    -0.424 OA
ATOM      2  N   UNL     1      33.124 -12.611 -23.264  0.00  0.00    -0.265 N 
ATOM      3  N   UNL     1      34.166 -13.459 -21.269  0.00  0.00    -0.193 NA
ATOM      4  C   UNL     1      33.697 -13.562 -22.491  0.00  0.00    +0.293 C 
ATOM      5  C   UNL     1      34.395 -15.531 -22.082  0.00  0.00    +0.168 C 
ATOM      6  C   UNL     1      34.617 -14.727 -21.000  0.00  0.00    +0.141 C 
ATOM      7  H   UNL     1      32.748 -12.938 -24.113  0.00  0.00    +0.157 HD
ENDROOT
BRANCH   2   9
ATOM      8  C   UNL     1      33.806  -8.974 -23.364  0.00  0.00    +0.107 C 
ATOM      9  C   UNL     1      32.981 -11.212 -23.046  0.00  0.00    +0.087 C 
ATOM     10  C   UNL     1      33.934 -10.347 -23.571  0.00  0.00    +0.036 C 
ATOM     11  C   UNL     1      32.727  -8.477 -22.632  0.00  0.00    +0.022 C 
ATOM     12  C   UNL     1      31.904 -10.725 -22.316  0.00  0.00    +0.152 C 
ATOM     13  C   UNL     1      31.776  -9.352 -22.109  0.00  0.00    +0.040 C 
BRANCH   8  14
ATOM     14  S   UNL     1      34.997  -7.877 -24.018  0.00  0.00    +0.009 S 
ATOM     15  O   UNL     1      35.662  -7.220 -22.901  0.00  0.00    -0.169 OA
ATOM     16  O   UNL     1      35.787  -8.580 -25.018  0.00  0.00    -0.169 OA
BRANCH  14  17
ATOM     17  C   UNL     1      34.040  -6.651 -24.881  0.00  0.00    +0.156 C 
ATOM     18  C   UNL     1      34.264  -6.723 -26.375  0.00  0.00    +0.028 C 
ENDBRANCH  14  17
ENDBRANCH   8  14
BRANCH  12  19
ATOM     19  O   UNL     1      30.965 -11.564 -21.796  0.00  0.00    -0.470 OA
ATOM     20  C   UNL     1      30.750 -11.502 -20.387  0.00  0.00    +0.253 C 
ENDBRANCH  12  19
ENDBRANCH   2   9
BRANCH   5  21
ATOM     21  C   UNL     1      34.641 -16.918 -22.396  0.00  0.00    +0.036 C 
ATOM     22  C   UNL     1      34.979 -19.200 -21.677  0.00  0.00    +0.018 C 
ATOM     23  C   UNL     1      34.739 -17.860 -21.372  0.00  0.00    +0.005 C 
ATOM     24  C   UNL     1      34.785 -17.316 -23.725  0.00  0.00    +0.003 C 
ATOM     25  C   UNL     1      35.122 -19.597 -23.006  0.00  0.00    +0.001 C 
ATOM     26  C   UNL     1      35.024 -18.656 -24.030  0.00  0.00    +0.000 C 
BRANCH  22  28
ATOM     27  N   UNL     1      36.324 -20.348 -20.117  0.00  0.00    -0.244 NA
ATOM     28  C   UNL     1      35.080 -20.177 -20.615  0.00  0.00    +0.081 C 
ATOM     29  C   UNL     1      33.962 -20.863 -20.172  0.00  0.00    +0.019 C 
ATOM     30  C   UNL     1      34.132 -21.788 -19.148  0.00  0.00    +0.003 C 
ATOM     31  C   UNL     1      36.451 -21.256 -19.123  0.00  0.00    +0.099 C 
ATOM     32  C   UNL     1      35.397 -21.994 -18.608  0.00  0.00    +0.021 C 
ENDBRANCH  22  28
ENDBRANCH   5  21
TORSDOF 6
ENDMDL
MODEL 7
REMARK VINA RESULT:     -10.4      2.220      4.211
REMARK  Name = 4369497
REMARK  6 active torsions:
REMARK  status: ('A' for Active; 'I' for Inactive)
REMARK    1  A    between atoms: N_2  and  C_9
REMARK    2  A    between atoms: C_5  and  C_21
REMARK    3  A    between atoms: C_8  and  S_14
REMARK    4  A    between atoms: C_12  and  O_19
REMARK    5  A    between atoms: S_14  and  C_17
REMARK    6  A    between atoms: C_22  and  C_28
REMARK                            x       y       z     vdW  Elec       q    Type
REMARK                         _______ _______ _______ _____ _____    ______ ____
ROOT
ATOM      1  O   UNL     1      36.117 -21.273 -18.086  0.00  0.00    -0.424 OA
ATOM      2  N   UNL     1      35.819 -22.445 -16.133  0.00  0.00    -0.265 N 
ATOM      3  N   UNL     1      34.453 -22.805 -18.081  0.00  0.00    -0.193 NA
ATOM      4  C   UNL     1      35.421 -22.226 -17.407  0.00  0.00    +0.293 C 
ATOM      5  C   UNL     1      35.518 -21.263 -19.303  0.00  0.00    +0.168 C 
ATOM      6  C   UNL     1      34.512 -22.187 -19.304  0.00  0.00    +0.141 C 
ATOM      7  H   UNL     1      36.500 -21.819 -15.798  0.00  0.00    +0.157 HD
ENDROOT
BRANCH   2   9
ATOM      8  C   UNL     1      33.655 -24.480 -13.923  0.00  0.00    +0.107 C 
ATOM      9  C   UNL     1      35.409 -23.440 -15.201  0.00  0.00    +0.087 C 
ATOM     10  C   UNL     1      34.069 -23.511 -14.837  0.00  0.00    +0.036 C 
ATOM     11  C   UNL     1      34.583 -25.369 -13.381  0.00  0.00    +0.022 C 
ATOM     12  C   UNL     1      36.339 -24.321 -14.665  0.00  0.00    +0.152 C 
ATOM     13  C   UNL     1      35.925 -25.290 -13.751  0.00  0.00    +0.040 C 
BRANCH   8  14
ATOM     14  S   UNL     1      31.975 -24.580 -13.458  0.00  0.00    +0.009 S 
ATOM     15  O   UNL     1      31.690 -25.963 -13.103  0.00  0.00    -0.169 OA
ATOM     16  O   UNL     1      31.684 -23.515 -12.508  0.00  0.00    -0.169 OA
BRANCH  14  17
ATOM     17  C   UNL     1      31.081 -24.203 -14.949  0.00  0.00    +0.156 C 
ATOM     18  C   UNL     1      30.064 -23.107 -14.724  0.00  0.00    +0.028 C 
ENDBRANCH  14  17
ENDBRANCH   8  14
BRANCH  12  19
ATOM     19  O   UNL     1      37.655 -24.259 -15.013  0.00  0.00    -0.470 OA
ATOM     20  C   UNL     1      38.546 -25.146 -14.340  0.00  0.00    +0.253 C 
ENDBRANCH  12  19
ENDBRANCH   2   9
BRANCH   5  21
ATOM     21  C   UNL     1      36.053 -20.328 -20.264  0.00  0.00    +0.036 C 
ATOM     22  C   UNL     1      35.742 -18.879 -22.172  0.00  0.00    +0.018 C 
ATOM     23  C   UNL     1      35.224 -19.781 -21.243  0.00  0.00    +0.005 C 
ATOM     24  C   UNL     1      37.401 -19.974 -20.214  0.00  0.00    +0.003 C 
ATOM     25  C   UNL     1      37.090 -18.524 -22.122  0.00  0.00    +0.001 C 
ATOM     26  C   UNL     1      37.920 -19.071 -21.143  0.00  0.00    +0.000 C 
BRANCH  22  28
ATOM     27  N   UNL     1      35.035 -16.985 -23.386  0.00  0.00    -0.244 NA
ATOM     28  C   UNL     1      34.882 -18.312 -23.188  0.00  0.00    +0.081 C 
ATOM     29  C   UNL     1      33.984 -19.105 -23.882  0.00  0.00    +0.019 C 
ATOM     30  C   UNL     1      33.189 -18.493 -24.845  0.00  0.00    +0.003 C 
ATOM     31  C   UNL     1      34.245 -16.425 -24.329  0.00  0.00    +0.099 C 
ATOM     32  C   UNL     1      33.315 -17.129 -25.078  0.00  0.00    +0.021 C 
ENDBRANCH  22  28
ENDBRANCH   5  21
TORSDOF 6
ENDMDL
MODEL 8
REMARK VINA RESULT:     -10.1      2.044      4.352
REMARK  Name = 4369497
REMARK  6 active torsions:
REMARK  status: ('A' for Active; 'I' for Inactive)
REMARK    1  A    between atoms: N_2  and  C_9
REMARK    2  A    between atoms: C_5  and  C_21
REMARK    3  A    between atoms: C_8  and  S_14
REMARK    4  A    between atoms: C_12  and  O_19
REMARK    5  A    between atoms: S_14  and  C_17
REMARK    6  A    between atoms: C_22  and  C_28
REMARK                            x       y       z     vdW  Elec       q    Type
REMARK                         _______ _______ _______ _____ _____    ______ ____
ROOT
ATOM      1  O   UNL     1      34.640 -21.734 -17.915  0.00  0.00    -0.424 OA
ATOM      2  N   UNL     1      33.760 -22.885 -16.132  0.00  0.00    -0.265 N 
ATOM      3  N   UNL     1      32.641 -22.734 -18.256  0.00  0.00    -0.193 NA
ATOM      4  C   UNL     1      33.622 -22.490 -17.419  0.00  0.00    +0.293 C 
ATOM      5  C   UNL     1      34.247 -21.487 -19.190  0.00  0.00    +0.168 C 
ATOM      6  C   UNL     1      33.039 -22.089 -19.400  0.00  0.00    +0.141 C 
ATOM      7  H   UNL     1      34.531 -22.496 -15.660  0.00  0.00    +0.157 HD
ENDROOT
BRANCH   2   9
ATOM      8  C   UNL     1      30.817 -24.733 -14.857  0.00  0.00    +0.107 C 
ATOM      9  C   UNL     1      32.968 -23.775 -15.355  0.00  0.00    +0.087 C 
ATOM     10  C   UNL     1      31.605 -23.865 -15.613  0.00  0.00    +0.036 C 
ATOM     11  C   UNL     1      31.397 -25.503 -13.850  0.00  0.00    +0.022 C 
ATOM     12  C   UNL     1      33.554 -24.538 -14.352  0.00  0.00    +0.152 C 
ATOM     13  C   UNL     1      32.765 -25.406 -13.597  0.00  0.00    +0.040 C 
BRANCH   8  14
ATOM     14  S   UNL     1      29.104 -24.856 -15.172  0.00  0.00    +0.009 S 
ATOM     15  O   UNL     1      28.932 -25.390 -16.516  0.00  0.00    -0.169 OA
ATOM     16  O   UNL     1      28.462 -25.516 -14.044  0.00  0.00    -0.169 OA
BRANCH  14  17
ATOM     17  C   UNL     1      28.535 -23.170 -15.178  0.00  0.00    +0.156 C 
ATOM     18  C   UNL     1      27.837 -22.825 -16.474  0.00  0.00    +0.028 C 
ENDBRANCH  14  17
ENDBRANCH   8  14
BRANCH  12  19
ATOM     19  O   UNL     1      34.888 -24.456 -14.089  0.00  0.00    -0.470 OA
ATOM     20  C   UNL     1      35.655 -25.647 -14.256  0.00  0.00    +0.253 C 
ENDBRANCH  12  19
ENDBRANCH   2   9
BRANCH   5  21
ATOM     21  C   UNL     1      35.146 -20.687 -19.986  0.00  0.00    +0.036 C 
ATOM     22  C   UNL     1      35.512 -19.080 -21.753  0.00  0.00    +0.018 C 
ATOM     23  C   UNL     1      34.641 -19.851 -20.983  0.00  0.00    +0.005 C 
ATOM     24  C   UNL     1      36.521 -20.753 -19.761  0.00  0.00    +0.003 C 
ATOM     25  C   UNL     1      36.887 -19.145 -21.527  0.00  0.00    +0.001 C 
ATOM     26  C   UNL     1      37.391 -19.981 -20.531  0.00  0.00    +0.000 C 
BRANCH  22  28
ATOM     27  N   UNL     1      35.232 -16.897 -22.601  0.00  0.00    -0.244 NA
ATOM     28  C   UNL     1      34.989 -18.213 -22.787  0.00  0.00    +0.081 C 
ATOM     29  C   UNL     1      34.298 -18.733 -23.868  0.00  0.00    +0.019 C 
ATOM     30  C   UNL     1      33.824 -17.842 -24.824  0.00  0.00    +0.003 C 
ATOM     31  C   UNL     1      34.755 -16.061 -23.550  0.00  0.00    +0.099 C 
ATOM     32  C   UNL     1      34.052 -16.479 -24.669  0.00  0.00    +0.021 C 
ENDBRANCH  22  28
ENDBRANCH   5  21
TORSDOF 6
ENDMDL
MODEL 9
REMARK VINA RESULT:     -10.1      9.853     15.993
REMARK  Name = 4369497
REMARK  6 active torsions:
REMARK  status: ('A' for Active; 'I' for Inactive)
REMARK    1  A    between atoms: N_2  and  C_9
REMARK    2  A    between atoms: C_5  and  C_21
REMARK    3  A    between atoms: C_8  and  S_14
REMARK    4  A    between atoms: C_12  and  O_19
REMARK    5  A    between atoms: S_14  and  C_17
REMARK    6  A    between atoms: C_22  and  C_28
REMARK                            x       y       z     vdW  Elec       q    Type
REMARK                         _______ _______ _______ _____ _____    ______ ____
ROOT
ATOM      1  O   UNL     1      33.026  -9.609 -23.237  0.00  0.00    -0.424 OA
ATOM      2  N   UNL     1      33.352  -7.665 -24.416  0.00  0.00    -0.265 N 
ATOM      3  N   UNL     1      31.218  -8.274 -23.487  0.00  0.00    -0.193 NA
ATOM      4  C   UNL     1      32.495  -8.458 -23.734  0.00  0.00    +0.293 C 
ATOM      5  C   UNL     1      31.969 -10.194 -22.618  0.00  0.00    +0.168 C 
ATOM      6  C   UNL     1      30.875  -9.390 -22.768  0.00  0.00    +0.141 C 
ATOM      7  H   UNL     1      34.243  -8.054 -24.570  0.00  0.00    +0.157 HD
ENDROOT
BRANCH   2   9
ATOM      8  C   UNL     1      32.237  -4.148 -24.727  0.00  0.00    +0.107 C 
ATOM      9  C   UNL     1      33.170  -6.356 -24.945  0.00  0.00    +0.087 C 
ATOM     10  C   UNL     1      32.424  -5.434 -24.220  0.00  0.00    +0.036 C 
ATOM     11  C   UNL     1      32.797  -3.795 -25.955  0.00  0.00    +0.022 C 
ATOM     12  C   UNL     1      33.731  -6.012 -26.168  0.00  0.00    +0.152 C 
ATOM     13  C   UNL     1      33.544  -4.727 -26.675  0.00  0.00    +0.040 C 
BRANCH   8  14
ATOM     14  S   UNL     1      31.302  -2.982 -23.826  0.00  0.00    +0.009 S 
ATOM     15  O   UNL     1      32.116  -1.786 -23.660  0.00  0.00    -0.169 OA
ATOM     16  O   UNL     1      29.977  -2.877 -24.421  0.00  0.00    -0.169 OA
BRANCH  14  17
ATOM     17  C   UNL     1      31.092  -3.726 -22.224  0.00  0.00    +0.156 C 
ATOM     18  C   UNL     1      32.063  -3.155 -21.216  0.00  0.00    +0.028 C 
ENDBRANCH  14  17
ENDBRANCH   8  14
BRANCH  12  19
ATOM     19  O   UNL     1      34.463  -6.909 -26.888  0.00  0.00    -0.470 OA
ATOM     20  C   UNL     1      35.491  -6.382 -27.725  0.00  0.00    +0.253 C 
ENDBRANCH  12  19
ENDBRANCH   2   9
BRANCH   5  21
ATOM     21  C   UNL     1      32.232 -11.462 -21.980  0.00  0.00    +0.036 C 
ATOM     22  C   UNL     1      33.087 -13.719 -22.083  0.00  0.00    +0.018 C 
ATOM     23  C   UNL     1      32.836 -12.493 -22.699  0.00  0.00    +0.005 C 
ATOM     24  C   UNL     1      31.877 -11.657 -20.646  0.00  0.00    +0.003 C 
ATOM     25  C   UNL     1      32.733 -13.914 -20.748  0.00  0.00    +0.001 C 
ATOM     26  C   UNL     1      32.129 -12.882 -20.029  0.00  0.00    +0.000 C 
BRANCH  22  28
ATOM     27  N   UNL     1      33.345 -14.871 -24.124  0.00  0.00    -0.244 NA
ATOM     28  C   UNL     1      33.714 -14.789 -22.828  0.00  0.00    +0.081 C 
ATOM     29  C   UNL     1      34.619 -15.643 -22.220  0.00  0.00    +0.019 C 
ATOM     30  C   UNL     1      35.184 -16.649 -22.996  0.00  0.00    +0.003 C 
ATOM     31  C   UNL     1      33.914 -15.861 -24.848  0.00  0.00    +0.099 C 
ATOM     32  C   UNL     1      34.829 -16.767 -24.335  0.00  0.00    +0.021 C 
ENDBRANCH  22  28
ENDBRANCH   5  21
TORSDOF 6
ENDMDL
