MODEL 1
REMARK VINA RESULT:     -12.5      0.000      0.000
REMARK  Name = 54671008
REMARK  7 active torsions:
REMARK  status: ('A' for Active; 'I' for Inactive)
REMARK    1  A    between atoms: C_4  and  C_21
REMARK    2  A    between atoms: C_6  and  C_11
REMARK    3  A    between atoms: C_8  and  O_34
REMARK    4  A    between atoms: N_10  and  C_13
REMARK    5  A    between atoms: C_13  and  C_15
REMARK    6  A    between atoms: C_21  and  N_25
REMARK    7  A    between atoms: C_26  and  C_31
REMARK                            x       y       z     vdW  Elec       q    Type
REMARK                         _______ _______ _______ _____ _____    ______ ____
ROOT
ATOM      1  O   UNL     1      36.148 -23.453 -14.247  0.00  0.00    -0.271 OA
ATOM      2  N   UNL     1      33.835 -23.814 -14.195  0.00  0.00    -0.232 N 
ATOM      3  N   UNL     1      32.583 -23.592 -16.204  0.00  0.00    -0.386 NA
ATOM      4  C   UNL     1      32.654 -23.841 -14.932  0.00  0.00    +0.182 C 
ATOM      5  C   UNL     1      35.054 -23.506 -14.806  0.00  0.00    +0.265 C 
ATOM      6  C   UNL     1      33.754 -23.288 -16.843  0.00  0.00    +0.199 C 
ATOM      7  C   UNL     1      33.799 -24.113 -12.764  0.00  0.00    +0.122 C 
ATOM      8  C   UNL     1      34.961 -23.224 -16.265  0.00  0.00    +0.245 C 
ENDROOT
BRANCH   6  11
ATOM      9  O   UNL     1      33.810 -23.907 -19.108  0.00  0.00    -0.268 OA
ATOM     10  N   UNL     1      33.362 -21.687 -18.554  0.00  0.00    -0.295 N 
ATOM     11  C   UNL     1      33.648 -23.011 -18.283  0.00  0.00    +0.275 C 
ATOM     12  H   UNL     1      33.256 -21.066 -17.798  0.00  0.00    +0.150 HD
BRANCH  10  13
ATOM     13  C   UNL     1      33.210 -21.169 -19.895  0.00  0.00    +0.117 C 
BRANCH  13  15
ATOM     14  F   UNL     1      37.913 -18.684 -21.741  0.00  0.00    -0.204 F 
ATOM     15  C   UNL     1      34.464 -20.506 -20.388  0.00  0.00    -0.002 C 
ATOM     16  C   UNL     1      35.692 -20.814 -19.801  0.00  0.00    -0.000 C 
ATOM     17  C   UNL     1      34.402 -19.583 -21.431  0.00  0.00    -0.000 C 
ATOM     18  C   UNL     1      36.856 -20.198 -20.258  0.00  0.00    +0.029 C 
ATOM     19  C   UNL     1      35.567 -18.967 -21.889  0.00  0.00    +0.029 C 
ATOM     20  C   UNL     1      36.794 -19.275 -21.301  0.00  0.00    +0.140 C 
ENDBRANCH  13  15
ENDBRANCH  10  13
ENDBRANCH   6  11
BRANCH   4  21
ATOM     21  C   UNL     1      31.372 -24.181 -14.211  0.00  0.00    +0.117 C 
ATOM     22  C   UNL     1      31.291 -25.685 -13.988  0.00  0.00    +0.028 C 
ATOM     23  C   UNL     1      31.304 -23.419 -12.895  0.00  0.00    +0.028 C 
BRANCH  21  25
ATOM     24  O   UNL     1      28.651 -25.091 -14.317  0.00  0.00    -0.265 OA
ATOM     25  N   UNL     1      30.352 -23.736 -15.124  0.00  0.00    -0.293 N 
ATOM     26  C   UNL     1      29.057 -24.236 -15.099  0.00  0.00    +0.302 C 
ATOM     27  H   UNL     1      30.582 -23.048 -15.791  0.00  0.00    +0.150 HD
BRANCH  26  31
ATOM     28  O   UNL     1      27.490 -22.509 -15.905  0.00  0.00    -0.416 OA
ATOM     29  N   UNL     1      27.834 -24.241 -17.279  0.00  0.00    -0.102 NA
ATOM     30  N   UNL     1      26.938 -23.383 -17.888  0.00  0.00    -0.111 NA
ATOM     31  C   UNL     1      28.129 -23.691 -16.124  0.00  0.00    +0.304 A 
ATOM     32  C   UNL     1      26.767 -22.387 -17.051  0.00  0.00    +0.227 A 
ATOM     33  C   UNL     1      25.924 -21.191 -17.177  0.00  0.00    +0.097 C 
ENDBRANCH  26  31
ENDBRANCH  21  25
ENDBRANCH   4  21
BRANCH   8  34
ATOM     34  O   UNL     1      36.117 -22.912 -16.944  0.00  0.00    -0.370 OA
ATOM     35  H   UNL     1      36.951 -23.098 -16.559  0.00  0.00    +0.211 HD
ENDBRANCH   8  34
TORSDOF 7
ENDMDL
MODEL 2
REMARK VINA RESULT:     -11.0      2.463      6.070
REMARK  Name = 54671008
REMARK  7 active torsions:
REMARK  status: ('A' for Active; 'I' for Inactive)
REMARK    1  A    between atoms: C_4  and  C_21
REMARK    2  A    between atoms: C_6  and  C_11
REMARK    3  A    between atoms: C_8  and  O_34
REMARK    4  A    between atoms: N_10  and  C_13
REMARK    5  A    between atoms: C_13  and  C_15
REMARK    6  A    between atoms: C_21  and  N_25
REMARK    7  A    between atoms: C_26  and  C_31
REMARK                            x       y       z     vdW  Elec       q    Type
REMARK                         _______ _______ _______ _____ _____    ______ ____
ROOT
ATOM      1  O   UNL     1      30.077 -22.474 -16.549  0.00  0.00    -0.271 OA
ATOM      2  N   UNL     1      31.677 -23.477 -15.165  0.00  0.00    -0.232 N 
ATOM      3  N   UNL     1      33.890 -23.775 -15.981  0.00  0.00    -0.386 NA
ATOM      4  C   UNL     1      32.999 -23.898 -15.046  0.00  0.00    +0.182 C 
ATOM      5  C   UNL     1      31.220 -22.877 -16.342  0.00  0.00    +0.265 C 
ATOM      6  C   UNL     1      33.486 -23.191 -17.151  0.00  0.00    +0.199 C 
ATOM      7  C   UNL     1      30.757 -23.664 -14.045  0.00  0.00    +0.122 C 
ATOM      8  C   UNL     1      32.250 -22.739 -17.408  0.00  0.00    +0.245 C 
ENDROOT
BRANCH   6  11
ATOM      9  O   UNL     1      34.487 -23.775 -19.193  0.00  0.00    -0.268 OA
ATOM     10  N   UNL     1      35.450 -22.086 -17.906  0.00  0.00    -0.295 N 
ATOM     11  C   UNL     1      34.513 -23.061 -18.194  0.00  0.00    +0.275 C 
ATOM     12  H   UNL     1      35.357 -21.582 -17.066  0.00  0.00    +0.150 HD
BRANCH  10  13
ATOM     13  C   UNL     1      36.559 -21.771 -18.778  0.00  0.00    +0.117 C 
BRANCH  13  15
ATOM     14  F   UNL     1      35.210 -17.827 -22.562  0.00  0.00    -0.204 F 
ATOM     15  C   UNL     1      36.199 -20.720 -19.787  0.00  0.00    -0.002 C 
ATOM     16  C   UNL     1      37.159 -19.798 -20.206  0.00  0.00    -0.000 C 
ATOM     17  C   UNL     1      34.906 -20.664 -20.306  0.00  0.00    -0.000 C 
ATOM     18  C   UNL     1      36.824 -18.821 -21.143  0.00  0.00    +0.029 C 
ATOM     19  C   UNL     1      34.571 -19.687 -21.243  0.00  0.00    +0.029 C 
ATOM     20  C   UNL     1      35.531 -18.765 -21.662  0.00  0.00    +0.140 C 
ENDBRANCH  13  15
ENDBRANCH  10  13
ENDBRANCH   6  11
BRANCH   4  21
ATOM     21  C   UNL     1      33.427 -24.539 -13.748  0.00  0.00    +0.117 C 
ATOM     22  C   UNL     1      33.555 -23.475 -12.667  0.00  0.00    +0.028 C 
ATOM     23  C   UNL     1      32.429 -25.619 -13.352  0.00  0.00    +0.028 C 
BRANCH  21  25
ATOM     24  O   UNL     1      35.454 -25.360 -11.887  0.00  0.00    -0.265 OA
ATOM     25  N   UNL     1      34.710 -25.110 -14.070  0.00  0.00    -0.293 N 
ATOM     26  C   UNL     1      35.629 -25.478 -13.097  0.00  0.00    +0.302 C 
ATOM     27  H   UNL     1      34.943 -25.245 -15.017  0.00  0.00    +0.150 HD
BRANCH  26  31
ATOM     28  O   UNL     1      37.977 -25.199 -13.801  0.00  0.00    -0.416 OA
ATOM     29  N   UNL     1      37.172 -27.285 -13.872  0.00  0.00    -0.102 NA
ATOM     30  N   UNL     1      38.487 -27.320 -14.296  0.00  0.00    -0.111 NA
ATOM     31  C   UNL     1      36.917 -26.028 -13.593  0.00  0.00    +0.304 A 
ATOM     32  C   UNL     1      38.916 -26.081 -14.238  0.00  0.00    +0.227 A 
ATOM     33  C   UNL     1      40.236 -25.531 -14.572  0.00  0.00    +0.097 C 
ENDBRANCH  26  31
ENDBRANCH  21  25
ENDBRANCH   4  21
BRANCH   8  34
ATOM     34  O   UNL     1      31.883 -22.157 -18.599  0.00  0.00    -0.370 OA
ATOM     35  H   UNL     1      31.761 -22.687 -19.362  0.00  0.00    +0.211 HD
ENDBRANCH   8  34
TORSDOF 7
ENDMDL
MODEL 3
REMARK VINA RESULT:      -9.7      8.301     12.387
REMARK  Name = 54671008
REMARK  7 active torsions:
REMARK  status: ('A' for Active; 'I' for Inactive)
REMARK    1  A    between atoms: C_4  and  C_21
REMARK    2  A    between atoms: C_6  and  C_11
REMARK    3  A    between atoms: C_8  and  O_34
REMARK    4  A    between atoms: N_10  and  C_13
REMARK    5  A    between atoms: C_13  and  C_15
REMARK    6  A    between atoms: C_21  and  N_25
REMARK    7  A    between atoms: C_26  and  C_31
REMARK                            x       y       z     vdW  Elec       q    Type
REMARK                         _______ _______ _______ _____ _____    ______ ____
ROOT
ATOM      1  O   UNL     1      33.836 -15.610 -25.840  0.00  0.00    -0.271 OA
ATOM      2  N   UNL     1      33.235 -14.234 -24.044  0.00  0.00    -0.232 N 
ATOM      3  N   UNL     1      33.915 -14.836 -21.847  0.00  0.00    -0.386 NA
ATOM      4  C   UNL     1      33.304 -14.037 -22.667  0.00  0.00    +0.182 C 
ATOM      5  C   UNL     1      33.841 -15.344 -24.639  0.00  0.00    +0.265 C 
ATOM      6  C   UNL     1      34.525 -15.934 -22.388  0.00  0.00    +0.199 C 
ATOM      7  C   UNL     1      32.520 -13.268 -24.875  0.00  0.00    +0.122 C 
ATOM      8  C   UNL     1      34.540 -16.252 -23.690  0.00  0.00    +0.245 C 
ENDROOT
BRANCH   6  11
ATOM      9  O   UNL     1      35.230 -16.565 -20.238  0.00  0.00    -0.268 OA
ATOM     10  N   UNL     1      35.795 -17.914 -22.054  0.00  0.00    -0.295 N 
ATOM     11  C   UNL     1      35.211 -16.823 -21.439  0.00  0.00    +0.275 C 
ATOM     12  H   UNL     1      35.707 -18.005 -23.030  0.00  0.00    +0.150 HD
BRANCH  10  13
ATOM     13  C   UNL     1      36.528 -18.931 -21.333  0.00  0.00    +0.117 C 
BRANCH  13  15
ATOM     14  F   UNL     1      33.096 -22.556 -18.729  0.00  0.00    -0.204 F 
ATOM     15  C   UNL     1      35.613 -19.898 -20.639  0.00  0.00    -0.002 C 
ATOM     16  C   UNL     1      34.235 -19.823 -20.844  0.00  0.00    -0.000 C 
ATOM     17  C   UNL     1      36.140 -20.870 -19.789  0.00  0.00    -0.000 C 
ATOM     18  C   UNL     1      33.385 -20.721 -20.198  0.00  0.00    +0.029 C 
ATOM     19  C   UNL     1      35.290 -21.767 -19.143  0.00  0.00    +0.029 C 
ATOM     20  C   UNL     1      33.913 -21.693 -19.348  0.00  0.00    +0.140 C 
ENDBRANCH  13  15
ENDBRANCH  10  13
ENDBRANCH   6  11
BRANCH   4  21
ATOM     21  C   UNL     1      32.628 -12.818 -22.087  0.00  0.00    +0.117 C 
ATOM     22  C   UNL     1      31.191 -12.743 -22.584  0.00  0.00    +0.028 C 
ATOM     23  C   UNL     1      32.689 -12.869 -20.567  0.00  0.00    +0.028 C 
BRANCH  21  25
ATOM     24  O   UNL     1      31.868 -10.051 -22.180  0.00  0.00    -0.265 OA
ATOM     25  N   UNL     1      33.414 -11.728 -22.604  0.00  0.00    -0.293 N 
ATOM     26  C   UNL     1      32.961 -10.416 -22.606  0.00  0.00    +0.302 C 
ATOM     27  H   UNL     1      34.309 -11.921 -22.968  0.00  0.00    +0.150 HD
BRANCH  26  31
ATOM     28  O   UNL     1      33.460  -8.130 -23.389  0.00  0.00    -0.416 OA
ATOM     29  N   UNL     1      35.121  -9.617 -23.579  0.00  0.00    -0.102 NA
ATOM     30  N   UNL     1      35.576  -8.405 -24.061  0.00  0.00    -0.111 NA
ATOM     31  C   UNL     1      33.882  -9.410 -23.197  0.00  0.00    +0.304 A 
ATOM     32  C   UNL     1      34.574  -7.567 -23.931  0.00  0.00    +0.227 A 
ATOM     33  C   UNL     1      34.492  -6.143 -24.281  0.00  0.00    +0.097 C 
ENDBRANCH  26  31
ENDBRANCH  21  25
ENDBRANCH   4  21
BRANCH   8  34
ATOM     34  O   UNL     1      35.165 -17.369 -24.195  0.00  0.00    -0.370 OA
ATOM     35  H   UNL     1      35.974 -17.283 -24.661  0.00  0.00    +0.211 HD
ENDBRANCH   8  34
TORSDOF 7
ENDMDL
MODEL 4
REMARK VINA RESULT:      -9.6      7.571     11.348
REMARK  Name = 54671008
REMARK  7 active torsions:
REMARK  status: ('A' for Active; 'I' for Inactive)
REMARK    1  A    between atoms: C_4  and  C_21
REMARK    2  A    between atoms: C_6  and  C_11
REMARK    3  A    between atoms: C_8  and  O_34
REMARK    4  A    between atoms: N_10  and  C_13
REMARK    5  A    between atoms: C_13  and  C_15
REMARK    6  A    between atoms: C_21  and  N_25
REMARK    7  A    between atoms: C_26  and  C_31
REMARK                            x       y       z     vdW  Elec       q    Type
REMARK                         _______ _______ _______ _____ _____    ______ ____
ROOT
ATOM      1  O   UNL     1      33.487 -15.117 -25.879  0.00  0.00    -0.271 OA
ATOM      2  N   UNL     1      33.493 -14.540 -23.610  0.00  0.00    -0.232 N 
ATOM      3  N   UNL     1      34.425 -16.055 -22.032  0.00  0.00    -0.386 NA
ATOM      4  C   UNL     1      33.843 -14.931 -22.320  0.00  0.00    +0.182 C 
ATOM      5  C   UNL     1      33.757 -15.367 -24.705  0.00  0.00    +0.265 C 
ATOM      6  C   UNL     1      34.704 -16.894 -23.076  0.00  0.00    +0.199 C 
ATOM      7  C   UNL     1      32.841 -13.248 -23.820  0.00  0.00    +0.122 C 
ATOM      8  C   UNL     1      34.426 -16.652 -24.364  0.00  0.00    +0.245 C 
ENDROOT
BRANCH   6  11
ATOM      9  O   UNL     1      35.414 -19.086 -23.530  0.00  0.00    -0.268 OA
ATOM     10  N   UNL     1      35.883 -18.157 -21.444  0.00  0.00    -0.295 N 
ATOM     11  C   UNL     1      35.364 -18.160 -22.725  0.00  0.00    +0.275 C 
ATOM     12  H   UNL     1      35.775 -17.345 -20.897  0.00  0.00    +0.150 HD
BRANCH  10  13
ATOM     13  C   UNL     1      36.578 -19.286 -20.868  0.00  0.00    +0.117 C 
BRANCH  13  15
ATOM     14  F   UNL     1      33.032 -22.938 -18.462  0.00  0.00    -0.204 F 
ATOM     15  C   UNL     1      35.632 -20.260 -20.226  0.00  0.00    -0.002 C 
ATOM     16  C   UNL     1      34.258 -20.140 -20.436  0.00  0.00    -0.000 C 
ATOM     17  C   UNL     1      36.127 -21.285 -19.420  0.00  0.00    -0.000 C 
ATOM     18  C   UNL     1      33.381 -21.044 -19.840  0.00  0.00    +0.029 C 
ATOM     19  C   UNL     1      35.249 -22.190 -18.824  0.00  0.00    +0.029 C 
ATOM     20  C   UNL     1      33.876 -22.069 -19.034  0.00  0.00    +0.140 C 
ENDBRANCH  13  15
ENDBRANCH  10  13
ENDBRANCH   6  11
BRANCH   4  21
ATOM     21  C   UNL     1      33.529 -13.991 -21.181  0.00  0.00    +0.117 C 
ATOM     22  C   UNL     1      32.382 -14.552 -20.352  0.00  0.00    +0.028 C 
ATOM     23  C   UNL     1      34.775 -13.774 -20.333  0.00  0.00    +0.028 C 
BRANCH  21  25
ATOM     24  O   UNL     1      32.061 -11.800 -20.047  0.00  0.00    -0.265 OA
ATOM     25  N   UNL     1      33.139 -12.778 -21.853  0.00  0.00    -0.293 N 
ATOM     26  C   UNL     1      32.428 -11.769 -21.219  0.00  0.00    +0.302 C 
ATOM     27  H   UNL     1      33.389 -12.660 -22.798  0.00  0.00    +0.150 HD
BRANCH  26  31
ATOM     28  O   UNL     1      33.059  -9.914 -22.717  0.00  0.00    -0.416 OA
ATOM     29  N   UNL     1      30.879 -10.100 -22.250  0.00  0.00    -0.102 NA
ATOM     30  N   UNL     1      31.044  -9.018 -23.094  0.00  0.00    -0.111 NA
ATOM     31  C   UNL     1      32.080 -10.592 -22.058  0.00  0.00    +0.304 A 
ATOM     32  C   UNL     1      32.332  -8.947 -23.340  0.00  0.00    +0.227 A 
ATOM     33  C   UNL     1      33.075  -7.993 -24.173  0.00  0.00    +0.097 C 
ENDBRANCH  26  31
ENDBRANCH  21  25
ENDBRANCH   4  21
BRANCH   8  34
ATOM     34  O   UNL     1      34.723 -17.525 -25.386  0.00  0.00    -0.370 OA
ATOM     35  H   UNL     1      35.232 -18.292 -25.214  0.00  0.00    +0.211 HD
ENDBRANCH   8  34
TORSDOF 7
ENDMDL
