MODEL 1
REMARK VINA RESULT:     -11.8      0.000      0.000
REMARK  Name = 24764434
REMARK  8 active torsions:
REMARK  status: ('A' for Active; 'I' for Inactive)
REMARK    1  A    between atoms: C_1  and  N_4
REMARK    2  A    between atoms: C_1  and  C_17
REMARK    3  A    between atoms: C_1  and  C_28
REMARK    4  A    between atoms: C_11  and  C_14
REMARK    5  A    between atoms: C_14  and  O_15
REMARK    6  A    between atoms: C_17  and  C_18
REMARK    7  A    between atoms: C_28  and  C_30
REMARK    8  A    between atoms: C_30  and  O_31
REMARK                            x       y       z     vdW  Elec       q    Type
REMARK                         _______ _______ _______ _____ _____    ______ ____
ROOT
ATOM      1  C   UNL     1      34.377 -23.628 -16.089  0.00  0.00    +0.098 C 
ENDROOT
BRANCH   1   4
ATOM      2  O   UNL     1      36.892 -22.244 -16.899  0.00  0.00    -0.269 OA
ATOM      3  O   UNL     1      32.507 -22.832 -18.272  0.00  0.00    -0.269 OA
ATOM      4  N   UNL     1      34.623 -22.780 -17.238  0.00  0.00    -0.224 N 
ATOM      5  C   UNL     1      35.840 -22.188 -17.506  0.00  0.00    +0.255 C 
ATOM      6  C   UNL     1      33.668 -22.478 -18.185  0.00  0.00    +0.255 C 
ATOM      7  C   UNL     1      35.644 -21.424 -18.738  0.00  0.00    +0.059 C 
ATOM      8  C   UNL     1      34.331 -21.600 -19.149  0.00  0.00    +0.058 C 
ATOM      9  C   UNL     1      36.532 -20.641 -19.446  0.00  0.00    +0.011 C 
ATOM     10  C   UNL     1      33.837 -21.003 -20.291  0.00  0.00    +0.005 C 
ATOM     11  C   UNL     1      36.054 -20.025 -20.607  0.00  0.00    +0.076 C 
ATOM     12  C   UNL     1      34.719 -20.204 -21.024  0.00  0.00    +0.007 C 
BRANCH  11  14
ATOM     13  O   UNL     1      38.123 -18.940 -21.122  0.00  0.00    -0.245 OA
ATOM     14  C   UNL     1      36.944 -19.189 -21.396  0.00  0.00    +0.338 C 
BRANCH  14  15
ATOM     15  O   UNL     1      36.338 -18.687 -22.507  0.00  0.00    -0.477 OA
ATOM     16  H   UNL     1      35.455 -18.379 -22.460  0.00  0.00    +0.295 HD
ENDBRANCH  14  15
ENDBRANCH  11  14
ENDBRANCH   1   4
BRANCH   1  17
ATOM     17  C   UNL     1      33.373 -22.968 -15.119  0.00  0.00    +0.047 C 
BRANCH  17  18
ATOM     18  C   UNL     1      32.299 -23.876 -14.569  0.00  0.00    -0.020 C 
ATOM     19  C   UNL     1      30.981 -23.849 -15.055  0.00  0.00    -0.004 C 
ATOM     20  C   UNL     1      32.664 -24.755 -13.549  0.00  0.00    -0.004 C 
ATOM     21  C   UNL     1      30.020 -24.725 -14.499  0.00  0.00    -0.000 C 
ATOM     22  C   UNL     1      30.597 -22.970 -16.081  0.00  0.00    -0.000 C 
ATOM     23  C   UNL     1      31.718 -25.618 -13.002  0.00  0.00    -0.000 C 
ATOM     24  C   UNL     1      30.404 -25.604 -13.472  0.00  0.00    -0.000 C 
ATOM     25  C   UNL     1      28.703 -24.698 -14.984  0.00  0.00    -0.000 C 
ATOM     26  C   UNL     1      29.284 -22.956 -16.552  0.00  0.00    -0.000 C 
ATOM     27  C   UNL     1      28.338 -23.819 -16.004  0.00  0.00    -0.000 C 
ENDBRANCH  17  18
ENDBRANCH   1  17
BRANCH   1  28
ATOM     28  C   UNL     1      35.709 -24.044 -15.447  0.00  0.00    +0.130 C 
BRANCH  28  30
ATOM     29  O   UNL     1      35.705 -26.472 -15.616  0.00  0.00    -0.250 OA
ATOM     30  C   UNL     1      35.705 -25.464 -14.924  0.00  0.00    +0.316 C 
BRANCH  30  31
ATOM     31  O   UNL     1      35.742 -25.498 -13.566  0.00  0.00    -0.480 OA
ATOM     32  H   UNL     1      35.212 -24.907 -13.069  0.00  0.00    +0.295 HD
ENDBRANCH  30  31
ENDBRANCH  28  30
ENDBRANCH   1  28
TORSDOF 8
ENDMDL
MODEL 2
REMARK VINA RESULT:     -11.3      0.662      1.871
REMARK  Name = 24764434
REMARK  8 active torsions:
REMARK  status: ('A' for Active; 'I' for Inactive)
REMARK    1  A    between atoms: C_1  and  N_4
REMARK    2  A    between atoms: C_1  and  C_17
REMARK    3  A    between atoms: C_1  and  C_28
REMARK    4  A    between atoms: C_11  and  C_14
REMARK    5  A    between atoms: C_14  and  O_15
REMARK    6  A    between atoms: C_17  and  C_18
REMARK    7  A    between atoms: C_28  and  C_30
REMARK    8  A    between atoms: C_30  and  O_31
REMARK                            x       y       z     vdW  Elec       q    Type
REMARK                         _______ _______ _______ _____ _____    ______ ____
ROOT
ATOM      1  C   UNL     1      34.422 -23.632 -16.014  0.00  0.00    +0.098 C 
ENDROOT
BRANCH   1   4
ATOM      2  O   UNL     1      32.717 -22.644 -18.252  0.00  0.00    -0.269 OA
ATOM      3  O   UNL     1      37.069 -22.431 -16.680  0.00  0.00    -0.269 OA
ATOM      4  N   UNL     1      34.787 -22.795 -17.139  0.00  0.00    -0.224 N 
ATOM      5  C   UNL     1      33.902 -22.404 -18.122  0.00  0.00    +0.255 C 
ATOM      6  C   UNL     1      36.058 -22.300 -17.343  0.00  0.00    +0.255 C 
ATOM      7  C   UNL     1      34.682 -21.588 -19.052  0.00  0.00    +0.059 C 
ATOM      8  C   UNL     1      35.984 -21.525 -18.582  0.00  0.00    +0.058 C 
ATOM      9  C   UNL     1      34.292 -20.951 -20.212  0.00  0.00    +0.011 C 
ATOM     10  C   UNL     1      36.968 -20.819 -19.246  0.00  0.00    +0.005 C 
ATOM     11  C   UNL     1      35.271 -20.230 -20.903  0.00  0.00    +0.076 C 
ATOM     12  C   UNL     1      36.596 -20.166 -20.424  0.00  0.00    +0.007 C 
BRANCH  11  14
ATOM     13  O   UNL     1      34.154 -19.964 -23.002  0.00  0.00    -0.245 OA
ATOM     14  C   UNL     1      34.920 -19.536 -22.132  0.00  0.00    +0.338 C 
BRANCH  14  15
ATOM     15  O   UNL     1      35.535 -18.327 -22.240  0.00  0.00    -0.477 OA
ATOM     16  H   UNL     1      36.240 -18.106 -21.665  0.00  0.00    +0.295 HD
ENDBRANCH  14  15
ENDBRANCH  11  14
ENDBRANCH   1   4
BRANCH   1  17
ATOM     17  C   UNL     1      33.340 -22.953 -15.146  0.00  0.00    +0.047 C 
BRANCH  17  18
ATOM     18  C   UNL     1      32.271 -23.868 -14.595  0.00  0.00    -0.020 C 
ATOM     19  C   UNL     1      30.956 -23.856 -15.087  0.00  0.00    -0.004 C 
ATOM     20  C   UNL     1      32.640 -24.737 -13.568  0.00  0.00    -0.004 C 
ATOM     21  C   UNL     1      30.000 -24.738 -14.529  0.00  0.00    -0.000 C 
ATOM     22  C   UNL     1      30.568 -22.987 -16.121  0.00  0.00    -0.000 C 
ATOM     23  C   UNL     1      31.700 -25.605 -13.019  0.00  0.00    -0.000 C 
ATOM     24  C   UNL     1      30.388 -25.607 -13.495  0.00  0.00    -0.000 C 
ATOM     25  C   UNL     1      28.686 -24.727 -15.021  0.00  0.00    -0.000 C 
ATOM     26  C   UNL     1      29.257 -22.990 -16.597  0.00  0.00    -0.000 C 
ATOM     27  C   UNL     1      28.317 -23.858 -16.048  0.00  0.00    -0.000 C 
ENDBRANCH  17  18
ENDBRANCH   1  17
BRANCH   1  28
ATOM     28  C   UNL     1      35.680 -24.064 -15.248  0.00  0.00    +0.130 C 
BRANCH  28  30
ATOM     29  O   UNL     1      35.614 -26.466 -15.632  0.00  0.00    -0.250 OA
ATOM     30  C   UNL     1      35.673 -25.525 -14.854  0.00  0.00    +0.316 C 
BRANCH  30  31
ATOM     31  O   UNL     1      35.780 -25.683 -13.509  0.00  0.00    -0.480 OA
ATOM     32  H   UNL     1      35.810 -24.932 -12.950  0.00  0.00    +0.295 HD
ENDBRANCH  30  31
ENDBRANCH  28  30
ENDBRANCH   1  28
TORSDOF 8
ENDMDL
MODEL 3
REMARK VINA RESULT:     -11.1      3.214      7.309
REMARK  Name = 24764434
REMARK  8 active torsions:
REMARK  status: ('A' for Active; 'I' for Inactive)
REMARK    1  A    between atoms: C_1  and  N_4
REMARK    2  A    between atoms: C_1  and  C_17
REMARK    3  A    between atoms: C_1  and  C_28
REMARK    4  A    between atoms: C_11  and  C_14
REMARK    5  A    between atoms: C_14  and  O_15
REMARK    6  A    between atoms: C_17  and  C_18
REMARK    7  A    between atoms: C_28  and  C_30
REMARK    8  A    between atoms: C_30  and  O_31
REMARK                            x       y       z     vdW  Elec       q    Type
REMARK                         _______ _______ _______ _____ _____    ______ ____
ROOT
ATOM      1  C   UNL     1      34.627 -24.064 -15.104  0.00  0.00    +0.098 C 
ENDROOT
BRANCH   1   4
ATOM      2  O   UNL     1      32.913 -23.685 -17.515  0.00  0.00    -0.269 OA
ATOM      3  O   UNL     1      32.652 -23.754 -12.891  0.00  0.00    -0.269 OA
ATOM      4  N   UNL     1      33.206 -23.790 -15.180  0.00  0.00    -0.224 N 
ATOM      5  C   UNL     1      32.520 -23.629 -16.366  0.00  0.00    +0.255 C 
ATOM      6  C   UNL     1      32.391 -23.662 -14.075  0.00  0.00    +0.255 C 
ATOM      7  C   UNL     1      31.133 -23.362 -15.985  0.00  0.00    +0.059 C 
ATOM      8  C   UNL     1      31.055 -23.382 -14.601  0.00  0.00    +0.058 C 
ATOM      9  C   UNL     1      30.028 -23.122 -16.776  0.00  0.00    +0.011 C 
ATOM     10  C   UNL     1      29.867 -23.165 -13.933  0.00  0.00    +0.005 C 
ATOM     11  C   UNL     1      28.813 -22.899 -16.121  0.00  0.00    +0.076 C 
ATOM     12  C   UNL     1      28.734 -22.919 -14.714  0.00  0.00    +0.007 C 
BRANCH  11  14
ATOM     13  O   UNL     1      27.004 -21.567 -16.946  0.00  0.00    -0.245 OA
ATOM     14  C   UNL     1      27.612 -22.642 -16.902  0.00  0.00    +0.338 C 
BRANCH  14  15
ATOM     15  O   UNL     1      27.206 -23.733 -17.606  0.00  0.00    -0.477 OA
ATOM     16  H   UNL     1      27.091 -24.555 -17.172  0.00  0.00    +0.295 HD
ENDBRANCH  14  15
ENDBRANCH  11  14
ENDBRANCH   1   4
BRANCH   1  17
ATOM     17  C   UNL     1      34.946 -25.013 -13.928  0.00  0.00    +0.047 C 
BRANCH  17  18
ATOM     18  C   UNL     1      36.155 -24.647 -13.100  0.00  0.00    -0.020 C 
ATOM     19  C   UNL     1      37.438 -25.133 -13.401  0.00  0.00    -0.004 C 
ATOM     20  C   UNL     1      35.952 -23.798 -12.011  0.00  0.00    -0.004 C 
ATOM     21  C   UNL     1      38.531 -24.753 -12.587  0.00  0.00    -0.000 C 
ATOM     22  C   UNL     1      37.660 -25.988 -14.493  0.00  0.00    -0.000 C 
ATOM     23  C   UNL     1      37.027 -23.424 -11.210  0.00  0.00    -0.000 C 
ATOM     24  C   UNL     1      38.309 -23.898 -11.494  0.00  0.00    -0.000 C 
ATOM     25  C   UNL     1      39.813 -25.238 -12.887  0.00  0.00    -0.000 C 
ATOM     26  C   UNL     1      38.941 -26.461 -14.778  0.00  0.00    -0.000 C 
ATOM     27  C   UNL     1      40.016 -26.086 -13.976  0.00  0.00    -0.000 C 
ENDBRANCH  17  18
ENDBRANCH   1  17
BRANCH   1  28
ATOM     28  C   UNL     1      35.418 -22.748 -15.098  0.00  0.00    +0.130 C 
BRANCH  28  30
ATOM     29  O   UNL     1      37.645 -22.694 -16.079  0.00  0.00    -0.250 OA
ATOM     30  C   UNL     1      36.431 -22.652 -16.218  0.00  0.00    +0.316 C 
BRANCH  30  31
ATOM     31  O   UNL     1      35.829 -22.548 -17.432  0.00  0.00    -0.480 OA
ATOM     32  H   UNL     1      35.369 -23.281 -17.790  0.00  0.00    +0.295 HD
ENDBRANCH  30  31
ENDBRANCH  28  30
ENDBRANCH   1  28
TORSDOF 8
ENDMDL
MODEL 4
REMARK VINA RESULT:     -10.9      3.360      6.994
REMARK  Name = 24764434
REMARK  8 active torsions:
REMARK  status: ('A' for Active; 'I' for Inactive)
REMARK    1  A    between atoms: C_1  and  N_4
REMARK    2  A    between atoms: C_1  and  C_17
REMARK    3  A    between atoms: C_1  and  C_28
REMARK    4  A    between atoms: C_11  and  C_14
REMARK    5  A    between atoms: C_14  and  O_15
REMARK    6  A    between atoms: C_17  and  C_18
REMARK    7  A    between atoms: C_28  and  C_30
REMARK    8  A    between atoms: C_30  and  O_31
REMARK                            x       y       z     vdW  Elec       q    Type
REMARK                         _______ _______ _______ _____ _____    ______ ____
ROOT
ATOM      1  C   UNL     1      33.868 -23.991 -13.432  0.00  0.00    +0.098 C 
ENDROOT
BRANCH   1   4
ATOM      2  O   UNL     1      32.184 -21.646 -14.182  0.00  0.00    -0.269 OA
ATOM      3  O   UNL     1      31.996 -26.266 -13.894  0.00  0.00    -0.269 OA
ATOM      4  N   UNL     1      32.494 -23.963 -13.891  0.00  0.00    -0.224 N 
ATOM      5  C   UNL     1      31.815 -22.805 -14.206  0.00  0.00    +0.255 C 
ATOM      6  C   UNL     1      31.721 -25.092 -14.063  0.00  0.00    +0.255 C 
ATOM      7  C   UNL     1      30.475 -23.231 -14.609  0.00  0.00    +0.059 C 
ATOM      8  C   UNL     1      30.418 -24.613 -14.523  0.00  0.00    +0.058 C 
ATOM      9  C   UNL     1      29.392 -22.479 -15.019  0.00  0.00    +0.011 C 
ATOM     10  C   UNL     1      29.276 -25.319 -14.843  0.00  0.00    +0.005 C 
ATOM     11  C   UNL     1      28.224 -23.173 -15.348  0.00  0.00    +0.076 C 
ATOM     12  C   UNL     1      28.167 -24.579 -15.260  0.00  0.00    +0.007 C 
BRANCH  11  14
ATOM     13  O   UNL     1      26.973 -21.763 -16.822  0.00  0.00    -0.245 OA
ATOM     14  C   UNL     1      27.050 -22.435 -15.788  0.00  0.00    +0.338 C 
BRANCH  14  15
ATOM     15  O   UNL     1      26.005 -22.559 -14.925  0.00  0.00    -0.477 OA
ATOM     16  H   UNL     1      26.117 -22.348 -14.020  0.00  0.00    +0.295 HD
ENDBRANCH  14  15
ENDBRANCH  11  14
ENDBRANCH   1   4
BRANCH   1  17
ATOM     17  C   UNL     1      34.789 -24.652 -14.479  0.00  0.00    +0.047 C 
BRANCH  17  18
ATOM     18  C   UNL     1      35.557 -23.704 -15.370  0.00  0.00    -0.020 C 
ATOM     19  C   UNL     1      35.018 -23.208 -16.568  0.00  0.00    -0.004 C 
ATOM     20  C   UNL     1      36.836 -23.331 -14.956  0.00  0.00    -0.004 C 
ATOM     21  C   UNL     1      35.788 -22.322 -17.359  0.00  0.00    -0.000 C 
ATOM     22  C   UNL     1      33.732 -23.573 -17.000  0.00  0.00    -0.000 C 
ATOM     23  C   UNL     1      37.594 -22.459 -15.733  0.00  0.00    -0.000 C 
ATOM     24  C   UNL     1      37.075 -21.957 -16.928  0.00  0.00    -0.000 C 
ATOM     25  C   UNL     1      35.250 -21.826 -18.557  0.00  0.00    -0.000 C 
ATOM     26  C   UNL     1      33.213 -23.070 -18.193  0.00  0.00    -0.000 C 
ATOM     27  C   UNL     1      33.971 -22.199 -18.971  0.00  0.00    -0.000 C 
ENDBRANCH  17  18
ENDBRANCH   1  17
BRANCH   1  28
ATOM     28  C   UNL     1      33.942 -24.612 -12.030  0.00  0.00    +0.130 C 
BRANCH  28  30
ATOM     29  O   UNL     1      36.046 -23.479 -11.570  0.00  0.00    -0.250 OA
ATOM     30  C   UNL     1      35.277 -24.404 -11.350  0.00  0.00    +0.316 C 
BRANCH  30  31
ATOM     31  O   UNL     1      35.520 -25.361 -10.416  0.00  0.00    -0.480 OA
ATOM     32  H   UNL     1      35.225 -26.238 -10.557  0.00  0.00    +0.295 HD
ENDBRANCH  30  31
ENDBRANCH  28  30
ENDBRANCH   1  28
TORSDOF 8
ENDMDL
MODEL 5
REMARK VINA RESULT:     -10.6      3.000      7.132
REMARK  Name = 24764434
REMARK  8 active torsions:
REMARK  status: ('A' for Active; 'I' for Inactive)
REMARK    1  A    between atoms: C_1  and  N_4
REMARK    2  A    between atoms: C_1  and  C_17
REMARK    3  A    between atoms: C_1  and  C_28
REMARK    4  A    between atoms: C_11  and  C_14
REMARK    5  A    between atoms: C_14  and  O_15
REMARK    6  A    between atoms: C_17  and  C_18
REMARK    7  A    between atoms: C_28  and  C_30
REMARK    8  A    between atoms: C_30  and  O_31
REMARK                            x       y       z     vdW  Elec       q    Type
REMARK                         _______ _______ _______ _____ _____    ______ ____
ROOT
ATOM      1  C   UNL     1      34.768 -24.235 -15.677  0.00  0.00    +0.098 C 
ENDROOT
BRANCH   1   4
ATOM      2  O   UNL     1      32.936 -23.101 -17.740  0.00  0.00    -0.269 OA
ATOM      3  O   UNL     1      32.868 -24.940 -13.488  0.00  0.00    -0.269 OA
ATOM      4  N   UNL     1      33.330 -24.062 -15.625  0.00  0.00    -0.224 N 
ATOM      5  C   UNL     1      32.587 -23.516 -16.651  0.00  0.00    +0.255 C 
ATOM      6  C   UNL     1      32.554 -24.426 -14.545  0.00  0.00    +0.255 C 
ATOM      7  C   UNL     1      31.202 -23.521 -16.180  0.00  0.00    +0.059 C 
ATOM      8  C   UNL     1      31.182 -24.071 -14.908  0.00  0.00    +0.058 C 
ATOM      9  C   UNL     1      30.052 -23.085 -16.806  0.00  0.00    +0.011 C 
ATOM     10  C   UNL     1      30.010 -24.216 -14.193  0.00  0.00    +0.005 C 
ATOM     11  C   UNL     1      28.853 -23.221 -16.101  0.00  0.00    +0.076 C 
ATOM     12  C   UNL     1      28.832 -23.780 -14.807  0.00  0.00    +0.007 C 
BRANCH  11  14
ATOM     13  O   UNL     1      27.023 -21.721 -16.457  0.00  0.00    -0.245 OA
ATOM     14  C   UNL     1      27.607 -22.780 -16.709  0.00  0.00    +0.338 C 
BRANCH  14  15
ATOM     15  O   UNL     1      27.128 -23.673 -17.618  0.00  0.00    -0.477 OA
ATOM     16  H   UNL     1      26.230 -23.636 -17.882  0.00  0.00    +0.295 HD
ENDBRANCH  14  15
ENDBRANCH  11  14
ENDBRANCH   1   4
BRANCH   1  17
ATOM     17  C   UNL     1      35.204 -25.491 -14.892  0.00  0.00    +0.047 C 
BRANCH  17  18
ATOM     18  C   UNL     1      36.552 -25.407 -14.216  0.00  0.00    -0.020 C 
ATOM     19  C   UNL     1      36.712 -24.839 -12.942  0.00  0.00    -0.004 C 
ATOM     20  C   UNL     1      37.649 -25.919 -14.910  0.00  0.00    -0.004 C 
ATOM     21  C   UNL     1      38.002 -24.789 -12.362  0.00  0.00    -0.000 C 
ATOM     22  C   UNL     1      35.619 -24.318 -12.230  0.00  0.00    -0.000 C 
ATOM     23  C   UNL     1      38.918 -25.871 -14.341  0.00  0.00    -0.000 C 
ATOM     24  C   UNL     1      39.096 -25.310 -13.076  0.00  0.00    -0.000 C 
ATOM     25  C   UNL     1      38.162 -24.222 -11.089  0.00  0.00    -0.000 C 
ATOM     26  C   UNL     1      35.796 -23.758 -10.964  0.00  0.00    -0.000 C 
ATOM     27  C   UNL     1      37.066 -23.710 -10.395  0.00  0.00    -0.000 C 
ENDBRANCH  17  18
ENDBRANCH   1  17
BRANCH   1  28
ATOM     28  C   UNL     1      35.470 -22.937 -15.251  0.00  0.00    +0.130 C 
BRANCH  28  30
ATOM     29  O   UNL     1      37.567 -22.004 -16.060  0.00  0.00    -0.250 OA
ATOM     30  C   UNL     1      36.436 -22.408 -16.288  0.00  0.00    +0.316 C 
BRANCH  30  31
ATOM     31  O   UNL     1      35.911 -22.469 -17.540  0.00  0.00    -0.480 OA
ATOM     32  H   UNL     1      35.786 -23.298 -17.955  0.00  0.00    +0.295 HD
ENDBRANCH  30  31
ENDBRANCH  28  30
ENDBRANCH   1  28
TORSDOF 8
ENDMDL
MODEL 6
REMARK VINA RESULT:     -10.6      1.893      4.930
REMARK  Name = 24764434
REMARK  8 active torsions:
REMARK  status: ('A' for Active; 'I' for Inactive)
REMARK    1  A    between atoms: C_1  and  N_4
REMARK    2  A    between atoms: C_1  and  C_17
REMARK    3  A    between atoms: C_1  and  C_28
REMARK    4  A    between atoms: C_11  and  C_14
REMARK    5  A    between atoms: C_14  and  O_15
REMARK    6  A    between atoms: C_17  and  C_18
REMARK    7  A    between atoms: C_28  and  C_30
REMARK    8  A    between atoms: C_30  and  O_31
REMARK                            x       y       z     vdW  Elec       q    Type
REMARK                         _______ _______ _______ _____ _____    ______ ____
ROOT
ATOM      1  C   UNL     1      33.839 -23.465 -16.250  0.00  0.00    +0.098 C 
ENDROOT
BRANCH   1   4
ATOM      2  O   UNL     1      32.376 -22.210 -18.525  0.00  0.00    -0.269 OA
ATOM      3  O   UNL     1      36.653 -22.641 -16.799  0.00  0.00    -0.269 OA
ATOM      4  N   UNL     1      34.361 -22.671 -17.344  0.00  0.00    -0.224 N 
ATOM      5  C   UNL     1      33.577 -22.143 -18.349  0.00  0.00    +0.255 C 
ATOM      6  C   UNL     1      35.695 -22.358 -17.494  0.00  0.00    +0.255 C 
ATOM      7  C   UNL     1      34.498 -21.432 -19.234  0.00  0.00    +0.059 C 
ATOM      8  C   UNL     1      35.779 -21.561 -18.718  0.00  0.00    +0.058 C 
ATOM      9  C   UNL     1      34.246 -20.727 -20.394  0.00  0.00    +0.011 C 
ATOM     10  C   UNL     1      36.876 -20.992 -19.333  0.00  0.00    +0.005 C 
ATOM     11  C   UNL     1      35.343 -20.143 -21.036  0.00  0.00    +0.076 C 
ATOM     12  C   UNL     1      36.644 -20.275 -20.510  0.00  0.00    +0.007 C 
BRANCH  11  14
ATOM     13  O   UNL     1      34.123 -19.422 -22.963  0.00  0.00    -0.245 OA
ATOM     14  C   UNL     1      35.140 -19.388 -22.262  0.00  0.00    +0.338 C 
BRANCH  14  15
ATOM     15  O   UNL     1      36.211 -18.610 -22.577  0.00  0.00    -0.477 OA
ATOM     16  H   UNL     1      36.166 -17.682 -22.463  0.00  0.00    +0.295 HD
ENDBRANCH  14  15
ENDBRANCH  11  14
ENDBRANCH   1   4
BRANCH   1  17
ATOM     17  C   UNL     1      34.826 -24.586 -15.859  0.00  0.00    +0.047 C 
BRANCH  17  18
ATOM     18  C   UNL     1      35.150 -24.690 -14.387  0.00  0.00    -0.020 C 
ATOM     19  C   UNL     1      36.409 -25.113 -13.930  0.00  0.00    -0.004 C 
ATOM     20  C   UNL     1      34.144 -24.346 -13.484  0.00  0.00    -0.004 C 
ATOM     21  C   UNL     1      36.651 -25.189 -12.538  0.00  0.00    -0.000 C 
ATOM     22  C   UNL     1      37.434 -25.463 -14.826  0.00  0.00    -0.000 C 
ATOM     23  C   UNL     1      34.381 -24.421 -12.114  0.00  0.00    -0.000 C 
ATOM     24  C   UNL     1      35.626 -24.840 -11.643  0.00  0.00    -0.000 C 
ATOM     25  C   UNL     1      37.909 -25.612 -12.081  0.00  0.00    -0.000 C 
ATOM     26  C   UNL     1      38.678 -25.881 -14.354  0.00  0.00    -0.000 C 
ATOM     27  C   UNL     1      38.915 -25.955 -12.984  0.00  0.00    -0.000 C 
ENDBRANCH  17  18
ENDBRANCH   1  17
BRANCH   1  28
ATOM     28  C   UNL     1      32.419 -23.948 -16.581  0.00  0.00    +0.130 C 
BRANCH  28  30
ATOM     29  O   UNL     1      31.418 -22.934 -14.608  0.00  0.00    -0.250 OA
ATOM     30  C   UNL     1      31.343 -23.237 -15.790  0.00  0.00    +0.316 C 
BRANCH  30  31
ATOM     31  O   UNL     1      30.271 -22.929 -16.566  0.00  0.00    -0.480 OA
ATOM     32  H   UNL     1      29.500 -23.459 -16.531  0.00  0.00    +0.295 HD
ENDBRANCH  30  31
ENDBRANCH  28  30
ENDBRANCH   1  28
TORSDOF 8
ENDMDL
MODEL 7
REMARK VINA RESULT:     -10.6      3.787      7.659
REMARK  Name = 24764434
REMARK  8 active torsions:
REMARK  status: ('A' for Active; 'I' for Inactive)
REMARK    1  A    between atoms: C_1  and  N_4
REMARK    2  A    between atoms: C_1  and  C_17
REMARK    3  A    between atoms: C_1  and  C_28
REMARK    4  A    between atoms: C_11  and  C_14
REMARK    5  A    between atoms: C_14  and  O_15
REMARK    6  A    between atoms: C_17  and  C_18
REMARK    7  A    between atoms: C_28  and  C_30
REMARK    8  A    between atoms: C_30  and  O_31
REMARK                            x       y       z     vdW  Elec       q    Type
REMARK                         _______ _______ _______ _____ _____    ______ ____
ROOT
ATOM      1  C   UNL     1      34.098 -24.271 -13.438  0.00  0.00    +0.098 C 
ENDROOT
BRANCH   1   4
ATOM      2  O   UNL     1      32.907 -22.514 -15.533  0.00  0.00    -0.269 OA
ATOM      3  O   UNL     1      31.787 -26.007 -12.704  0.00  0.00    -0.269 OA
ATOM      4  N   UNL     1      32.745 -24.257 -13.957  0.00  0.00    -0.224 N 
ATOM      5  C   UNL     1      32.308 -23.386 -14.932  0.00  0.00    +0.255 C 
ATOM      6  C   UNL     1      31.753 -25.115 -13.530  0.00  0.00    +0.255 C 
ATOM      7  C   UNL     1      30.898 -23.708 -15.145  0.00  0.00    +0.059 C 
ATOM      8  C   UNL     1      30.562 -24.753 -14.299  0.00  0.00    +0.058 C 
ATOM      9  C   UNL     1      29.979 -23.141 -16.006  0.00  0.00    +0.011 C 
ATOM     10  C   UNL     1      29.290 -25.289 -14.267  0.00  0.00    +0.005 C 
ATOM     11  C   UNL     1      28.684 -23.667 -15.991  0.00  0.00    +0.076 C 
ATOM     12  C   UNL     1      28.343 -24.730 -15.130  0.00  0.00    +0.007 C 
BRANCH  11  14
ATOM     13  O   UNL     1      27.094 -23.728 -17.778  0.00  0.00    -0.245 OA
ATOM     14  C   UNL     1      27.672 -23.112 -16.877  0.00  0.00    +0.338 C 
BRANCH  14  15
ATOM     15  O   UNL     1      27.411 -21.803 -16.611  0.00  0.00    -0.477 OA
ATOM     16  H   UNL     1      26.536 -21.477 -16.678  0.00  0.00    +0.295 HD
ENDBRANCH  14  15
ENDBRANCH  11  14
ENDBRANCH   1   4
BRANCH   1  17
ATOM     17  C   UNL     1      35.018 -25.150 -14.312  0.00  0.00    +0.047 C 
BRANCH  17  18
ATOM     18  C   UNL     1      36.266 -24.478 -14.835  0.00  0.00    -0.020 C 
ATOM     19  C   UNL     1      37.550 -24.975 -14.560  0.00  0.00    -0.004 C 
ATOM     20  C   UNL     1      36.097 -23.330 -15.610  0.00  0.00    -0.004 C 
ATOM     21  C   UNL     1      38.680 -24.299 -15.078  0.00  0.00    -0.000 C 
ATOM     22  C   UNL     1      37.737 -26.129 -13.781  0.00  0.00    -0.000 C 
ATOM     23  C   UNL     1      37.208 -22.665 -16.121  0.00  0.00    -0.000 C 
ATOM     24  C   UNL     1      38.492 -23.145 -15.857  0.00  0.00    -0.000 C 
ATOM     25  C   UNL     1      39.963 -24.796 -14.804  0.00  0.00    -0.000 C 
ATOM     26  C   UNL     1      39.021 -26.609 -13.518  0.00  0.00    -0.000 C 
ATOM     27  C   UNL     1      40.132 -25.944 -14.029  0.00  0.00    -0.000 C 
ENDBRANCH  17  18
ENDBRANCH   1  17
BRANCH   1  28
ATOM     28  C   UNL     1      34.087 -24.639 -11.947  0.00  0.00    +0.130 C 
BRANCH  28  30
ATOM     29  O   UNL     1      36.190 -23.505 -11.487  0.00  0.00    -0.250 OA
ATOM     30  C   UNL     1      35.422 -24.430 -11.267  0.00  0.00    +0.316 C 
BRANCH  30  31
ATOM     31  O   UNL     1      35.664 -25.386 -10.332  0.00  0.00    -0.480 OA
ATOM     32  H   UNL     1      35.801 -26.274 -10.595  0.00  0.00    +0.295 HD
ENDBRANCH  30  31
ENDBRANCH  28  30
ENDBRANCH   1  28
TORSDOF 8
ENDMDL
MODEL 8
REMARK VINA RESULT:     -10.6     10.518     15.017
REMARK  Name = 24764434
REMARK  8 active torsions:
REMARK  status: ('A' for Active; 'I' for Inactive)
REMARK    1  A    between atoms: C_1  and  N_4
REMARK    2  A    between atoms: C_1  and  C_17
REMARK    3  A    between atoms: C_1  and  C_28
REMARK    4  A    between atoms: C_11  and  C_14
REMARK    5  A    between atoms: C_14  and  O_15
REMARK    6  A    between atoms: C_17  and  C_18
REMARK    7  A    between atoms: C_28  and  C_30
REMARK    8  A    between atoms: C_30  and  O_31
REMARK                            x       y       z     vdW  Elec       q    Type
REMARK                         _______ _______ _______ _____ _____    ______ ____
ROOT
ATOM      1  C   UNL     1      31.610  -9.969 -21.077  0.00  0.00    +0.098 C 
ENDROOT
BRANCH   1   4
ATOM      2  O   UNL     1      32.406 -12.653 -20.051  0.00  0.00    -0.269 OA
ATOM      3  O   UNL     1      32.293 -10.190 -23.972  0.00  0.00    -0.269 OA
ATOM      4  N   UNL     1      32.189 -11.086 -21.796  0.00  0.00    -0.224 N 
ATOM      5  C   UNL     1      32.521 -12.287 -21.205  0.00  0.00    +0.255 C 
ATOM      6  C   UNL     1      32.466 -11.067 -23.146  0.00  0.00    +0.255 C 
ATOM      7  C   UNL     1      33.074 -13.114 -22.277  0.00  0.00    +0.059 C 
ATOM      8  C   UNL     1      33.041 -12.377 -23.451  0.00  0.00    +0.058 C 
ATOM      9  C   UNL     1      33.566 -14.404 -22.237  0.00  0.00    +0.011 C 
ATOM     10  C   UNL     1      33.496 -12.889 -24.649  0.00  0.00    +0.005 C 
ATOM     11  C   UNL     1      34.033 -14.944 -23.439  0.00  0.00    +0.076 C 
ATOM     12  C   UNL     1      33.999 -14.193 -24.633  0.00  0.00    +0.007 C 
BRANCH  11  14
ATOM     13  O   UNL     1      34.996 -16.913 -22.480  0.00  0.00    -0.245 OA
ATOM     14  C   UNL     1      34.562 -16.298 -23.461  0.00  0.00    +0.338 C 
BRANCH  14  15
ATOM     15  O   UNL     1      34.533 -16.848 -24.706  0.00  0.00    -0.477 OA
ATOM     16  H   UNL     1      33.775 -17.316 -24.994  0.00  0.00    +0.295 HD
ENDBRANCH  14  15
ENDBRANCH  11  14
ENDBRANCH   1   4
BRANCH   1  17
ATOM     17  C   UNL     1      32.667  -8.875 -20.811  0.00  0.00    +0.047 C 
BRANCH  17  18
ATOM     18  C   UNL     1      32.470  -7.577 -21.557  0.00  0.00    -0.020 C 
ATOM     19  C   UNL     1      33.370  -7.141 -22.543  0.00  0.00    -0.004 C 
ATOM     20  C   UNL     1      31.348  -6.815 -21.230  0.00  0.00    -0.004 C 
ATOM     21  C   UNL     1      33.129  -5.915 -23.207  0.00  0.00    -0.000 C 
ATOM     22  C   UNL     1      34.505  -7.896 -22.884  0.00  0.00    -0.000 C 
ATOM     23  C   UNL     1      31.110  -5.608 -21.884  0.00  0.00    -0.000 C 
ATOM     24  C   UNL     1      31.994  -5.160 -22.866  0.00  0.00    -0.000 C 
ATOM     25  C   UNL     1      34.029  -5.479 -24.193  0.00  0.00    -0.000 C 
ATOM     26  C   UNL     1      35.388  -7.448 -23.866  0.00  0.00    -0.000 C 
ATOM     27  C   UNL     1      35.151  -6.241 -24.520  0.00  0.00    -0.000 C 
ENDBRANCH  17  18
ENDBRANCH   1  17
BRANCH   1  28
ATOM     28  C   UNL     1      30.878 -10.471 -19.824  0.00  0.00    +0.130 C 
BRANCH  28  30
ATOM     29  O   UNL     1      31.334  -8.655 -18.270  0.00  0.00    -0.250 OA
ATOM     30  C   UNL     1      31.383  -9.846 -18.543  0.00  0.00    +0.316 C 
BRANCH  30  31
ATOM     31  O   UNL     1      31.875 -10.781 -17.688  0.00  0.00    -0.480 OA
ATOM     32  H   UNL     1      32.540 -10.548 -17.072  0.00  0.00    +0.295 HD
ENDBRANCH  30  31
ENDBRANCH  28  30
ENDBRANCH   1  28
TORSDOF 8
ENDMDL
MODEL 9
REMARK VINA RESULT:     -10.5     11.654     16.347
REMARK  Name = 24764434
REMARK  8 active torsions:
REMARK  status: ('A' for Active; 'I' for Inactive)
REMARK    1  A    between atoms: C_1  and  N_4
REMARK    2  A    between atoms: C_1  and  C_17
REMARK    3  A    between atoms: C_1  and  C_28
REMARK    4  A    between atoms: C_11  and  C_14
REMARK    5  A    between atoms: C_14  and  O_15
REMARK    6  A    between atoms: C_17  and  C_18
REMARK    7  A    between atoms: C_28  and  C_30
REMARK    8  A    between atoms: C_30  and  O_31
REMARK                            x       y       z     vdW  Elec       q    Type
REMARK                         _______ _______ _______ _____ _____    ______ ____
ROOT
ATOM      1  C   UNL     1      31.782  -8.571 -21.862  0.00  0.00    +0.098 C 
ENDROOT
BRANCH   1   4
ATOM      2  O   UNL     1      33.639  -9.762 -23.869  0.00  0.00    -0.269 OA
ATOM      3  O   UNL     1      30.921 -10.974 -20.319  0.00  0.00    -0.269 OA
ATOM      4  N   UNL     1      32.159  -9.958 -22.046  0.00  0.00    -0.224 N 
ATOM      5  C   UNL     1      33.033 -10.391 -23.022  0.00  0.00    +0.255 C 
ATOM      6  C   UNL     1      31.686 -10.991 -21.265  0.00  0.00    +0.255 C 
ATOM      7  C   UNL     1      33.121 -11.841 -22.858  0.00  0.00    +0.059 C 
ATOM      8  C   UNL     1      32.307 -12.204 -21.796  0.00  0.00    +0.058 C 
ATOM      9  C   UNL     1      33.850 -12.771 -23.571  0.00  0.00    +0.011 C 
ATOM     10  C   UNL     1      32.179 -13.517 -21.389  0.00  0.00    +0.005 C 
ATOM     11  C   UNL     1      33.735 -14.108 -23.178  0.00  0.00    +0.076 C 
ATOM     12  C   UNL     1      32.907 -14.477 -22.098  0.00  0.00    +0.007 C 
BRANCH  11  14
ATOM     13  O   UNL     1      34.247 -15.515 -25.044  0.00  0.00    -0.245 OA
ATOM     14  C   UNL     1      34.479 -15.134 -23.891  0.00  0.00    +0.338 C 
BRANCH  14  15
ATOM     15  O   UNL     1      35.493 -15.653 -23.147  0.00  0.00    -0.477 OA
ATOM     16  H   UNL     1      35.452 -15.620 -22.212  0.00  0.00    +0.295 HD
ENDBRANCH  14  15
ENDBRANCH  11  14
ENDBRANCH   1   4
BRANCH   1  17
ATOM     17  C   UNL     1      31.306  -7.945 -23.191  0.00  0.00    +0.047 C 
BRANCH  17  18
ATOM     18  C   UNL     1      31.655  -6.490 -23.392  0.00  0.00    -0.020 C 
ATOM     19  C   UNL     1      32.509  -6.066 -24.423  0.00  0.00    -0.004 C 
ATOM     20  C   UNL     1      31.094  -5.568 -22.508  0.00  0.00    -0.004 C 
ATOM     21  C   UNL     1      32.799  -4.687 -24.560  0.00  0.00    -0.000 C 
ATOM     22  C   UNL     1      33.083  -6.980 -25.322  0.00  0.00    -0.000 C 
ATOM     23  C   UNL     1      31.378  -4.212 -22.642  0.00  0.00    -0.000 C 
ATOM     24  C   UNL     1      32.225  -3.773 -23.660  0.00  0.00    -0.000 C 
ATOM     25  C   UNL     1      33.652  -4.263 -25.590  0.00  0.00    -0.000 C 
ATOM     26  C   UNL     1      33.929  -6.540 -26.341  0.00  0.00    -0.000 C 
ATOM     27  C   UNL     1      34.213  -5.184 -26.474  0.00  0.00    -0.000 C 
ENDBRANCH  17  18
ENDBRANCH   1  17
BRANCH   1  28
ATOM     28  C   UNL     1      32.915  -7.806 -21.163  0.00  0.00    +0.130 C 
BRANCH  28  30
ATOM     29  O   UNL     1      31.853  -8.251 -19.020  0.00  0.00    -0.250 OA
ATOM     30  C   UNL     1      32.739  -7.709 -19.664  0.00  0.00    +0.316 C 
BRANCH  30  31
ATOM     31  O   UNL     1      33.720  -6.964 -19.090  0.00  0.00    -0.480 OA
ATOM     32  H   UNL     1      34.531  -6.833 -19.540  0.00  0.00    +0.295 HD
ENDBRANCH  30  31
ENDBRANCH  28  30
ENDBRANCH   1  28
TORSDOF 8
ENDMDL
