MODEL 1
REMARK VINA RESULT:     -12.5      0.000      0.000
REMARK  Name = 5291
REMARK  6 active torsions:
REMARK  status: ('A' for Active; 'I' for Inactive)
REMARK    1  A    between atoms: C_1  and  N_23
REMARK    2  A    between atoms: C_2  and  N_8
REMARK    3  A    between atoms: C_12  and  C_17
REMARK    4  A    between atoms: C_24  and  C_31
REMARK    5  A    between atoms: C_26  and  C_32
REMARK    6  A    between atoms: C_32  and  N_33
REMARK                            x       y       z     vdW  Elec       q    Type
REMARK                         _______ _______ _______ _____ _____    ______ ____
ROOT
ATOM      1  C   UNL     1      32.730 -23.227 -15.986  0.00  0.00    +0.052 C 
ATOM      2  C   UNL     1      32.701 -23.992 -13.715  0.00  0.00    +0.055 C 
ATOM      3  C   UNL     1      33.306 -23.249 -14.727  0.00  0.00    +0.030 C 
ATOM      4  C   UNL     1      31.529 -24.702 -13.976  0.00  0.00    -0.008 C 
ATOM      5  C   UNL     1      31.568 -23.925 -16.262  0.00  0.00    +0.014 C 
ATOM      6  C   UNL     1      30.963 -24.669 -15.249  0.00  0.00    -0.002 C 
ATOM      7  C   UNL     1      30.860 -25.507 -12.909  0.00  0.00    +0.032 C 
ENDROOT
BRANCH   2   8
ATOM      8  N   UNL     1      33.287 -24.015 -12.429  0.00  0.00    -0.248 N 
ATOM      9  N   UNL     1      35.552 -24.345 -12.947  0.00  0.00    -0.337 NA
ATOM     10  N   UNL     1      34.822 -24.145 -10.659  0.00  0.00    -0.170 NA
ATOM     11  C   UNL     1      34.615 -24.175 -11.992  0.00  0.00    +0.149 C 
ATOM     12  C   UNL     1      36.813 -24.497 -12.493  0.00  0.00    +0.147 C 
ATOM     13  C   UNL     1      37.153 -24.484 -11.156  0.00  0.00    +0.055 C 
ATOM     14  C   UNL     1      36.107 -24.303 -10.275  0.00  0.00    +0.114 C 
ATOM     15  H   UNL     1      32.641 -23.893 -11.697  0.00  0.00    +0.165 HD
BRANCH  12  17
ATOM     16  N   UNL     1      38.813 -23.923 -15.586  0.00  0.00    -0.242 NA
ATOM     17  C   UNL     1      37.815 -24.677 -13.516  0.00  0.00    +0.050 C 
ATOM     18  C   UNL     1      38.729 -25.724 -13.450  0.00  0.00    +0.006 C 
ATOM     19  C   UNL     1      37.900 -23.812 -14.595  0.00  0.00    +0.101 C 
ATOM     20  C   UNL     1      39.683 -25.872 -14.450  0.00  0.00    +0.021 C 
ATOM     21  C   UNL     1      39.683 -24.953 -15.487  0.00  0.00    +0.099 C 
ENDBRANCH  12  17
ENDBRANCH   2   8
BRANCH   1  23
ATOM     22  O   UNL     1      33.743 -24.080 -18.677  0.00  0.00    -0.270 OA
ATOM     23  N   UNL     1      33.344 -22.471 -17.015  0.00  0.00    -0.280 N 
ATOM     24  C   UNL     1      33.805 -22.910 -18.264  0.00  0.00    +0.249 C 
ATOM     25  H   UNL     1      33.462 -21.512 -16.828  0.00  0.00    +0.155 HD
BRANCH  24  31
ATOM     26  C   UNL     1      35.599 -19.959 -20.707  0.00  0.00    -0.043 C 
ATOM     27  C   UNL     1      36.401 -20.784 -19.932  0.00  0.00    -0.006 C 
ATOM     28  C   UNL     1      34.217 -20.088 -20.693  0.00  0.00    -0.006 C 
ATOM     29  C   UNL     1      35.810 -21.757 -19.127  0.00  0.00    +0.004 C 
ATOM     30  C   UNL     1      33.625 -21.061 -19.888  0.00  0.00    +0.004 C 
ATOM     31  C   UNL     1      34.422 -21.896 -19.105  0.00  0.00    +0.054 C 
BRANCH  26  32
ATOM     32  C   UNL     1      36.237 -18.909 -21.577  0.00  0.00    -0.050 C 
BRANCH  32  33
ATOM     33  N   UNL     1      35.238 -18.088 -22.261  0.00  0.00    +0.387 N 
ATOM     34  N   UNL     1      34.419 -16.120 -24.214  0.00  0.00    +0.383 N 
ATOM     35  C   UNL     1      35.190 -18.410 -23.692  0.00  0.00    -0.100 C 
ATOM     36  C   UNL     1      35.515 -16.660 -22.065  0.00  0.00    -0.100 C 
ATOM     37  C   UNL     1      34.143 -17.549 -24.409  0.00  0.00    -0.101 C 
ATOM     38  C   UNL     1      34.471 -15.798 -22.782  0.00  0.00    -0.101 C 
ATOM     39  C   UNL     1      33.420 -15.301 -24.896  0.00  0.00    -0.101 C 
ATOM     40  H   UNL     1      34.327 -18.298 -21.852  0.00  0.00    -0.079 HD
ATOM     41  H   UNL     1      35.330 -15.911 -24.622  0.00  0.00    -0.080 HD
ENDBRANCH  32  33
ENDBRANCH  26  32
ENDBRANCH  24  31
ENDBRANCH   1  23
TORSDOF 6
ENDMDL
MODEL 2
REMARK VINA RESULT:     -11.0      2.856      5.857
REMARK  Name = 5291
REMARK  6 active torsions:
REMARK  status: ('A' for Active; 'I' for Inactive)
REMARK    1  A    between atoms: C_1  and  N_23
REMARK    2  A    between atoms: C_2  and  N_8
REMARK    3  A    between atoms: C_12  and  C_17
REMARK    4  A    between atoms: C_24  and  C_31
REMARK    5  A    between atoms: C_26  and  C_32
REMARK    6  A    between atoms: C_32  and  N_33
REMARK                            x       y       z     vdW  Elec       q    Type
REMARK                         _______ _______ _______ _____ _____    ______ ____
ROOT
ATOM      1  C   UNL     1      34.219 -20.445 -20.164  0.00  0.00    +0.052 C 
ATOM      2  C   UNL     1      33.060 -22.028 -18.787  0.00  0.00    +0.055 C 
ATOM      3  C   UNL     1      33.084 -20.807 -19.458  0.00  0.00    +0.030 C 
ATOM      4  C   UNL     1      34.172 -22.869 -18.830  0.00  0.00    -0.008 C 
ATOM      5  C   UNL     1      35.331 -21.267 -20.217  0.00  0.00    +0.014 C 
ATOM      6  C   UNL     1      35.307 -22.489 -19.544  0.00  0.00    -0.002 C 
ATOM      7  C   UNL     1      34.175 -24.183 -18.118  0.00  0.00    +0.032 C 
ENDROOT
BRANCH   2   8
ATOM      8  N   UNL     1      31.902 -22.399 -18.067  0.00  0.00    -0.248 N 
ATOM      9  N   UNL     1      32.819 -23.108 -16.026  0.00  0.00    -0.337 NA
ATOM     10  N   UNL     1      30.439 -23.161 -16.398  0.00  0.00    -0.170 NA
ATOM     11  C   UNL     1      31.711 -22.912 -16.771  0.00  0.00    +0.149 C 
ATOM     12  C   UNL     1      32.601 -23.601 -14.790  0.00  0.00    +0.147 C 
ATOM     13  C   UNL     1      31.347 -23.895 -14.293  0.00  0.00    +0.055 C 
ATOM     14  C   UNL     1      30.293 -23.653 -15.150  0.00  0.00    +0.114 C 
ATOM     15  H   UNL     1      31.066 -22.273 -18.571  0.00  0.00    +0.165 HD
BRANCH  12  17
ATOM     16  N   UNL     1      34.781 -24.608 -11.940  0.00  0.00    -0.242 NA
ATOM     17  C   UNL     1      33.786 -23.809 -13.994  0.00  0.00    +0.050 C 
ATOM     18  C   UNL     1      35.041 -23.437 -14.465  0.00  0.00    +0.006 C 
ATOM     19  C   UNL     1      33.711 -24.386 -12.736  0.00  0.00    +0.101 C 
ATOM     20  C   UNL     1      36.165 -23.649 -13.675  0.00  0.00    +0.021 C 
ATOM     21  C   UNL     1      35.983 -24.233 -12.432  0.00  0.00    +0.099 C 
ENDBRANCH  12  17
ENDBRANCH   2   8
BRANCH   1  23
ATOM     22  O   UNL     1      36.444 -18.464 -20.509  0.00  0.00    -0.270 OA
ATOM     23  N   UNL     1      34.243 -19.205 -20.847  0.00  0.00    -0.280 N 
ATOM     24  C   UNL     1      35.309 -18.304 -20.986  0.00  0.00    +0.249 C 
ATOM     25  H   UNL     1      33.400 -18.940 -21.282  0.00  0.00    +0.155 HD
BRANCH  24  31
ATOM     26  C   UNL     1      34.465 -14.767 -23.146  0.00  0.00    -0.043 C 
ATOM     27  C   UNL     1      34.518 -14.724 -21.760  0.00  0.00    -0.006 C 
ATOM     28  C   UNL     1      34.685 -15.952 -23.834  0.00  0.00    -0.006 C 
ATOM     29  C   UNL     1      34.796 -15.891 -21.048  0.00  0.00    +0.004 C 
ATOM     30  C   UNL     1      34.964 -17.118 -23.122  0.00  0.00    +0.004 C 
ATOM     31  C   UNL     1      35.020 -17.088 -21.729  0.00  0.00    +0.054 C 
BRANCH  26  32
ATOM     32  C   UNL     1      34.165 -13.508 -23.916  0.00  0.00    -0.050 C 
BRANCH  32  33
ATOM     33  N   UNL     1      33.675 -12.440 -23.045  0.00  0.00    +0.387 N 
ATOM     34  N   UNL     1      31.937 -10.215 -22.424  0.00  0.00    +0.383 N 
ATOM     35  C   UNL     1      32.261 -12.649 -22.710  0.00  0.00    -0.100 C 
ATOM     36  C   UNL     1      33.866 -11.127 -23.672  0.00  0.00    -0.100 C 
ATOM     37  C   UNL     1      31.747 -11.529 -21.797  0.00  0.00    -0.101 C 
ATOM     38  C   UNL     1      33.351 -10.007 -22.761  0.00  0.00    -0.101 C 
ATOM     39  C   UNL     1      31.449  -9.150 -21.552  0.00  0.00    -0.101 C 
ATOM     40  H   UNL     1      34.217 -12.466 -22.182  0.00  0.00    -0.079 HD
ATOM     41  H   UNL     1      31.394 -10.189 -23.287  0.00  0.00    -0.080 HD
ENDBRANCH  32  33
ENDBRANCH  26  32
ENDBRANCH  24  31
ENDBRANCH   1  23
TORSDOF 6
ENDMDL
MODEL 3
REMARK VINA RESULT:     -10.2      5.388     13.721
REMARK  Name = 5291
REMARK  6 active torsions:
REMARK  status: ('A' for Active; 'I' for Inactive)
REMARK    1  A    between atoms: C_1  and  N_23
REMARK    2  A    between atoms: C_2  and  N_8
REMARK    3  A    between atoms: C_12  and  C_17
REMARK    4  A    between atoms: C_24  and  C_31
REMARK    5  A    between atoms: C_26  and  C_32
REMARK    6  A    between atoms: C_32  and  N_33
REMARK                            x       y       z     vdW  Elec       q    Type
REMARK                         _______ _______ _______ _____ _____    ______ ____
ROOT
ATOM      1  C   UNL     1      33.865 -14.699 -22.101  0.00  0.00    +0.052 C 
ATOM      2  C   UNL     1      32.756 -12.629 -21.623  0.00  0.00    +0.055 C 
ATOM      3  C   UNL     1      33.248 -13.858 -21.190  0.00  0.00    +0.030 C 
ATOM      4  C   UNL     1      32.886 -12.257 -22.962  0.00  0.00    -0.008 C 
ATOM      5  C   UNL     1      34.003 -14.346 -23.432  0.00  0.00    +0.014 C 
ATOM      6  C   UNL     1      33.509 -13.116 -23.866  0.00  0.00    -0.002 C 
ATOM      7  C   UNL     1      32.366 -10.946 -23.454  0.00  0.00    +0.032 C 
ENDROOT
BRANCH   2   8
ATOM      8  N   UNL     1      32.127 -11.769 -20.694  0.00  0.00    -0.248 N 
ATOM      9  N   UNL     1      32.785  -9.658 -21.482  0.00  0.00    -0.337 NA
ATOM     10  N   UNL     1      31.380  -9.870 -19.536  0.00  0.00    -0.170 NA
ATOM     11  C   UNL     1      32.096 -10.369 -20.565  0.00  0.00    +0.149 C 
ATOM     12  C   UNL     1      32.735  -8.319 -21.328  0.00  0.00    +0.147 C 
ATOM     13  C   UNL     1      32.037  -7.690 -20.317  0.00  0.00    +0.055 C 
ATOM     14  C   UNL     1      31.372  -8.524 -19.441  0.00  0.00    +0.114 C 
ATOM     15  H   UNL     1      31.609 -12.243 -20.004  0.00  0.00    +0.165 HD
BRANCH  12  17
ATOM     16  N   UNL     1      33.550  -5.692 -23.843  0.00  0.00    -0.242 NA
ATOM     17  C   UNL     1      33.471  -7.561 -22.309  0.00  0.00    +0.050 C 
ATOM     18  C   UNL     1      34.763  -7.924 -22.676  0.00  0.00    +0.006 C 
ATOM     19  C   UNL     1      32.916  -6.446 -22.917  0.00  0.00    +0.101 C 
ATOM     20  C   UNL     1      35.448  -7.174 -23.625  0.00  0.00    +0.021 C 
ATOM     21  C   UNL     1      34.803  -6.077 -24.173  0.00  0.00    +0.099 C 
ENDBRANCH  12  17
ENDBRANCH   2   8
BRANCH   1  23
ATOM     22  O   UNL     1      35.122 -16.938 -23.650  0.00  0.00    -0.270 OA
ATOM     23  N   UNL     1      34.367 -15.948 -21.661  0.00  0.00    -0.280 N 
ATOM     24  C   UNL     1      34.950 -16.972 -22.421  0.00  0.00    +0.249 C 
ATOM     25  H   UNL     1      34.298 -16.120 -20.694  0.00  0.00    +0.155 HD
BRANCH  24  31
ATOM     26  C   UNL     1      36.107 -20.429 -20.276  0.00  0.00    -0.043 C 
ATOM     27  C   UNL     1      34.771 -20.243 -20.601  0.00  0.00    -0.006 C 
ATOM     28  C   UNL     1      37.069 -19.499 -20.644  0.00  0.00    -0.006 C 
ATOM     29  C   UNL     1      34.390 -19.103 -21.309  0.00  0.00    +0.004 C 
ATOM     30  C   UNL     1      36.688 -18.360 -21.352  0.00  0.00    +0.004 C 
ATOM     31  C   UNL     1      35.349 -18.161 -21.685  0.00  0.00    +0.054 C 
BRANCH  26  32
ATOM     32  C   UNL     1      36.519 -21.660 -19.513  0.00  0.00    -0.050 C 
BRANCH  32  33
ATOM     33  N   UNL     1      35.696 -21.864 -18.322  0.00  0.00    +0.387 N 
ATOM     34  N   UNL     1      34.602 -23.484 -16.192  0.00  0.00    +0.383 N 
ATOM     35  C   UNL     1      36.522 -22.283 -17.183  0.00  0.00    -0.100 C 
ATOM     36  C   UNL     1      34.641 -22.850 -18.581  0.00  0.00    -0.100 C 
ATOM     37  C   UNL     1      35.659 -22.497 -15.934  0.00  0.00    -0.101 C 
ATOM     38  C   UNL     1      33.778 -23.067 -17.333  0.00  0.00    -0.101 C 
ATOM     39  C   UNL     1      33.779 -23.685 -15.002  0.00  0.00    -0.101 C 
ATOM     40  H   UNL     1      35.255 -20.974 -18.090  0.00  0.00    -0.079 HD
ATOM     41  H   UNL     1      35.044 -24.374 -16.424  0.00  0.00    -0.080 HD
ENDBRANCH  32  33
ENDBRANCH  26  32
ENDBRANCH  24  31
ENDBRANCH   1  23
TORSDOF 6
ENDMDL
MODEL 4
REMARK VINA RESULT:     -10.1      9.200     18.192
REMARK  Name = 5291
REMARK  6 active torsions:
REMARK  status: ('A' for Active; 'I' for Inactive)
REMARK    1  A    between atoms: C_1  and  N_23
REMARK    2  A    between atoms: C_2  and  N_8
REMARK    3  A    between atoms: C_12  and  C_17
REMARK    4  A    between atoms: C_24  and  C_31
REMARK    5  A    between atoms: C_26  and  C_32
REMARK    6  A    between atoms: C_32  and  N_33
REMARK                            x       y       z     vdW  Elec       q    Type
REMARK                         _______ _______ _______ _____ _____    ______ ____
ROOT
ATOM      1  C   UNL     1      32.443  -7.591 -22.358  0.00  0.00    +0.052 C 
ATOM      2  C   UNL     1      31.662  -5.383 -22.866  0.00  0.00    +0.055 C 
ATOM      3  C   UNL     1      31.849  -6.711 -23.247  0.00  0.00    +0.030 C 
ATOM      4  C   UNL     1      32.071  -4.955 -21.603  0.00  0.00    -0.008 C 
ATOM      5  C   UNL     1      32.855  -7.183 -21.102  0.00  0.00    +0.014 C 
ATOM      6  C   UNL     1      32.668  -5.854 -20.721  0.00  0.00    -0.002 C 
ATOM      7  C   UNL     1      31.883  -3.537 -21.170  0.00  0.00    +0.032 C 
ENDROOT
BRANCH   2   8
ATOM      8  N   UNL     1      31.054  -4.484 -23.771  0.00  0.00    -0.248 N 
ATOM      9  N   UNL     1      32.857  -3.926 -25.166  0.00  0.00    -0.337 NA
ATOM     10  N   UNL     1      30.672  -2.977 -25.529  0.00  0.00    -0.170 NA
ATOM     11  C   UNL     1      31.551  -3.763 -24.873  0.00  0.00    +0.149 C 
ATOM     12  C   UNL     1      33.300  -3.220 -26.227  0.00  0.00    +0.147 C 
ATOM     13  C   UNL     1      32.500  -2.384 -26.979  0.00  0.00    +0.055 C 
ATOM     14  C   UNL     1      31.182  -2.300 -26.580  0.00  0.00    +0.114 C 
ATOM     15  H   UNL     1      30.097  -4.333 -23.598  0.00  0.00    +0.165 HD
BRANCH  12  17
ATOM     16  N   UNL     1      36.771  -2.443 -27.342  0.00  0.00    -0.242 NA
ATOM     17  C   UNL     1      34.698  -3.396 -26.540  0.00  0.00    +0.050 C 
ATOM     18  C   UNL     1      35.325  -4.625 -26.361  0.00  0.00    +0.006 C 
ATOM     19  C   UNL     1      35.459  -2.347 -27.029  0.00  0.00    +0.101 C 
ATOM     20  C   UNL     1      36.672  -4.764 -26.672  0.00  0.00    +0.021 C 
ATOM     21  C   UNL     1      37.344  -3.653 -27.155  0.00  0.00    +0.099 C 
ENDBRANCH  12  17
ENDBRANCH   2   8
BRANCH   1  23
ATOM     22  O   UNL     1      31.590 -10.131 -21.011  0.00  0.00    -0.270 OA
ATOM     23  N   UNL     1      32.633  -8.940 -22.744  0.00  0.00    -0.280 N 
ATOM     24  C   UNL     1      32.216 -10.105 -22.083  0.00  0.00    +0.249 C 
ATOM     25  H   UNL     1      33.122  -9.080 -23.587  0.00  0.00    +0.155 HD
BRANCH  24  31
ATOM     26  C   UNL     1      33.287 -13.758 -23.928  0.00  0.00    -0.043 C 
ATOM     27  C   UNL     1      33.928 -12.587 -24.308  0.00  0.00    -0.006 C 
ATOM     28  C   UNL     1      32.300 -13.748 -22.952  0.00  0.00    -0.006 C 
ATOM     29  C   UNL     1      33.575 -11.383 -23.699  0.00  0.00    +0.004 C 
ATOM     30  C   UNL     1      31.948 -12.544 -22.343  0.00  0.00    +0.004 C 
ATOM     31  C   UNL     1      32.585 -11.361 -22.716  0.00  0.00    +0.054 C 
BRANCH  26  32
ATOM     32  C   UNL     1      33.668 -15.058 -24.584  0.00  0.00    -0.050 C 
BRANCH  32  33
ATOM     33  N   UNL     1      33.986 -16.092 -23.600  0.00  0.00    +0.387 N 
ATOM     34  N   UNL     1      35.809 -17.852 -22.208  0.00  0.00    +0.383 N 
ATOM     35  C   UNL     1      34.914 -15.579 -22.585  0.00  0.00    -0.100 C 
ATOM     36  C   UNL     1      34.546 -17.280 -24.254  0.00  0.00    -0.100 C 
ATOM     37  C   UNL     1      35.248 -16.663 -21.554  0.00  0.00    -0.101 C 
ATOM     38  C   UNL     1      34.882 -18.364 -23.224  0.00  0.00    -0.101 C 
ATOM     39  C   UNL     1      36.124 -18.885 -21.224  0.00  0.00    -0.101 C 
ATOM     40  H   UNL     1      33.118 -16.360 -23.135  0.00  0.00    -0.079 HD
ATOM     41  H   UNL     1      36.677 -17.584 -22.672  0.00  0.00    -0.080 HD
ENDBRANCH  32  33
ENDBRANCH  26  32
ENDBRANCH  24  31
ENDBRANCH   1  23
TORSDOF 6
ENDMDL
