MODEL 1
REMARK VINA RESULT:     -11.2      0.000      0.000
REMARK  Name = 77993
REMARK  6 active torsions:
REMARK  status: ('A' for Active; 'I' for Inactive)
REMARK    1  A    between atoms: C_2  and  C_11
REMARK    2  A    between atoms: C_7  and  C_19
REMARK    3  A    between atoms: C_11  and  C_13
REMARK    4  A    between atoms: C_19  and  C_20
REMARK    5  A    between atoms: C_20  and  S_21
REMARK    6  A    between atoms: S_21  and  C_24
REMARK                            x       y       z     vdW  Elec       q    Type
REMARK                         _______ _______ _______ _____ _____    ______ ____
ROOT
ATOM      1  N   UNL     1      33.482 -23.778 -16.062  0.00  0.00    -0.312 N 
ATOM      2  C   UNL     1      35.601 -23.272 -15.751  0.00  0.00    -0.008 C 
ATOM      3  C   UNL     1      35.215 -22.724 -16.993  0.00  0.00    +0.010 C 
ATOM      4  C   UNL     1      34.534 -23.912 -15.195  0.00  0.00    +0.058 C 
ATOM      5  C   UNL     1      33.870 -23.056 -17.169  0.00  0.00    +0.048 C 
ATOM      6  C   UNL     1      35.865 -21.976 -17.994  0.00  0.00    -0.003 C 
ATOM      7  C   UNL     1      35.148 -21.589 -19.131  0.00  0.00    -0.020 C 
ATOM      8  C   UNL     1      33.141 -22.677 -18.300  0.00  0.00    +0.014 C 
ATOM      9  C   UNL     1      33.807 -21.936 -19.281  0.00  0.00    -0.003 C 
ATOM     10  H   UNL     1      32.580 -24.144 -15.916  0.00  0.00    +0.152 HD
ENDROOT
BRANCH   2  11
ATOM     11  C   UNL     1      36.962 -23.173 -15.134  0.00  0.00    +0.007 C 
BRANCH  11  13
ATOM     12  N   UNL     1      37.530 -23.907 -12.811  0.00  0.00    +0.387 N 
ATOM     13  C   UNL     1      37.259 -24.332 -14.191  0.00  0.00    -0.054 C 
ATOM     14  C   UNL     1      38.549 -25.061 -14.576  0.00  0.00    -0.023 C 
ATOM     15  C   UNL     1      39.152 -25.536 -13.259  0.00  0.00    -0.025 C 
ATOM     16  C   UNL     1      38.190 -25.055 -12.184  0.00  0.00    -0.077 C 
ATOM     17  C   UNL     1      36.329 -23.518 -12.081  0.00  0.00    -0.101 C 
ATOM     18  H   UNL     1      38.110 -23.068 -12.799  0.00  0.00    -0.080 HD
ENDBRANCH  11  13
ENDBRANCH   2  11
BRANCH   7  19
ATOM     19  C   UNL     1      35.831 -20.797 -20.197  0.00  0.00    +0.052 C 
BRANCH  19  20
ATOM     20  C   UNL     1      35.024 -19.595 -20.695  0.00  0.00    +0.161 C 
BRANCH  20  21
ATOM     21  S   UNL     1      35.803 -18.771 -22.048  0.00  0.00    +0.009 S 
ATOM     22  O   UNL     1      35.285 -19.321 -23.289  0.00  0.00    -0.169 OA
ATOM     23  O   UNL     1      37.233 -18.754 -21.794  0.00  0.00    -0.169 OA
BRANCH  21  24
ATOM     24  C   UNL     1      35.211 -17.109 -21.933  0.00  0.00    +0.106 C 
ATOM     25  C   UNL     1      35.000 -16.384 -23.094  0.00  0.00    +0.018 C 
ATOM     26  C   UNL     1      34.969 -16.563 -20.684  0.00  0.00    +0.018 C 
ATOM     27  C   UNL     1      34.533 -15.073 -23.003  0.00  0.00    +0.001 C 
ATOM     28  C   UNL     1      34.502 -15.251 -20.593  0.00  0.00    +0.001 C 
ATOM     29  C   UNL     1      34.284 -14.507 -21.752  0.00  0.00    +0.000 C 
ENDBRANCH  21  24
ENDBRANCH  20  21
ENDBRANCH  19  20
ENDBRANCH   7  19
TORSDOF 6
ENDMDL
MODEL 2
REMARK VINA RESULT:     -10.9      2.100      4.015
REMARK  Name = 77993
REMARK  6 active torsions:
REMARK  status: ('A' for Active; 'I' for Inactive)
REMARK    1  A    between atoms: C_2  and  C_11
REMARK    2  A    between atoms: C_7  and  C_19
REMARK    3  A    between atoms: C_11  and  C_13
REMARK    4  A    between atoms: C_19  and  C_20
REMARK    5  A    between atoms: C_20  and  S_21
REMARK    6  A    between atoms: S_21  and  C_24
REMARK                            x       y       z     vdW  Elec       q    Type
REMARK                         _______ _______ _______ _____ _____    ______ ____
ROOT
ATOM      1  N   UNL     1      36.058 -23.023 -15.776  0.00  0.00    -0.312 N 
ATOM      2  C   UNL     1      34.042 -23.499 -16.517  0.00  0.00    -0.008 C 
ATOM      3  C   UNL     1      34.678 -22.714 -17.502  0.00  0.00    +0.010 C 
ATOM      4  C   UNL     1      34.896 -23.680 -15.470  0.00  0.00    +0.058 C 
ATOM      5  C   UNL     1      35.954 -22.424 -17.012  0.00  0.00    +0.048 C 
ATOM      6  C   UNL     1      34.308 -22.213 -18.766  0.00  0.00    -0.003 C 
ATOM      7  C   UNL     1      35.224 -21.444 -19.491  0.00  0.00    -0.020 C 
ATOM      8  C   UNL     1      36.880 -21.656 -17.725  0.00  0.00    +0.014 C 
ATOM      9  C   UNL     1      36.490 -21.170 -18.976  0.00  0.00    -0.003 C 
ATOM     10  H   UNL     1      36.853 -22.985 -15.198  0.00  0.00    +0.152 HD
ENDROOT
BRANCH   2  11
ATOM     11  C   UNL     1      32.652 -24.051 -16.599  0.00  0.00    +0.007 C 
BRANCH  11  13
ATOM     12  N   UNL     1      31.202 -24.542 -14.621  0.00  0.00    +0.387 N 
ATOM     13  C   UNL     1      31.743 -23.503 -15.507  0.00  0.00    -0.054 C 
ATOM     14  C   UNL     1      30.478 -22.866 -16.088  0.00  0.00    -0.023 C 
ATOM     15  C   UNL     1      29.385 -23.131 -15.059  0.00  0.00    -0.025 C 
ATOM     16  C   UNL     1      30.067 -23.909 -13.945  0.00  0.00    -0.077 C 
ATOM     17  C   UNL     1      32.178 -25.049 -13.663  0.00  0.00    -0.101 C 
ATOM     18  H   UNL     1      30.929 -25.366 -15.156  0.00  0.00    -0.080 HD
ENDBRANCH  11  13
ENDBRANCH   2  11
BRANCH   7  19
ATOM     19  C   UNL     1      34.839 -20.909 -20.831  0.00  0.00    +0.052 C 
BRANCH  19  20
ATOM     20  C   UNL     1      34.602 -19.396 -20.854  0.00  0.00    +0.161 C 
BRANCH  20  21
ATOM     21  S   UNL     1      35.605 -18.573 -22.051  0.00  0.00    +0.009 S 
ATOM     22  O   UNL     1      35.239 -19.049 -23.374  0.00  0.00    -0.169 OA
ATOM     23  O   UNL     1      36.984 -18.648 -21.602  0.00  0.00    -0.169 OA
BRANCH  21  24
ATOM     24  C   UNL     1      35.091 -16.885 -21.950  0.00  0.00    +0.106 C 
ATOM     25  C   UNL     1      34.851 -16.324 -20.707  0.00  0.00    +0.018 C 
ATOM     26  C   UNL     1      34.939 -16.153 -23.116  0.00  0.00    +0.018 C 
ATOM     27  C   UNL     1      34.447 -14.992 -20.627  0.00  0.00    +0.001 C 
ATOM     28  C   UNL     1      34.534 -14.821 -23.036  0.00  0.00    +0.001 C 
ATOM     29  C   UNL     1      34.288 -14.240 -21.792  0.00  0.00    +0.000 C 
ENDBRANCH  21  24
ENDBRANCH  20  21
ENDBRANCH  19  20
ENDBRANCH   7  19
TORSDOF 6
ENDMDL
MODEL 3
REMARK VINA RESULT:     -10.8      5.384     12.149
REMARK  Name = 77993
REMARK  6 active torsions:
REMARK  status: ('A' for Active; 'I' for Inactive)
REMARK    1  A    between atoms: C_2  and  C_11
REMARK    2  A    between atoms: C_7  and  C_19
REMARK    3  A    between atoms: C_11  and  C_13
REMARK    4  A    between atoms: C_19  and  C_20
REMARK    5  A    between atoms: C_20  and  S_21
REMARK    6  A    between atoms: S_21  and  C_24
REMARK                            x       y       z     vdW  Elec       q    Type
REMARK                         _______ _______ _______ _____ _____    ______ ____
ROOT
ATOM      1  N   UNL     1      31.360 -11.847 -20.430  0.00  0.00    -0.312 N 
ATOM      2  C   UNL     1      32.505 -11.423 -22.260  0.00  0.00    -0.008 C 
ATOM      3  C   UNL     1      32.915 -12.690 -21.792  0.00  0.00    +0.010 C 
ATOM      4  C   UNL     1      31.557 -10.921 -21.420  0.00  0.00    +0.058 C 
ATOM      5  C   UNL     1      32.177 -12.938 -20.631  0.00  0.00    +0.048 C 
ATOM      6  C   UNL     1      33.838 -13.660 -22.228  0.00  0.00    -0.003 C 
ATOM      7  C   UNL     1      33.989 -14.839 -21.490  0.00  0.00    -0.020 C 
ATOM      8  C   UNL     1      32.317 -14.111 -19.884  0.00  0.00    +0.014 C 
ATOM      9  C   UNL     1      33.239 -15.059 -20.336  0.00  0.00    -0.003 C 
ATOM     10  H   UNL     1      30.728 -11.748 -19.683  0.00  0.00    +0.152 HD
ENDROOT
BRANCH   2  11
ATOM     11  C   UNL     1      33.022 -10.733 -23.484  0.00  0.00    +0.007 C 
BRANCH  11  13
ATOM     12  N   UNL     1      32.740  -8.312 -24.048  0.00  0.00    +0.387 N 
ATOM     13  C   UNL     1      33.439  -9.294 -23.208  0.00  0.00    -0.054 C 
ATOM     14  C   UNL     1      34.909  -9.050 -23.561  0.00  0.00    -0.023 C 
ATOM     15  C   UNL     1      34.973  -7.606 -24.044  0.00  0.00    -0.025 C 
ATOM     16  C   UNL     1      33.545  -7.091 -23.953  0.00  0.00    -0.077 C 
ATOM     17  C   UNL     1      31.362  -8.076 -23.633  0.00  0.00    -0.101 C 
ATOM     18  H   UNL     1      32.655  -8.651 -25.006  0.00  0.00    -0.080 HD
ENDBRANCH  11  13
ENDBRANCH   2  11
BRANCH   7  19
ATOM     19  C   UNL     1      34.967 -15.872 -21.946  0.00  0.00    +0.052 C 
BRANCH  19  20
ATOM     20  C   UNL     1      35.040 -17.104 -21.039  0.00  0.00    +0.161 C 
BRANCH  20  21
ATOM     21  S   UNL     1      35.466 -18.571 -21.925  0.00  0.00    +0.009 S 
ATOM     22  O   UNL     1      36.910 -18.632 -22.062  0.00  0.00    -0.169 OA
ATOM     23  O   UNL     1      34.615 -18.642 -23.100  0.00  0.00    -0.169 OA
BRANCH  21  24
ATOM     24  C   UNL     1      34.995 -19.879 -20.834  0.00  0.00    +0.106 C 
ATOM     25  C   UNL     1      35.978 -20.623 -20.204  0.00  0.00    +0.018 C 
ATOM     26  C   UNL     1      33.649 -20.137 -20.628  0.00  0.00    +0.018 C 
ATOM     27  C   UNL     1      35.606 -21.655 -19.343  0.00  0.00    +0.001 C 
ATOM     28  C   UNL     1      33.278 -21.169 -19.766  0.00  0.00    +0.001 C 
ATOM     29  C   UNL     1      34.256 -21.928 -19.125  0.00  0.00    +0.000 C 
ENDBRANCH  21  24
ENDBRANCH  20  21
ENDBRANCH  19  20
ENDBRANCH   7  19
TORSDOF 6
ENDMDL
MODEL 4
REMARK VINA RESULT:     -10.7      4.372      7.599
REMARK  Name = 77993
REMARK  6 active torsions:
REMARK  status: ('A' for Active; 'I' for Inactive)
REMARK    1  A    between atoms: C_2  and  C_11
REMARK    2  A    between atoms: C_7  and  C_19
REMARK    3  A    between atoms: C_11  and  C_13
REMARK    4  A    between atoms: C_19  and  C_20
REMARK    5  A    between atoms: C_20  and  S_21
REMARK    6  A    between atoms: S_21  and  C_24
REMARK                            x       y       z     vdW  Elec       q    Type
REMARK                         _______ _______ _______ _____ _____    ______ ____
ROOT
ATOM      1  N   UNL     1      34.350 -19.094 -24.370  0.00  0.00    -0.312 N 
ATOM      2  C   UNL     1      35.129 -18.817 -22.331  0.00  0.00    -0.008 C 
ATOM      3  C   UNL     1      34.807 -17.539 -22.835  0.00  0.00    +0.010 C 
ATOM      4  C   UNL     1      34.845 -19.755 -23.277  0.00  0.00    +0.058 C 
ATOM      5  C   UNL     1      34.316 -17.739 -24.128  0.00  0.00    +0.048 C 
ATOM      6  C   UNL     1      34.880 -16.224 -22.334  0.00  0.00    -0.003 C 
ATOM      7  C   UNL     1      34.459 -15.162 -23.140  0.00  0.00    -0.020 C 
ATOM      8  C   UNL     1      33.892 -16.686 -24.945  0.00  0.00    +0.014 C 
ATOM      9  C   UNL     1      33.974 -15.391 -24.426  0.00  0.00    -0.003 C 
ATOM     10  H   UNL     1      34.060 -19.524 -25.206  0.00  0.00    +0.152 HD
ENDROOT
BRANCH   2  11
ATOM     11  C   UNL     1      35.693 -19.106 -20.974  0.00  0.00    +0.007 C 
BRANCH  11  13
ATOM     12  N   UNL     1      34.250 -20.659 -19.645  0.00  0.00    +0.387 N 
ATOM     13  C   UNL     1      35.422 -20.536 -20.524  0.00  0.00    -0.054 C 
ATOM     14  C   UNL     1      36.554 -21.082 -19.651  0.00  0.00    -0.023 C 
ATOM     15  C   UNL     1      35.880 -22.020 -18.656  0.00  0.00    -0.025 C 
ATOM     16  C   UNL     1      34.399 -21.965 -18.998  0.00  0.00    -0.077 C 
ATOM     17  C   UNL     1      32.982 -20.559 -20.358  0.00  0.00    -0.101 C 
ATOM     18  H   UNL     1      34.220 -19.891 -18.975  0.00  0.00    -0.080 HD
ENDBRANCH  11  13
ENDBRANCH   2  11
BRANCH   7  19
ATOM     19  C   UNL     1      34.535 -13.765 -22.615  0.00  0.00    +0.052 C 
BRANCH  19  20
ATOM     20  C   UNL     1      33.987 -13.603 -21.195  0.00  0.00    +0.161 C 
BRANCH  20  21
ATOM     21  S   UNL     1      32.239 -13.355 -21.168  0.00  0.00    +0.009 S 
ATOM     22  O   UNL     1      31.660 -14.220 -20.155  0.00  0.00    -0.169 OA
ATOM     23  O   UNL     1      31.762 -13.410 -22.539  0.00  0.00    -0.169 OA
BRANCH  21  24
ATOM     24  C   UNL     1      32.053 -11.693 -20.595  0.00  0.00    +0.106 C 
ATOM     25  C   UNL     1      31.929 -10.669 -21.518  0.00  0.00    +0.018 C 
ATOM     26  C   UNL     1      32.033 -11.446 -19.233  0.00  0.00    +0.018 C 
ATOM     27  C   UNL     1      31.782  -9.358 -21.066  0.00  0.00    +0.001 C 
ATOM     28  C   UNL     1      31.886 -10.134 -18.781  0.00  0.00    +0.001 C 
ATOM     29  C   UNL     1      31.760  -9.091 -19.697  0.00  0.00    +0.000 C 
ENDBRANCH  21  24
ENDBRANCH  20  21
ENDBRANCH  19  20
ENDBRANCH   7  19
TORSDOF 6
ENDMDL
MODEL 5
REMARK VINA RESULT:     -10.7      4.246     10.077
REMARK  Name = 77993
REMARK  6 active torsions:
REMARK  status: ('A' for Active; 'I' for Inactive)
REMARK    1  A    between atoms: C_2  and  C_11
REMARK    2  A    between atoms: C_7  and  C_19
REMARK    3  A    between atoms: C_11  and  C_13
REMARK    4  A    between atoms: C_19  and  C_20
REMARK    5  A    between atoms: C_20  and  S_21
REMARK    6  A    between atoms: S_21  and  C_24
REMARK                            x       y       z     vdW  Elec       q    Type
REMARK                         _______ _______ _______ _____ _____    ______ ____
ROOT
ATOM      1  N   UNL     1      34.566 -17.187 -24.739  0.00  0.00    -0.312 N 
ATOM      2  C   UNL     1      34.631 -15.991 -22.894  0.00  0.00    -0.008 C 
ATOM      3  C   UNL     1      34.762 -17.346 -22.522  0.00  0.00    +0.010 C 
ATOM      4  C   UNL     1      34.512 -15.909 -24.249  0.00  0.00    +0.058 C 
ATOM      5  C   UNL     1      34.718 -18.085 -23.707  0.00  0.00    +0.048 C 
ATOM      6  C   UNL     1      34.914 -18.032 -21.301  0.00  0.00    -0.003 C 
ATOM      7  C   UNL     1      35.016 -19.427 -21.309  0.00  0.00    -0.020 C 
ATOM      8  C   UNL     1      34.819 -19.480 -23.730  0.00  0.00    +0.014 C 
ATOM      9  C   UNL     1      34.969 -20.139 -22.507  0.00  0.00    -0.003 C 
ATOM     10  H   UNL     1      34.505 -17.429 -25.691  0.00  0.00    +0.152 HD
ENDROOT
BRANCH   2  11
ATOM     11  C   UNL     1      34.622 -14.822 -21.957  0.00  0.00    +0.007 C 
BRANCH  11  13
ATOM     12  N   UNL     1      33.337 -12.707 -22.321  0.00  0.00    +0.387 N 
ATOM     13  C   UNL     1      33.272 -14.119 -21.917  0.00  0.00    -0.054 C 
ATOM     14  C   UNL     1      32.718 -14.034 -20.492  0.00  0.00    -0.023 C 
ATOM     15  C   UNL     1      31.943 -12.723 -20.439  0.00  0.00    -0.025 C 
ATOM     16  C   UNL     1      32.092 -12.115 -21.824  0.00  0.00    -0.077 C 
ATOM     17  C   UNL     1      33.477 -12.526 -23.761  0.00  0.00    -0.101 C 
ATOM     18  H   UNL     1      34.166 -12.259 -21.932  0.00  0.00    -0.080 HD
ENDBRANCH  11  13
ENDBRANCH   2  11
BRANCH   7  19
ATOM     19  C   UNL     1      35.176 -20.161 -20.018  0.00  0.00    +0.052 C 
BRANCH  19  20
ATOM     20  C   UNL     1      35.206 -21.684 -20.167  0.00  0.00    +0.161 C 
BRANCH  20  21
ATOM     21  S   UNL     1      34.141 -22.497 -19.017  0.00  0.00    +0.009 S 
ATOM     22  O   UNL     1      33.913 -23.857 -19.473  0.00  0.00    -0.169 OA
ATOM     23  O   UNL     1      33.018 -21.615 -18.752  0.00  0.00    -0.169 OA
BRANCH  21  24
ATOM     24  C   UNL     1      35.108 -22.603 -17.541  0.00  0.00    +0.106 C 
ATOM     25  C   UNL     1      36.400 -22.106 -17.541  0.00  0.00    +0.018 C 
ATOM     26  C   UNL     1      34.555 -23.182 -16.411  0.00  0.00    +0.018 C 
ATOM     27  C   UNL     1      37.162 -22.189 -16.376  0.00  0.00    +0.001 C 
ATOM     28  C   UNL     1      35.318 -23.265 -15.246  0.00  0.00    +0.001 C 
ATOM     29  C   UNL     1      36.621 -22.769 -15.228  0.00  0.00    +0.000 C 
ENDBRANCH  21  24
ENDBRANCH  20  21
ENDBRANCH  19  20
ENDBRANCH   7  19
TORSDOF 6
ENDMDL
MODEL 6
REMARK VINA RESULT:     -10.6      5.289      8.929
REMARK  Name = 77993
REMARK  6 active torsions:
REMARK  status: ('A' for Active; 'I' for Inactive)
REMARK    1  A    between atoms: C_2  and  C_11
REMARK    2  A    between atoms: C_7  and  C_19
REMARK    3  A    between atoms: C_11  and  C_13
REMARK    4  A    between atoms: C_19  and  C_20
REMARK    5  A    between atoms: C_20  and  S_21
REMARK    6  A    between atoms: S_21  and  C_24
REMARK                            x       y       z     vdW  Elec       q    Type
REMARK                         _______ _______ _______ _____ _____    ______ ____
ROOT
ATOM      1  N   UNL     1      34.254 -17.681 -24.748  0.00  0.00    -0.312 N 
ATOM      2  C   UNL     1      34.938 -17.465 -22.668  0.00  0.00    -0.008 C 
ATOM      3  C   UNL     1      34.531 -16.188 -23.112  0.00  0.00    +0.010 C 
ATOM      4  C   UNL     1      34.763 -18.365 -23.676  0.00  0.00    +0.058 C 
ATOM      5  C   UNL     1      34.102 -16.349 -24.432  0.00  0.00    +0.048 C 
ATOM      6  C   UNL     1      34.480 -14.905 -22.535  0.00  0.00    -0.003 C 
ATOM      7  C   UNL     1      34.003 -13.832 -23.296  0.00  0.00    -0.020 C 
ATOM      8  C   UNL     1      33.623 -15.287 -25.205  0.00  0.00    +0.014 C 
ATOM      9  C   UNL     1      33.582 -14.022 -24.611  0.00  0.00    -0.003 C 
ATOM     10  H   UNL     1      34.029 -18.082 -25.618  0.00  0.00    +0.152 HD
ENDROOT
BRANCH   2  11
ATOM     11  C   UNL     1      35.476 -17.789 -21.309  0.00  0.00    +0.007 C 
BRANCH  11  13
ATOM     12  N   UNL     1      34.849 -19.940 -20.196  0.00  0.00    +0.387 N 
ATOM     13  C   UNL     1      35.762 -19.275 -21.136  0.00  0.00    -0.054 C 
ATOM     14  C   UNL     1      37.133 -19.519 -20.499  0.00  0.00    -0.023 C 
ATOM     15  C   UNL     1      36.968 -20.780 -19.658  0.00  0.00    -0.025 C 
ATOM     16  C   UNL     1      35.517 -21.195 -19.843  0.00  0.00    -0.077 C 
ATOM     17  C   UNL     1      33.522 -20.179 -20.753  0.00  0.00    -0.101 C 
ATOM     18  H   UNL     1      34.673 -19.348 -19.384  0.00  0.00    -0.080 HD
ENDBRANCH  11  13
ENDBRANCH   2  11
BRANCH   7  19
ATOM     19  C   UNL     1      33.946 -12.468 -22.691  0.00  0.00    +0.052 C 
BRANCH  19  20
ATOM     20  C   UNL     1      32.694 -11.671 -23.065  0.00  0.00    +0.161 C 
BRANCH  20  21
ATOM     21  S   UNL     1      31.724 -11.234 -21.656  0.00  0.00    +0.009 S 
ATOM     22  O   UNL     1      32.130 -12.064 -20.534  0.00  0.00    -0.169 OA
ATOM     23  O   UNL     1      30.332 -11.193 -22.070  0.00  0.00    -0.169 OA
BRANCH  21  24
ATOM     24  C   UNL     1      32.230  -9.582 -21.285  0.00  0.00    +0.106 C 
ATOM     25  C   UNL     1      31.997  -9.070 -20.020  0.00  0.00    +0.018 C 
ATOM     26  C   UNL     1      32.852  -8.829 -22.268  0.00  0.00    +0.018 C 
ATOM     27  C   UNL     1      32.397  -7.766 -19.728  0.00  0.00    +0.001 C 
ATOM     28  C   UNL     1      33.251  -7.524 -21.975  0.00  0.00    +0.001 C 
ATOM     29  C   UNL     1      33.024  -6.994 -20.706  0.00  0.00    +0.000 C 
ENDBRANCH  21  24
ENDBRANCH  20  21
ENDBRANCH  19  20
ENDBRANCH   7  19
TORSDOF 6
ENDMDL
MODEL 7
REMARK VINA RESULT:     -10.4      6.942     12.961
REMARK  Name = 77993
REMARK  6 active torsions:
REMARK  status: ('A' for Active; 'I' for Inactive)
REMARK    1  A    between atoms: C_2  and  C_11
REMARK    2  A    between atoms: C_7  and  C_19
REMARK    3  A    between atoms: C_11  and  C_13
REMARK    4  A    between atoms: C_19  and  C_20
REMARK    5  A    between atoms: C_20  and  S_21
REMARK    6  A    between atoms: S_21  and  C_24
REMARK                            x       y       z     vdW  Elec       q    Type
REMARK                         _______ _______ _______ _____ _____    ______ ____
ROOT
ATOM      1  N   UNL     1      31.635 -10.620 -19.599  0.00  0.00    -0.312 N 
ATOM      2  C   UNL     1      31.710  -9.688 -21.590  0.00  0.00    -0.008 C 
ATOM      3  C   UNL     1      32.044 -11.050 -21.750  0.00  0.00    +0.010 C 
ATOM      4  C   UNL     1      31.463  -9.441 -20.273  0.00  0.00    +0.058 C 
ATOM      5  C   UNL     1      31.990 -11.621 -20.476  0.00  0.00    +0.048 C 
ATOM      6  C   UNL     1      32.390 -11.867 -22.844  0.00  0.00    -0.003 C 
ATOM      7  C   UNL     1      32.667 -13.220 -22.625  0.00  0.00    -0.020 C 
ATOM      8  C   UNL     1      32.265 -12.972 -20.242  0.00  0.00    +0.014 C 
ATOM      9  C   UNL     1      32.606 -13.763 -21.343  0.00  0.00    -0.003 C 
ATOM     10  H   UNL     1      31.521 -10.737 -18.628  0.00  0.00    +0.152 HD
ENDROOT
BRANCH   2  11
ATOM     11  C   UNL     1      31.636  -8.670 -22.686  0.00  0.00    +0.007 C 
BRANCH  11  13
ATOM     12  N   UNL     1      32.694  -6.621 -23.656  0.00  0.00    +0.387 N 
ATOM     13  C   UNL     1      32.753  -7.638 -22.597  0.00  0.00    -0.054 C 
ATOM     14  C   UNL     1      34.130  -8.271 -22.818  0.00  0.00    -0.023 C 
ATOM     15  C   UNL     1      34.959  -7.199 -23.515  0.00  0.00    -0.025 C 
ATOM     16  C   UNL     1      34.025  -6.009 -23.667  0.00  0.00    -0.077 C 
ATOM     17  C   UNL     1      31.650  -5.625 -23.441  0.00  0.00    -0.101 C 
ATOM     18  H   UNL     1      32.451  -7.045 -24.551  0.00  0.00    -0.080 HD
ENDBRANCH  11  13
ENDBRANCH   2  11
BRANCH   7  19
ATOM     19  C   UNL     1      33.035 -14.093 -23.780  0.00  0.00    +0.052 C 
BRANCH  19  20
ATOM     20  C   UNL     1      34.336 -14.875 -23.582  0.00  0.00    +0.161 C 
BRANCH  20  21
ATOM     21  S   UNL     1      34.357 -16.393 -24.482  0.00  0.00    +0.009 S 
ATOM     22  O   UNL     1      35.475 -16.372 -25.409  0.00  0.00    -0.169 OA
ATOM     23  O   UNL     1      33.009 -16.641 -24.965  0.00  0.00    -0.169 OA
BRANCH  21  24
ATOM     24  C   UNL     1      34.726 -17.612 -23.255  0.00  0.00    +0.106 C 
ATOM     25  C   UNL     1      35.286 -17.214 -22.053  0.00  0.00    +0.018 C 
ATOM     26  C   UNL     1      34.447 -18.942 -23.519  0.00  0.00    +0.018 C 
ATOM     27  C   UNL     1      35.576 -18.175 -21.086  0.00  0.00    +0.001 C 
ATOM     28  C   UNL     1      34.738 -19.904 -22.550  0.00  0.00    +0.001 C 
ATOM     29  C   UNL     1      35.302 -19.520 -21.335  0.00  0.00    +0.000 C 
ENDBRANCH  21  24
ENDBRANCH  20  21
ENDBRANCH  19  20
ENDBRANCH   7  19
TORSDOF 6
ENDMDL
MODEL 8
REMARK VINA RESULT:     -10.4      5.194     11.315
REMARK  Name = 77993
REMARK  6 active torsions:
REMARK  status: ('A' for Active; 'I' for Inactive)
REMARK    1  A    between atoms: C_2  and  C_11
REMARK    2  A    between atoms: C_7  and  C_19
REMARK    3  A    between atoms: C_11  and  C_13
REMARK    4  A    between atoms: C_19  and  C_20
REMARK    5  A    between atoms: C_20  and  S_21
REMARK    6  A    between atoms: S_21  and  C_24
REMARK                            x       y       z     vdW  Elec       q    Type
REMARK                         _______ _______ _______ _____ _____    ______ ____
ROOT
ATOM      1  N   UNL     1      33.136 -14.289 -25.878  0.00  0.00    -0.312 N 
ATOM      2  C   UNL     1      33.605 -12.980 -24.173  0.00  0.00    -0.008 C 
ATOM      3  C   UNL     1      34.000 -14.287 -23.820  0.00  0.00    +0.010 C 
ATOM      4  C   UNL     1      33.080 -12.996 -25.431  0.00  0.00    +0.058 C 
ATOM      5  C   UNL     1      33.694 -15.100 -24.914  0.00  0.00    +0.048 C 
ATOM      6  C   UNL     1      34.589 -14.875 -22.683  0.00  0.00    -0.003 C 
ATOM      7  C   UNL     1      34.848 -16.250 -22.682  0.00  0.00    -0.020 C 
ATOM      8  C   UNL     1      33.947 -16.475 -24.927  0.00  0.00    +0.014 C 
ATOM      9  C   UNL     1      34.531 -17.036 -23.788  0.00  0.00    -0.003 C 
ATOM     10  H   UNL     1      32.824 -14.596 -26.759  0.00  0.00    +0.152 HD
ENDROOT
BRANCH   2  11
ATOM     11  C   UNL     1      33.738 -11.761 -23.312  0.00  0.00    +0.007 C 
BRANCH  11  13
ATOM     12  N   UNL     1      32.433  -9.976 -22.141  0.00  0.00    +0.387 N 
ATOM     13  C   UNL     1      32.410 -11.336 -22.698  0.00  0.00    -0.054 C 
ATOM     14  C   UNL     1      32.049 -12.190 -21.479  0.00  0.00    -0.023 C 
ATOM     15  C   UNL     1      31.299 -11.254 -20.539  0.00  0.00    -0.025 C 
ATOM     16  C   UNL     1      31.270  -9.912 -21.253  0.00  0.00    -0.077 C 
ATOM     17  C   UNL     1      32.385  -8.935 -23.161  0.00  0.00    -0.101 C 
ATOM     18  H   UNL     1      33.310  -9.802 -21.651  0.00  0.00    -0.080 HD
ENDBRANCH  11  13
ENDBRANCH   2  11
BRANCH   7  19
ATOM     19  C   UNL     1      35.470 -16.880 -21.479  0.00  0.00    +0.052 C 
BRANCH  19  20
ATOM     20  C   UNL     1      34.725 -18.115 -20.967  0.00  0.00    +0.161 C 
BRANCH  20  21
ATOM     21  S   UNL     1      35.609 -19.613 -21.270  0.00  0.00    +0.009 S 
ATOM     22  O   UNL     1      37.001 -19.415 -20.905  0.00  0.00    -0.169 OA
ATOM     23  O   UNL     1      35.260 -20.073 -22.603  0.00  0.00    -0.169 OA
BRANCH  21  24
ATOM     24  C   UNL     1      34.927 -20.754 -20.105  0.00  0.00    +0.106 C 
ATOM     25  C   UNL     1      35.780 -21.506 -19.315  0.00  0.00    +0.018 C 
ATOM     26  C   UNL     1      33.551 -20.875 -20.003  0.00  0.00    +0.018 C 
ATOM     27  C   UNL     1      35.241 -22.407 -18.396  0.00  0.00    +0.001 C 
ATOM     28  C   UNL     1      33.013 -21.776 -19.084  0.00  0.00    +0.001 C 
ATOM     29  C   UNL     1      33.857 -22.541 -18.281  0.00  0.00    +0.000 C 
ENDBRANCH  21  24
ENDBRANCH  20  21
ENDBRANCH  19  20
ENDBRANCH   7  19
TORSDOF 6
ENDMDL
MODEL 9
REMARK VINA RESULT:     -10.4      4.490      9.777
REMARK  Name = 77993
REMARK  6 active torsions:
REMARK  status: ('A' for Active; 'I' for Inactive)
REMARK    1  A    between atoms: C_2  and  C_11
REMARK    2  A    between atoms: C_7  and  C_19
REMARK    3  A    between atoms: C_11  and  C_13
REMARK    4  A    between atoms: C_19  and  C_20
REMARK    5  A    between atoms: C_20  and  S_21
REMARK    6  A    between atoms: S_21  and  C_24
REMARK                            x       y       z     vdW  Elec       q    Type
REMARK                         _______ _______ _______ _____ _____    ______ ____
ROOT
ATOM      1  N   UNL     1      37.474 -19.451 -20.342  0.00  0.00    -0.312 N 
ATOM      2  C   UNL     1      35.568 -19.187 -21.408  0.00  0.00    -0.008 C 
ATOM      3  C   UNL     1      35.383 -20.221 -20.466  0.00  0.00    +0.010 C 
ATOM      4  C   UNL     1      36.848 -18.727 -21.321  0.00  0.00    +0.058 C 
ATOM      5  C   UNL     1      36.604 -20.371 -19.802  0.00  0.00    +0.048 C 
ATOM      6  C   UNL     1      34.306 -21.053 -20.100  0.00  0.00    -0.003 C 
ATOM      7  C   UNL     1      34.489 -22.000 -19.088  0.00  0.00    -0.020 C 
ATOM      8  C   UNL     1      36.800 -21.314 -18.789  0.00  0.00    +0.014 C 
ATOM      9  C   UNL     1      35.718 -22.129 -18.443  0.00  0.00    -0.003 C 
ATOM     10  H   UNL     1      38.411 -19.332 -20.064  0.00  0.00    +0.152 HD
ENDROOT
BRANCH   2  11
ATOM     11  C   UNL     1      34.530 -18.670 -22.356  0.00  0.00    +0.007 C 
BRANCH  11  13
ATOM     12  N   UNL     1      34.270 -16.182 -22.373  0.00  0.00    +0.387 N 
ATOM     13  C   UNL     1      34.929 -17.343 -22.988  0.00  0.00    -0.054 C 
ATOM     14  C   UNL     1      34.477 -17.249 -24.447  0.00  0.00    -0.023 C 
ATOM     15  C   UNL     1      34.156 -15.777 -24.676  0.00  0.00    -0.025 C 
ATOM     16  C   UNL     1      34.431 -15.097 -23.345  0.00  0.00    -0.077 C 
ATOM     17  C   UNL     1      34.830 -15.823 -21.075  0.00  0.00    -0.101 C 
ATOM     18  H   UNL     1      33.291 -16.387 -22.173  0.00  0.00    -0.080 HD
ENDBRANCH  11  13
ENDBRANCH   2  11
BRANCH   7  19
ATOM     19  C   UNL     1      33.352 -22.886 -18.696  0.00  0.00    +0.052 C 
BRANCH  19  20
ATOM     20  C   UNL     1      32.757 -22.566 -17.322  0.00  0.00    +0.161 C 
BRANCH  20  21
ATOM     21  S   UNL     1      33.461 -23.547 -16.034  0.00  0.00    +0.009 S 
ATOM     22  O   UNL     1      34.199 -22.677 -15.135  0.00  0.00    -0.169 OA
ATOM     23  O   UNL     1      34.116 -24.686 -16.652  0.00  0.00    -0.169 OA
BRANCH  21  24
ATOM     24  C   UNL     1      32.059 -24.146 -15.139  0.00  0.00    +0.106 C 
ATOM     25  C   UNL     1      32.257 -24.844 -13.960  0.00  0.00    +0.018 C 
ATOM     26  C   UNL     1      30.788 -23.905 -15.634  0.00  0.00    +0.018 C 
ATOM     27  C   UNL     1      31.151 -25.316 -13.254  0.00  0.00    +0.001 C 
ATOM     28  C   UNL     1      29.682 -24.378 -14.927  0.00  0.00    +0.001 C 
ATOM     29  C   UNL     1      29.863 -25.083 -13.738  0.00  0.00    +0.000 C 
ENDBRANCH  21  24
ENDBRANCH  20  21
ENDBRANCH  19  20
ENDBRANCH   7  19
TORSDOF 6
ENDMDL
