MODEL 1
REMARK VINA RESULT:     -11.8      0.000      0.000
REMARK  Name = 158376
REMARK  11 active torsions:
REMARK  status: ('A' for Active; 'I' for Inactive)
REMARK    1  A    between atoms: C_1  and  N_22
REMARK    2  A    between atoms: C_2  and  C_9
REMARK    3  A    between atoms: N_8  and  CA_11
REMARK    4  A    between atoms: CA_11  and  C_13
REMARK    5  A    between atoms: CA_11  and  CB_16
REMARK    6  A    between atoms: C_13  and  O_14
REMARK    7  A    between atoms: CB_16  and  CG_17
REMARK    8  A    between atoms: CG_17  and  CD_19
REMARK    9  A    between atoms: CD_19  and  OE1_20
REMARK   10  A    between atoms: N_22  and  C_24
REMARK   11  A    between atoms: C_24  and  C_29
REMARK                            x       y       z     vdW  Elec       q    Type
REMARK                         _______ _______ _______ _____ _____    ______ ____
ROOT
ATOM      1  C   UNL     1      35.534 -19.930 -20.494  0.00  0.00    +0.048 C 
ATOM      2  C   UNL     1      34.338 -22.011 -19.072  0.00  0.00    +0.053 C 
ATOM      3  C   UNL     1      34.154 -20.121 -20.567  0.00  0.00    +0.015 C 
ATOM      4  C   UNL     1      36.316 -20.779 -19.711  0.00  0.00    +0.015 C 
ATOM      5  C   UNL     1      33.557 -21.161 -19.855  0.00  0.00    +0.006 C 
ATOM      6  C   UNL     1      35.717 -21.820 -19.000  0.00  0.00    +0.006 C 
ENDROOT
BRANCH   2   9
ATOM      7  O   UNL     1      33.739 -24.258 -18.772  0.00  0.00    -0.270 OA
ATOM      8  N   UNL     1      33.119 -22.771 -17.103  0.00  0.00    -0.293 N 
ATOM      9  C   ACE A   0      33.701 -23.119 -18.314  0.00  0.00    +0.246 C 
ATOM     10  H   UNL     1      33.140 -21.828 -16.821  0.00  0.00    +0.150 HD
BRANCH   8  11
ATOM     11  CA  UNL     1      32.484 -23.736 -16.242  0.00  0.00    +0.172 C 
BRANCH  11  13
ATOM     12  OXT UNL     1      30.436 -22.584 -16.881  0.00  0.00    -0.248 OA
ATOM     13  C   UNL     1      31.018 -23.367 -16.142  0.00  0.00    +0.332 C 
BRANCH  13  14
ATOM     14  O   UNL     1      30.392 -24.044 -15.143  0.00  0.00    -0.479 OA
ATOM     15  H   UNL     1      30.650 -24.920 -14.938  0.00  0.00    +0.295 HD
ENDBRANCH  13  14
ENDBRANCH  11  13
BRANCH  11  16
ATOM     16  CB  UNL     1      33.184 -23.870 -14.884  0.00  0.00    +0.043 C 
BRANCH  16  17
ATOM     17  CG  UNL     1      34.502 -24.654 -14.886  0.00  0.00    +0.112 C 
BRANCH  17  19
ATOM     18  OE2 UNL     1      35.714 -22.593 -15.357  0.00  0.00    -0.250 OA
ATOM     19  CD  UNL     1      35.714 -23.807 -15.205  0.00  0.00    +0.314 C 
BRANCH  19  20
ATOM     20  OE1 UNL     1      36.832 -24.568 -15.349  0.00  0.00    -0.480 OA
ATOM     21  HE1 UNL     1      37.424 -24.669 -14.631  0.00  0.00    +0.295 HD
ENDBRANCH  19  20
ENDBRANCH  17  19
ENDBRANCH  16  17
ENDBRANCH  11  16
ENDBRANCH   8  11
ENDBRANCH   2   9
BRANCH   1  22
ATOM     22  N   UNL     1      36.139 -18.878 -21.212  0.00  0.00    -0.302 N 
ATOM     23  C   UNL     1      37.482 -19.023 -21.736  0.00  0.00    +0.112 C 
BRANCH  22  24
ATOM     24  C   UNL     1      35.419 -17.642 -21.449  0.00  0.00    +0.118 C 
BRANCH  24  29
ATOM     25  O   UNL     1      34.226 -17.931 -24.936  0.00  0.00    -0.427 OA
ATOM     26  N   UNL     1      33.543 -15.759 -25.657  0.00  0.00    -0.294 NA
ATOM     27  N   UNL     1      33.813 -14.030 -23.963  0.00  0.00    -0.317 NA
ATOM     28  N   UNL     1      32.955 -13.535 -26.084  0.00  0.00    -0.283 N 
ATOM     29  C   UNL     1      34.886 -17.458 -22.837  0.00  0.00    +0.031 C 
ATOM     30  C   UNL     1      34.436 -16.258 -23.439  0.00  0.00    +0.180 C 
ATOM     31  C   UNL     1      34.039 -16.596 -24.729  0.00  0.00    +0.281 C 
ATOM     32  C   UNL     1      34.739 -18.442 -23.787  0.00  0.00    +0.176 C 
ATOM     33  C   UNL     1      34.306 -14.920 -23.071  0.00  0.00    +0.181 C 
ATOM     34  C   UNL     1      33.466 -14.499 -25.183  0.00  0.00    +0.200 C 
ATOM     35  H   UNL     1      32.683 -13.806 -26.991  0.00  0.00    +0.156 HD
ATOM     36  H   UNL     1      32.872 -12.596 -25.804  0.00  0.00    +0.156 HD
ATOM     37  N   UNL     1      34.681 -14.481 -21.789  0.00  0.00    -0.335 N 
ATOM     38  H   UNL     1      34.583 -13.533 -21.545  0.00  0.00    +0.144 HD
ATOM     39  H   UNL     1      35.042 -15.123 -21.134  0.00  0.00    +0.144 HD
ENDBRANCH  24  29
ENDBRANCH  22  24
ENDBRANCH   1  22
TORSDOF 11
ENDMDL
MODEL 2
REMARK VINA RESULT:     -11.3      1.786      2.868
REMARK  Name = 158376
REMARK  11 active torsions:
REMARK  status: ('A' for Active; 'I' for Inactive)
REMARK    1  A    between atoms: C_1  and  N_22
REMARK    2  A    between atoms: C_2  and  C_9
REMARK    3  A    between atoms: N_8  and  CA_11
REMARK    4  A    between atoms: CA_11  and  C_13
REMARK    5  A    between atoms: CA_11  and  CB_16
REMARK    6  A    between atoms: C_13  and  O_14
REMARK    7  A    between atoms: CB_16  and  CG_17
REMARK    8  A    between atoms: CG_17  and  CD_19
REMARK    9  A    between atoms: CD_19  and  OE1_20
REMARK   10  A    between atoms: N_22  and  C_24
REMARK   11  A    between atoms: C_24  and  C_29
REMARK                            x       y       z     vdW  Elec       q    Type
REMARK                         _______ _______ _______ _____ _____    ______ ____
ROOT
ATOM      1  C   UNL     1      35.036 -20.838 -19.922  0.00  0.00    +0.048 C 
ATOM      2  C   UNL     1      33.639 -22.429 -18.106  0.00  0.00    +0.053 C 
ATOM      3  C   UNL     1      35.733 -21.610 -18.992  0.00  0.00    +0.015 C 
ATOM      4  C   UNL     1      33.642 -20.862 -19.945  0.00  0.00    +0.015 C 
ATOM      5  C   UNL     1      35.034 -22.406 -18.084  0.00  0.00    +0.006 C 
ATOM      6  C   UNL     1      32.944 -21.657 -19.036  0.00  0.00    +0.006 C 
ENDROOT
BRANCH   2   9
ATOM      7  O   UNL     1      33.407 -24.317 -16.735  0.00  0.00    -0.270 OA
ATOM      8  N   UNL     1      31.654 -22.798 -16.740  0.00  0.00    -0.293 N 
ATOM      9  C   ACE A   0      32.895 -23.277 -17.139  0.00  0.00    +0.246 C 
ATOM     10  H   UNL     1      31.328 -21.952 -17.122  0.00  0.00    +0.150 HD
BRANCH   8  11
ATOM     11  CA  UNL     1      30.824 -23.494 -15.790  0.00  0.00    +0.172 C 
BRANCH  11  13
ATOM     12  OXT UNL     1      28.887 -22.362 -16.739  0.00  0.00    -0.248 OA
ATOM     13  C   UNL     1      29.388 -23.371 -16.258  0.00  0.00    +0.332 C 
BRANCH  13  14
ATOM     14  O   UNL     1      28.708 -24.539 -16.120  0.00  0.00    -0.479 OA
ATOM     15  H   UNL     1      28.981 -25.299 -16.595  0.00  0.00    +0.295 HD
ENDBRANCH  13  14
ENDBRANCH  11  13
BRANCH  11  16
ATOM     16  CB  UNL     1      31.048 -23.019 -14.349  0.00  0.00    +0.043 C 
BRANCH  16  17
ATOM     17  CG  UNL     1      30.870 -24.084 -13.260  0.00  0.00    +0.112 C 
BRANCH  17  19
ATOM     18  OE2 UNL     1      30.251 -26.220 -14.256  0.00  0.00    -0.250 OA
ATOM     19  CD  UNL     1      31.097 -25.498 -13.747  0.00  0.00    +0.314 C 
BRANCH  19  20
ATOM     20  OE1 UNL     1      32.373 -25.908 -13.515  0.00  0.00    -0.480 OA
ATOM     21  HE1 UNL     1      33.032 -25.282 -13.289  0.00  0.00    +0.295 HD
ENDBRANCH  19  20
ENDBRANCH  17  19
ENDBRANCH  16  17
ENDBRANCH  11  16
ENDBRANCH   8  11
ENDBRANCH   2   9
BRANCH   1  22
ATOM     22  N   UNL     1      35.742 -20.035 -20.841  0.00  0.00    -0.302 N 
ATOM     23  C   UNL     1      37.131 -19.695 -20.604  0.00  0.00    +0.112 C 
BRANCH  22  24
ATOM     24  C   UNL     1      35.093 -19.551 -22.044  0.00  0.00    +0.118 C 
BRANCH  24  29
ATOM     25  O   UNL     1      35.139 -15.874 -21.663  0.00  0.00    -0.427 OA
ATOM     26  N   UNL     1      34.239 -14.922 -23.659  0.00  0.00    -0.294 NA
ATOM     27  N   UNL     1      33.568 -16.572 -25.321  0.00  0.00    -0.317 NA
ATOM     28  N   UNL     1      33.324 -14.277 -25.714  0.00  0.00    -0.283 N 
ATOM     29  C   UNL     1      34.989 -18.062 -22.171  0.00  0.00    +0.031 C 
ATOM     30  C   UNL     1      34.487 -17.320 -23.266  0.00  0.00    +0.180 C 
ATOM     31  C   UNL     1      34.599 -15.979 -22.912  0.00  0.00    +0.281 C 
ATOM     32  C   UNL     1      35.370 -17.139 -21.225  0.00  0.00    +0.176 C 
ATOM     33  C   UNL     1      33.949 -17.594 -24.522  0.00  0.00    +0.181 C 
ATOM     34  C   UNL     1      33.735 -15.316 -24.847  0.00  0.00    +0.200 C 
ATOM     35  H   UNL     1      33.416 -13.337 -25.433  0.00  0.00    +0.156 HD
ATOM     36  H   UNL     1      32.946 -14.493 -26.596  0.00  0.00    +0.156 HD
ATOM     37  N   UNL     1      33.795 -18.919 -24.970  0.00  0.00    -0.335 N 
ATOM     38  H   UNL     1      33.414 -19.096 -25.860  0.00  0.00    +0.144 HD
ATOM     39  H   UNL     1      34.069 -19.669 -24.395  0.00  0.00    +0.144 HD
ENDBRANCH  24  29
ENDBRANCH  22  24
ENDBRANCH   1  22
TORSDOF 11
ENDMDL
MODEL 3
REMARK VINA RESULT:     -11.3      3.787     10.964
REMARK  Name = 158376
REMARK  11 active torsions:
REMARK  status: ('A' for Active; 'I' for Inactive)
REMARK    1  A    between atoms: C_1  and  N_22
REMARK    2  A    between atoms: C_2  and  C_9
REMARK    3  A    between atoms: N_8  and  CA_11
REMARK    4  A    between atoms: CA_11  and  C_13
REMARK    5  A    between atoms: CA_11  and  CB_16
REMARK    6  A    between atoms: C_13  and  O_14
REMARK    7  A    between atoms: CB_16  and  CG_17
REMARK    8  A    between atoms: CG_17  and  CD_19
REMARK    9  A    between atoms: CD_19  and  OE1_20
REMARK   10  A    between atoms: N_22  and  C_24
REMARK   11  A    between atoms: C_24  and  C_29
REMARK                            x       y       z     vdW  Elec       q    Type
REMARK                         _______ _______ _______ _____ _____    ______ ____
ROOT
ATOM      1  C   UNL     1      34.187 -23.346 -16.023  0.00  0.00    +0.048 C 
ATOM      2  C   UNL     1      35.221 -22.204 -18.349  0.00  0.00    +0.053 C 
ATOM      3  C   UNL     1      35.474 -22.807 -16.022  0.00  0.00    +0.015 C 
ATOM      4  C   UNL     1      33.418 -23.314 -17.185  0.00  0.00    +0.015 C 
ATOM      5  C   UNL     1      35.990 -22.236 -17.185  0.00  0.00    +0.006 C 
ATOM      6  C   UNL     1      33.935 -22.743 -18.349  0.00  0.00    +0.006 C 
ENDROOT
BRANCH   2   9
ATOM      7  O   UNL     1      36.819 -22.032 -20.056  0.00  0.00    -0.270 OA
ATOM      8  N   UNL     1      35.022 -20.568 -20.144  0.00  0.00    -0.293 N 
ATOM      9  C   ACE A   0      35.771 -21.595 -19.588  0.00  0.00    +0.246 C 
ATOM     10  H   UNL     1      34.193 -20.287 -19.693  0.00  0.00    +0.150 HD
BRANCH   8  11
ATOM     11  CA  UNL     1      35.411 -19.894 -21.358  0.00  0.00    +0.172 C 
BRANCH  11  13
ATOM     12  OXT UNL     1      37.562 -18.862 -20.870  0.00  0.00    -0.248 OA
ATOM     13  C   UNL     1      36.346 -18.765 -20.976  0.00  0.00    +0.332 C 
BRANCH  13  14
ATOM     14  O   UNL     1      35.680 -17.594 -20.797  0.00  0.00    -0.479 OA
ATOM     15  H   UNL     1      35.087 -17.288 -21.453  0.00  0.00    +0.295 HD
ENDBRANCH  13  14
ENDBRANCH  11  13
BRANCH  11  16
ATOM     16  CB  UNL     1      34.209 -19.446 -22.198  0.00  0.00    +0.043 C 
BRANCH  16  17
ATOM     17  CG  UNL     1      34.449 -19.353 -23.710  0.00  0.00    +0.112 C 
BRANCH  17  19
ATOM     18  OE2 UNL     1      33.496 -17.600 -25.109  0.00  0.00    -0.250 OA
ATOM     19  CD  UNL     1      34.308 -17.952 -24.264  0.00  0.00    +0.314 C 
BRANCH  19  20
ATOM     20  OE1 UNL     1      35.234 -17.109 -23.735  0.00  0.00    -0.480 OA
ATOM     21  HE1 UNL     1      35.128 -16.182 -23.824  0.00  0.00    +0.295 HD
ENDBRANCH  19  20
ENDBRANCH  17  19
ENDBRANCH  16  17
ENDBRANCH  11  16
ENDBRANCH   8  11
ENDBRANCH   2   9
BRANCH   1  22
ATOM     22  N   UNL     1      33.664 -23.923 -14.847  0.00  0.00    -0.302 N 
ATOM     23  C   UNL     1      32.436 -23.419 -14.266  0.00  0.00    +0.112 C 
BRANCH  22  24
ATOM     24  C   UNL     1      34.341 -25.037 -14.212  0.00  0.00    +0.118 C 
BRANCH  24  29
ATOM     25  O   UNL     1      37.323 -23.709 -12.477  0.00  0.00    -0.427 OA
ATOM     26  N   UNL     1      39.170 -25.123 -13.014  0.00  0.00    -0.294 NA
ATOM     27  N   UNL     1      38.598 -26.970 -14.495  0.00  0.00    -0.317 NA
ATOM     28  N   UNL     1      40.782 -26.671 -13.708  0.00  0.00    -0.283 N 
ATOM     29  C   UNL     1      35.692 -24.735 -13.642  0.00  0.00    +0.031 C 
ATOM     30  C   UNL     1      36.897 -25.451 -13.845  0.00  0.00    +0.180 C 
ATOM     31  C   UNL     1      37.873 -24.785 -13.109  0.00  0.00    +0.281 C 
ATOM     32  C   UNL     1      36.005 -23.687 -12.806  0.00  0.00    +0.176 C 
ATOM     33  C   UNL     1      37.304 -26.580 -14.552  0.00  0.00    +0.181 C 
ATOM     34  C   UNL     1      39.439 -26.228 -13.739  0.00  0.00    +0.200 C 
ATOM     35  H   UNL     1      41.450 -26.177 -13.178  0.00  0.00    +0.156 HD
ATOM     36  H   UNL     1      41.048 -27.470 -14.216  0.00  0.00    +0.156 HD
ATOM     37  N   UNL     1      36.390 -27.319 -15.325  0.00  0.00    -0.335 N 
ATOM     38  H   UNL     1      36.693 -28.115 -15.818  0.00  0.00    +0.144 HD
ATOM     39  H   UNL     1      35.447 -27.042 -15.372  0.00  0.00    +0.144 HD
ENDBRANCH  24  29
ENDBRANCH  22  24
ENDBRANCH   1  22
TORSDOF 11
ENDMDL
MODEL 4
REMARK VINA RESULT:     -11.2      1.694      2.438
REMARK  Name = 158376
REMARK  11 active torsions:
REMARK  status: ('A' for Active; 'I' for Inactive)
REMARK    1  A    between atoms: C_1  and  N_22
REMARK    2  A    between atoms: C_2  and  C_9
REMARK    3  A    between atoms: N_8  and  CA_11
REMARK    4  A    between atoms: CA_11  and  C_13
REMARK    5  A    between atoms: CA_11  and  CB_16
REMARK    6  A    between atoms: C_13  and  O_14
REMARK    7  A    between atoms: CB_16  and  CG_17
REMARK    8  A    between atoms: CG_17  and  CD_19
REMARK    9  A    between atoms: CD_19  and  OE1_20
REMARK   10  A    between atoms: N_22  and  C_24
REMARK   11  A    between atoms: C_24  and  C_29
REMARK                            x       y       z     vdW  Elec       q    Type
REMARK                         _______ _______ _______ _____ _____    ______ ____
ROOT
ATOM      1  C   UNL     1      34.445 -20.340 -20.890  0.00  0.00    +0.048 C 
ATOM      2  C   UNL     1      33.607 -21.991 -18.803  0.00  0.00    +0.053 C 
ATOM      3  C   UNL     1      33.096 -20.387 -20.538  0.00  0.00    +0.015 C 
ATOM      4  C   UNL     1      35.375 -21.116 -20.199  0.00  0.00    +0.015 C 
ATOM      5  C   UNL     1      32.677 -21.213 -19.494  0.00  0.00    +0.006 C 
ATOM      6  C   UNL     1      34.955 -21.942 -19.155  0.00  0.00    +0.006 C 
ENDROOT
BRANCH   2   9
ATOM      7  O   UNL     1      33.953 -23.672 -17.206  0.00  0.00    -0.270 OA
ATOM      8  N   UNL     1      31.852 -22.691 -17.264  0.00  0.00    -0.293 N 
ATOM      9  C   ACE A   0      33.160 -22.869 -17.692  0.00  0.00    +0.246 C 
ATOM     10  H   UNL     1      31.292 -22.021 -17.719  0.00  0.00    +0.150 HD
BRANCH   8  11
ATOM     11  CA  UNL     1      31.280 -23.450 -16.180  0.00  0.00    +0.172 C 
BRANCH  11  13
ATOM     12  OXT UNL     1      29.160 -22.315 -16.568  0.00  0.00    -0.248 OA
ATOM     13  C   UNL     1      29.773 -23.337 -16.286  0.00  0.00    +0.332 C 
BRANCH  13  14
ATOM     14  O   UNL     1      29.159 -24.529 -16.066  0.00  0.00    -0.479 OA
ATOM     15  H   UNL     1      28.232 -24.606 -16.180  0.00  0.00    +0.295 HD
ENDBRANCH  13  14
ENDBRANCH  11  13
BRANCH  11  16
ATOM     16  CB  UNL     1      31.837 -23.040 -14.812  0.00  0.00    +0.043 C 
BRANCH  16  17
ATOM     17  CG  UNL     1      30.996 -23.453 -13.598  0.00  0.00    +0.112 C 
BRANCH  17  19
ATOM     18  OE2 UNL     1      32.174 -25.430 -12.796  0.00  0.00    -0.250 OA
ATOM     19  CD  UNL     1      31.150 -24.910 -13.216  0.00  0.00    +0.314 C 
BRANCH  19  20
ATOM     20  OE1 UNL     1      30.004 -25.608 -13.435  0.00  0.00    -0.480 OA
ATOM     21  HE1 UNL     1      29.189 -25.154 -13.520  0.00  0.00    +0.295 HD
ENDBRANCH  19  20
ENDBRANCH  17  19
ENDBRANCH  16  17
ENDBRANCH  11  16
ENDBRANCH   8  11
ENDBRANCH   2   9
BRANCH   1  22
ATOM     22  N   UNL     1      34.870 -19.504 -21.944  0.00  0.00    -0.302 N 
ATOM     23  C   UNL     1      34.956 -20.016 -23.297  0.00  0.00    +0.112 C 
BRANCH  22  24
ATOM     24  C   UNL     1      35.211 -18.118 -21.690  0.00  0.00    +0.118 C 
BRANCH  24  29
ATOM     25  O   UNL     1      34.487 -16.332 -24.845  0.00  0.00    -0.427 OA
ATOM     26  N   UNL     1      33.918 -14.079 -24.295  0.00  0.00    -0.294 NA
ATOM     27  N   UNL     1      33.972 -13.606 -21.906  0.00  0.00    -0.317 NA
ATOM     28  N   UNL     1      33.406 -11.953 -23.464  0.00  0.00    -0.283 N 
ATOM     29  C   UNL     1      34.867 -17.155 -22.784  0.00  0.00    +0.031 C 
ATOM     30  C   UNL     1      34.508 -15.792 -22.655  0.00  0.00    +0.180 C 
ATOM     31  C   UNL     1      34.283 -15.326 -23.947  0.00  0.00    +0.281 C 
ATOM     32  C   UNL     1      34.840 -17.433 -24.131  0.00  0.00    +0.176 C 
ATOM     33  C   UNL     1      34.338 -14.876 -21.619  0.00  0.00    +0.181 C 
ATOM     34  C   UNL     1      33.787 -13.291 -23.209  0.00  0.00    +0.200 C 
ATOM     35  H   UNL     1      33.254 -11.654 -24.390  0.00  0.00    +0.156 HD
ATOM     36  H   UNL     1      33.292 -11.323 -22.717  0.00  0.00    +0.156 HD
ATOM     37  N   UNL     1      34.544 -15.252 -20.279  0.00  0.00    -0.335 N 
ATOM     38  H   UNL     1      34.420 -14.594 -19.559  0.00  0.00    +0.144 HD
ATOM     39  H   UNL     1      34.811 -16.175 -20.062  0.00  0.00    +0.144 HD
ENDBRANCH  24  29
ENDBRANCH  22  24
ENDBRANCH   1  22
TORSDOF 11
ENDMDL
MODEL 5
REMARK VINA RESULT:     -11.0      1.290      1.877
REMARK  Name = 158376
REMARK  11 active torsions:
REMARK  status: ('A' for Active; 'I' for Inactive)
REMARK    1  A    between atoms: C_1  and  N_22
REMARK    2  A    between atoms: C_2  and  C_9
REMARK    3  A    between atoms: N_8  and  CA_11
REMARK    4  A    between atoms: CA_11  and  C_13
REMARK    5  A    between atoms: CA_11  and  CB_16
REMARK    6  A    between atoms: C_13  and  O_14
REMARK    7  A    between atoms: CB_16  and  CG_17
REMARK    8  A    between atoms: CG_17  and  CD_19
REMARK    9  A    between atoms: CD_19  and  OE1_20
REMARK   10  A    between atoms: N_22  and  C_24
REMARK   11  A    between atoms: C_24  and  C_29
REMARK                            x       y       z     vdW  Elec       q    Type
REMARK                         _______ _______ _______ _____ _____    ______ ____
ROOT
ATOM      1  C   UNL     1      35.442 -20.045 -20.679  0.00  0.00    +0.048 C 
ATOM      2  C   UNL     1      34.263 -22.037 -19.121  0.00  0.00    +0.053 C 
ATOM      3  C   UNL     1      34.053 -20.173 -20.645  0.00  0.00    +0.015 C 
ATOM      4  C   UNL     1      36.241 -20.912 -19.934  0.00  0.00    +0.015 C 
ATOM      5  C   UNL     1      33.464 -21.168 -19.866  0.00  0.00    +0.006 C 
ATOM      6  C   UNL     1      35.651 -21.908 -19.155  0.00  0.00    +0.006 C 
ENDROOT
BRANCH   2   9
ATOM      7  O   UNL     1      33.662 -24.260 -18.684  0.00  0.00    -0.270 OA
ATOM      8  N   UNL     1      33.072 -22.678 -17.094  0.00  0.00    -0.293 N 
ATOM      9  C   ACE A   0      33.635 -23.097 -18.291  0.00  0.00    +0.246 C 
ATOM     10  H   UNL     1      33.100 -21.720 -16.867  0.00  0.00    +0.150 HD
BRANCH   8  11
ATOM     11  CA  UNL     1      32.448 -23.590 -16.169  0.00  0.00    +0.172 C 
BRANCH  11  13
ATOM     12  OXT UNL     1      30.317 -22.642 -16.871  0.00  0.00    -0.248 OA
ATOM     13  C   UNL     1      31.006 -23.156 -15.999  0.00  0.00    +0.332 C 
BRANCH  13  14
ATOM     14  O   UNL     1      30.534 -23.440 -14.757  0.00  0.00    -0.479 OA
ATOM     15  H   UNL     1      29.633 -23.287 -14.553  0.00  0.00    +0.295 HD
ENDBRANCH  13  14
ENDBRANCH  11  13
BRANCH  11  16
ATOM     16  CB  UNL     1      33.217 -23.714 -14.848  0.00  0.00    +0.043 C 
BRANCH  16  17
ATOM     17  CG  UNL     1      34.470 -24.597 -14.885  0.00  0.00    +0.112 C 
BRANCH  17  19
ATOM     18  OE2 UNL     1      36.151 -23.274 -16.052  0.00  0.00    -0.250 OA
ATOM     19  CD  UNL     1      35.760 -23.820 -15.029  0.00  0.00    +0.314 C 
BRANCH  19  20
ATOM     20  OE1 UNL     1      36.480 -23.826 -13.876  0.00  0.00    -0.480 OA
ATOM     21  HE1 UNL     1      37.415 -23.782 -13.908  0.00  0.00    +0.295 HD
ENDBRANCH  19  20
ENDBRANCH  17  19
ENDBRANCH  16  17
ENDBRANCH  11  16
ENDBRANCH   8  11
ENDBRANCH   2   9
BRANCH   1  22
ATOM     22  N   UNL     1      36.039 -19.038 -21.465  0.00  0.00    -0.302 N 
ATOM     23  C   UNL     1      37.471 -18.821 -21.418  0.00  0.00    +0.112 C 
BRANCH  22  24
ATOM     24  C   UNL     1      35.229 -18.216 -22.343  0.00  0.00    +0.118 C 
BRANCH  24  29
ATOM     25  O   UNL     1      34.608 -15.129 -20.406  0.00  0.00    -0.427 OA
ATOM     26  N   UNL     1      33.894 -13.439 -21.934  0.00  0.00    -0.294 NA
ATOM     27  N   UNL     1      33.777 -14.190 -24.248  0.00  0.00    -0.317 NA
ATOM     28  N   UNL     1      33.224 -11.996 -23.650  0.00  0.00    -0.283 N 
ATOM     29  C   UNL     1      34.903 -16.846 -21.831  0.00  0.00    +0.031 C 
ATOM     30  C   UNL     1      34.467 -15.725 -22.576  0.00  0.00    +0.180 C 
ATOM     31  C   UNL     1      34.299 -14.691 -21.660  0.00  0.00    +0.281 C 
ATOM     32  C   UNL     1      34.971 -16.433 -20.521  0.00  0.00    +0.176 C 
ATOM     33  C   UNL     1      34.189 -15.434 -23.910  0.00  0.00    +0.181 C 
ATOM     34  C   UNL     1      33.657 -13.282 -23.253  0.00  0.00    +0.200 C 
ATOM     35  H   UNL     1      33.114 -11.285 -22.977  0.00  0.00    +0.156 HD
ATOM     36  H   UNL     1      33.033 -11.812 -24.597  0.00  0.00    +0.156 HD
ATOM     37  N   UNL     1      34.329 -16.414 -24.910  0.00  0.00    -0.335 N 
ATOM     38  H   UNL     1      34.128 -16.192 -25.848  0.00  0.00    +0.144 HD
ATOM     39  H   UNL     1      34.627 -17.321 -24.672  0.00  0.00    +0.144 HD
ENDBRANCH  24  29
ENDBRANCH  22  24
ENDBRANCH   1  22
TORSDOF 11
ENDMDL
MODEL 6
REMARK VINA RESULT:     -10.8      2.574      3.926
REMARK  Name = 158376
REMARK  11 active torsions:
REMARK  status: ('A' for Active; 'I' for Inactive)
REMARK    1  A    between atoms: C_1  and  N_22
REMARK    2  A    between atoms: C_2  and  C_9
REMARK    3  A    between atoms: N_8  and  CA_11
REMARK    4  A    between atoms: CA_11  and  C_13
REMARK    5  A    between atoms: CA_11  and  CB_16
REMARK    6  A    between atoms: C_13  and  O_14
REMARK    7  A    between atoms: CB_16  and  CG_17
REMARK    8  A    between atoms: CG_17  and  CD_19
REMARK    9  A    between atoms: CD_19  and  OE1_20
REMARK   10  A    between atoms: N_22  and  C_24
REMARK   11  A    between atoms: C_24  and  C_29
REMARK                            x       y       z     vdW  Elec       q    Type
REMARK                         _______ _______ _______ _____ _____    ______ ____
ROOT
ATOM      1  C   UNL     1      34.776 -21.260 -19.492  0.00  0.00    +0.048 C 
ATOM      2  C   UNL     1      35.827 -22.501 -17.224  0.00  0.00    +0.053 C 
ATOM      3  C   UNL     1      36.125 -21.103 -19.174  0.00  0.00    +0.015 C 
ATOM      4  C   UNL     1      33.953 -22.037 -18.677  0.00  0.00    +0.015 C 
ATOM      5  C   UNL     1      36.650 -21.723 -18.040  0.00  0.00    +0.006 C 
ATOM      6  C   UNL     1      34.479 -22.657 -17.543  0.00  0.00    +0.006 C 
ENDROOT
BRANCH   2   9
ATOM      7  O   UNL     1      37.516 -22.861 -15.639  0.00  0.00    -0.270 OA
ATOM      8  N   UNL     1      35.556 -24.075 -15.384  0.00  0.00    -0.293 N 
ATOM      9  C   ACE A   0      36.387 -23.162 -16.018  0.00  0.00    +0.246 C 
ATOM     10  H   UNL     1      34.666 -24.250 -15.766  0.00  0.00    +0.150 HD
BRANCH   8  11
ATOM     11  CA  UNL     1      35.947 -24.779 -14.189  0.00  0.00    +0.172 C 
BRANCH  11  13
ATOM     12  OXT UNL     1      35.910 -26.726 -15.652  0.00  0.00    -0.248 OA
ATOM     13  C   UNL     1      36.172 -26.230 -14.564  0.00  0.00    +0.332 C 
BRANCH  13  14
ATOM     14  O   UNL     1      36.744 -26.932 -13.551  0.00  0.00    -0.479 OA
ATOM     15  H   UNL     1      36.933 -27.843 -13.661  0.00  0.00    +0.295 HD
ENDBRANCH  13  14
ENDBRANCH  11  13
BRANCH  11  16
ATOM     16  CB  UNL     1      34.955 -24.584 -13.036  0.00  0.00    +0.043 C 
BRANCH  16  17
ATOM     17  CG  UNL     1      35.517 -23.910 -11.778  0.00  0.00    +0.112 C 
BRANCH  17  19
ATOM     18  OE2 UNL     1      36.234 -26.079 -10.929  0.00  0.00    -0.250 OA
ATOM     19  CD  UNL     1      36.039 -24.885 -10.745  0.00  0.00    +0.314 C 
BRANCH  19  20
ATOM     20  OE1 UNL     1      36.236 -24.282  -9.543  0.00  0.00    -0.480 OA
ATOM     21  HE1 UNL     1      36.813 -23.546  -9.478  0.00  0.00    +0.295 HD
ENDBRANCH  19  20
ENDBRANCH  17  19
ENDBRANCH  16  17
ENDBRANCH  11  16
ENDBRANCH   8  11
ENDBRANCH   2   9
BRANCH   1  22
ATOM     22  N   UNL     1      34.244 -20.634 -20.638  0.00  0.00    -0.302 N 
ATOM     23  C   UNL     1      32.811 -20.483 -20.794  0.00  0.00    +0.112 C 
BRANCH  22  24
ATOM     24  C   UNL     1      35.125 -20.120 -21.669  0.00  0.00    +0.118 C 
BRANCH  24  29
ATOM     25  O   UNL     1      35.358 -16.437 -21.455  0.00  0.00    -0.427 OA
ATOM     26  N   UNL     1      34.512 -15.532 -23.497  0.00  0.00    -0.294 NA
ATOM     27  N   UNL     1      33.761 -17.219 -25.084  0.00  0.00    -0.317 NA
ATOM     28  N   UNL     1      33.635 -14.936 -25.582  0.00  0.00    -0.283 N 
ATOM     29  C   UNL     1      35.098 -18.635 -21.863  0.00  0.00    +0.031 C 
ATOM     30  C   UNL     1      34.636 -17.919 -22.994  0.00  0.00    +0.180 C 
ATOM     31  C   UNL     1      34.816 -16.571 -22.700  0.00  0.00    +0.281 C 
ATOM     32  C   UNL     1      35.523 -17.690 -20.959  0.00  0.00    +0.176 C 
ATOM     33  C   UNL     1      34.088 -18.223 -24.238  0.00  0.00    +0.181 C 
ATOM     34  C   UNL     1      33.991 -15.954 -24.667  0.00  0.00    +0.200 C 
ATOM     35  H   UNL     1      33.774 -13.990 -25.344  0.00  0.00    +0.156 HD
ATOM     36  H   UNL     1      33.248 -15.172 -26.455  0.00  0.00    +0.156 HD
ATOM     37  N   UNL     1      33.867 -19.557 -24.626  0.00  0.00    -0.335 N 
ATOM     38  H   UNL     1      33.479 -19.755 -25.509  0.00  0.00    +0.144 HD
ATOM     39  H   UNL     1      34.101 -20.293 -24.016  0.00  0.00    +0.144 HD
ENDBRANCH  24  29
ENDBRANCH  22  24
ENDBRANCH   1  22
TORSDOF 11
ENDMDL
MODEL 7
REMARK VINA RESULT:     -10.7      1.812      2.525
REMARK  Name = 158376
REMARK  11 active torsions:
REMARK  status: ('A' for Active; 'I' for Inactive)
REMARK    1  A    between atoms: C_1  and  N_22
REMARK    2  A    between atoms: C_2  and  C_9
REMARK    3  A    between atoms: N_8  and  CA_11
REMARK    4  A    between atoms: CA_11  and  C_13
REMARK    5  A    between atoms: CA_11  and  CB_16
REMARK    6  A    between atoms: C_13  and  O_14
REMARK    7  A    between atoms: CB_16  and  CG_17
REMARK    8  A    between atoms: CG_17  and  CD_19
REMARK    9  A    between atoms: CD_19  and  OE1_20
REMARK   10  A    between atoms: N_22  and  C_24
REMARK   11  A    between atoms: C_24  and  C_29
REMARK                            x       y       z     vdW  Elec       q    Type
REMARK                         _______ _______ _______ _____ _____    ______ ____
ROOT
ATOM      1  C   UNL     1      34.713 -20.074 -20.956  0.00  0.00    +0.048 C 
ATOM      2  C   UNL     1      34.346 -22.059 -19.030  0.00  0.00    +0.053 C 
ATOM      3  C   UNL     1      33.425 -20.408 -20.536  0.00  0.00    +0.015 C 
ATOM      4  C   UNL     1      35.817 -20.732 -20.413  0.00  0.00    +0.015 C 
ATOM      5  C   UNL     1      33.242 -21.400 -19.573  0.00  0.00    +0.006 C 
ATOM      6  C   UNL     1      35.632 -21.725 -19.450  0.00  0.00    +0.006 C 
ENDROOT
BRANCH   2   9
ATOM      7  O   UNL     1      33.591 -24.163 -18.321  0.00  0.00    -0.270 OA
ATOM      8  N   UNL     1      34.649 -22.835 -16.740  0.00  0.00    -0.293 N 
ATOM      9  C   ACE A   0      34.150 -23.116 -18.004  0.00  0.00    +0.246 C 
ATOM     10  H   UNL     1      35.082 -21.965 -16.583  0.00  0.00    +0.150 HD
BRANCH   8  11
ATOM     11  CA  UNL     1      34.559 -23.769 -15.646  0.00  0.00    +0.172 C 
BRANCH  11  13
ATOM     12  OXT UNL     1      32.218 -23.206 -15.275  0.00  0.00    -0.248 OA
ATOM     13  C   UNL     1      33.341 -23.397 -14.825  0.00  0.00    +0.332 C 
BRANCH  13  14
ATOM     14  O   UNL     1      33.624 -23.333 -13.497  0.00  0.00    -0.479 OA
ATOM     15  H   UNL     1      34.469 -23.047 -13.212  0.00  0.00    +0.295 HD
ENDBRANCH  13  14
ENDBRANCH  11  13
BRANCH  11  16
ATOM     16  CB  UNL     1      35.854 -23.852 -14.829  0.00  0.00    +0.043 C 
BRANCH  16  17
ATOM     17  CG  UNL     1      36.409 -25.264 -14.599  0.00  0.00    +0.112 C 
BRANCH  17  19
ATOM     18  OE2 UNL     1      38.560 -24.491 -13.754  0.00  0.00    -0.250 OA
ATOM     19  CD  UNL     1      37.908 -25.304 -14.395  0.00  0.00    +0.314 C 
BRANCH  19  20
ATOM     20  OE1 UNL     1      38.474 -26.350 -15.053  0.00  0.00    -0.480 OA
ATOM     21  HE1 UNL     1      39.356 -26.602 -14.859  0.00  0.00    +0.295 HD
ENDBRANCH  19  20
ENDBRANCH  17  19
ENDBRANCH  16  17
ENDBRANCH  11  16
ENDBRANCH   8  11
ENDBRANCH   2   9
BRANCH   1  22
ATOM     22  N   UNL     1      34.900 -19.071 -21.928  0.00  0.00    -0.302 N 
ATOM     23  C   UNL     1      34.213 -19.146 -23.203  0.00  0.00    +0.112 C 
BRANCH  22  24
ATOM     24  C   UNL     1      35.769 -17.941 -21.661  0.00  0.00    +0.118 C 
BRANCH  24  29
ATOM     25  O   UNL     1      34.118 -15.002 -20.146  0.00  0.00    -0.427 OA
ATOM     26  N   UNL     1      33.520 -13.509 -21.911  0.00  0.00    -0.294 NA
ATOM     27  N   UNL     1      34.139 -14.308 -24.127  0.00  0.00    -0.317 NA
ATOM     28  N   UNL     1      33.058 -12.253 -23.830  0.00  0.00    -0.283 N 
ATOM     29  C   UNL     1      35.078 -16.653 -21.337  0.00  0.00    +0.031 C 
ATOM     30  C   UNL     1      34.648 -15.651 -22.239  0.00  0.00    +0.180 C 
ATOM     31  C   UNL     1      34.065 -14.654 -21.463  0.00  0.00    +0.281 C 
ATOM     32  C   UNL     1      34.732 -16.212 -20.080  0.00  0.00    +0.176 C 
ATOM     33  C   UNL     1      34.672 -15.442 -23.617  0.00  0.00    +0.181 C 
ATOM     34  C   UNL     1      33.604 -13.424 -23.254  0.00  0.00    +0.200 C 
ATOM     35  H   UNL     1      32.652 -11.566 -23.254  0.00  0.00    +0.156 HD
ATOM     36  H   UNL     1      33.085 -12.126 -24.805  0.00  0.00    +0.156 HD
ATOM     37  N   UNL     1      35.240 -16.393 -24.484  0.00  0.00    -0.335 N 
ATOM     38  H   UNL     1      35.249 -16.230 -25.454  0.00  0.00    +0.144 HD
ATOM     39  H   UNL     1      35.629 -17.221 -24.120  0.00  0.00    +0.144 HD
ENDBRANCH  24  29
ENDBRANCH  22  24
ENDBRANCH   1  22
TORSDOF 11
ENDMDL
MODEL 8
REMARK VINA RESULT:     -10.6      3.760     10.837
REMARK  Name = 158376
REMARK  11 active torsions:
REMARK  status: ('A' for Active; 'I' for Inactive)
REMARK    1  A    between atoms: C_1  and  N_22
REMARK    2  A    between atoms: C_2  and  C_9
REMARK    3  A    between atoms: N_8  and  CA_11
REMARK    4  A    between atoms: CA_11  and  C_13
REMARK    5  A    between atoms: CA_11  and  CB_16
REMARK    6  A    between atoms: C_13  and  O_14
REMARK    7  A    between atoms: CB_16  and  CG_17
REMARK    8  A    between atoms: CG_17  and  CD_19
REMARK    9  A    between atoms: CD_19  and  OE1_20
REMARK   10  A    between atoms: N_22  and  C_24
REMARK   11  A    between atoms: C_24  and  C_29
REMARK                            x       y       z     vdW  Elec       q    Type
REMARK                         _______ _______ _______ _____ _____    ______ ____
ROOT
ATOM      1  C   UNL     1      34.237 -23.241 -15.892  0.00  0.00    +0.048 C 
ATOM      2  C   UNL     1      35.283 -22.145 -18.235  0.00  0.00    +0.053 C 
ATOM      3  C   UNL     1      35.524 -22.702 -15.895  0.00  0.00    +0.015 C 
ATOM      4  C   UNL     1      33.474 -23.233 -17.058  0.00  0.00    +0.015 C 
ATOM      5  C   UNL     1      36.046 -22.153 -17.067  0.00  0.00    +0.006 C 
ATOM      6  C   UNL     1      33.997 -22.685 -18.230  0.00  0.00    +0.006 C 
ENDROOT
BRANCH   2   9
ATOM      7  O   UNL     1      36.898 -21.996 -19.928  0.00  0.00    -0.270 OA
ATOM      8  N   UNL     1      35.083 -20.558 -20.073  0.00  0.00    -0.293 N 
ATOM      9  C   ACE A   0      35.839 -21.561 -19.482  0.00  0.00    +0.246 C 
ATOM     10  H   UNL     1      34.246 -20.276 -19.638  0.00  0.00    +0.150 HD
BRANCH   8  11
ATOM     11  CA  UNL     1      35.477 -19.910 -21.299  0.00  0.00    +0.172 C 
BRANCH  11  13
ATOM     12  OXT UNL     1      37.661 -18.881 -20.977  0.00  0.00    -0.248 OA
ATOM     13  C   UNL     1      36.440 -18.797 -20.941  0.00  0.00    +0.332 C 
BRANCH  13  14
ATOM     14  O   UNL     1      35.789 -17.653 -20.602  0.00  0.00    -0.479 OA
ATOM     15  H   UNL     1      36.210 -17.018 -20.058  0.00  0.00    +0.295 HD
ENDBRANCH  13  14
ENDBRANCH  11  13
BRANCH  11  16
ATOM     16  CB  UNL     1      34.279 -19.448 -22.137  0.00  0.00    +0.043 C 
BRANCH  16  17
ATOM     17  CG  UNL     1      34.586 -19.077 -23.593  0.00  0.00    +0.112 C 
BRANCH  17  19
ATOM     18  OE2 UNL     1      34.754 -16.715 -23.017  0.00  0.00    -0.250 OA
ATOM     19  CD  UNL     1      34.578 -17.587 -23.857  0.00  0.00    +0.314 C 
BRANCH  19  20
ATOM     20  OE1 UNL     1      34.307 -17.312 -25.161  0.00  0.00    -0.480 OA
ATOM     21  HE1 UNL     1      34.945 -17.501 -25.821  0.00  0.00    +0.295 HD
ENDBRANCH  19  20
ENDBRANCH  17  19
ENDBRANCH  16  17
ENDBRANCH  11  16
ENDBRANCH   8  11
ENDBRANCH   2   9
BRANCH   1  22
ATOM     22  N   UNL     1      33.708 -23.794 -14.707  0.00  0.00    -0.302 N 
ATOM     23  C   UNL     1      32.276 -23.829 -14.489  0.00  0.00    +0.112 C 
BRANCH  22  24
ATOM     24  C   UNL     1      34.590 -24.349 -13.699  0.00  0.00    +0.118 C 
BRANCH  24  29
ATOM     25  O   UNL     1      36.456 -27.118 -15.284  0.00  0.00    -0.427 OA
ATOM     26  N   UNL     1      38.729 -26.971 -14.567  0.00  0.00    -0.294 NA
ATOM     27  N   UNL     1      39.165 -25.114 -13.053  0.00  0.00    -0.317 NA
ATOM     28  N   UNL     1      40.868 -26.582 -13.704  0.00  0.00    -0.283 N 
ATOM     29  C   UNL     1      35.585 -25.354 -14.189  0.00  0.00    +0.031 C 
ATOM     30  C   UNL     1      36.964 -25.430 -13.877  0.00  0.00    +0.180 C 
ATOM     31  C   UNL     1      37.460 -26.529 -14.573  0.00  0.00    +0.281 C 
ATOM     32  C   UNL     1      35.328 -26.401 -15.044  0.00  0.00    +0.176 C 
ATOM     33  C   UNL     1      37.873 -24.717 -13.099  0.00  0.00    +0.181 C 
ATOM     34  C   UNL     1      39.509 -26.201 -13.781  0.00  0.00    +0.200 C 
ATOM     35  H   UNL     1      41.189 -27.365 -14.208  0.00  0.00    +0.156 HD
ATOM     36  H   UNL     1      41.493 -26.064 -13.147  0.00  0.00    +0.156 HD
ATOM     37  N   UNL     1      37.467 -23.592 -12.359  0.00  0.00    -0.335 N 
ATOM     38  H   UNL     1      38.121 -23.099 -11.813  0.00  0.00    +0.144 HD
ATOM     39  H   UNL     1      36.528 -23.297 -12.386  0.00  0.00    +0.144 HD
ENDBRANCH  24  29
ENDBRANCH  22  24
ENDBRANCH   1  22
TORSDOF 11
ENDMDL
MODEL 9
REMARK VINA RESULT:     -10.6      2.550      4.044
REMARK  Name = 158376
REMARK  11 active torsions:
REMARK  status: ('A' for Active; 'I' for Inactive)
REMARK    1  A    between atoms: C_1  and  N_22
REMARK    2  A    between atoms: C_2  and  C_9
REMARK    3  A    between atoms: N_8  and  CA_11
REMARK    4  A    between atoms: CA_11  and  C_13
REMARK    5  A    between atoms: CA_11  and  CB_16
REMARK    6  A    between atoms: C_13  and  O_14
REMARK    7  A    between atoms: CB_16  and  CG_17
REMARK    8  A    between atoms: CG_17  and  CD_19
REMARK    9  A    between atoms: CD_19  and  OE1_20
REMARK   10  A    between atoms: N_22  and  C_24
REMARK   11  A    between atoms: C_24  and  C_29
REMARK                            x       y       z     vdW  Elec       q    Type
REMARK                         _______ _______ _______ _____ _____    ______ ____
ROOT
ATOM      1  C   UNL     1      34.446 -21.326 -19.512  0.00  0.00    +0.048 C 
ATOM      2  C   UNL     1      35.081 -22.857 -17.267  0.00  0.00    +0.053 C 
ATOM      3  C   UNL     1      33.456 -22.076 -18.877  0.00  0.00    +0.015 C 
ATOM      4  C   UNL     1      35.753 -21.342 -19.025  0.00  0.00    +0.015 C 
ATOM      5  C   UNL     1      33.773 -22.841 -17.755  0.00  0.00    +0.006 C 
ATOM      6  C   UNL     1      36.070 -22.108 -17.903  0.00  0.00    +0.006 C 
ENDROOT
BRANCH   2   9
ATOM      7  O   UNL     1      34.591 -24.467 -15.635  0.00  0.00    -0.270 OA
ATOM      8  N   UNL     1      36.688 -23.480 -15.544  0.00  0.00    -0.293 N 
ATOM      9  C   ACE A   0      35.419 -23.672 -16.072  0.00  0.00    +0.246 C 
ATOM     10  H   UNL     1      37.281 -22.817 -15.966  0.00  0.00    +0.150 HD
BRANCH   8  11
ATOM     11  CA  UNL     1      37.172 -24.213 -14.402  0.00  0.00    +0.172 C 
BRANCH  11  13
ATOM     12  OXT UNL     1      37.485 -22.658 -12.554  0.00  0.00    -0.248 OA
ATOM     13  C   UNL     1      36.769 -23.445 -13.160  0.00  0.00    +0.332 C 
BRANCH  13  14
ATOM     14  O   UNL     1      35.483 -23.700 -12.800  0.00  0.00    -0.479 OA
ATOM     15  H   UNL     1      35.198 -24.583 -12.675  0.00  0.00    +0.295 HD
ENDBRANCH  13  14
ENDBRANCH  11  13
BRANCH  11  16
ATOM     16  CB  UNL     1      38.673 -24.515 -14.484  0.00  0.00    +0.043 C 
BRANCH  16  17
ATOM     17  CG  UNL     1      39.147 -25.757 -13.719  0.00  0.00    +0.112 C 
BRANCH  17  19
ATOM     18  OE2 UNL     1      41.252 -26.984 -13.681  0.00  0.00    -0.250 OA
ATOM     19  CD  UNL     1      40.377 -26.407 -14.313  0.00  0.00    +0.314 C 
BRANCH  19  20
ATOM     20  OE1 UNL     1      40.429 -26.241 -15.661  0.00  0.00    -0.480 OA
ATOM     21  HE1 UNL     1      39.712 -25.839 -16.111  0.00  0.00    +0.295 HD
ENDBRANCH  19  20
ENDBRANCH  17  19
ENDBRANCH  16  17
ENDBRANCH  11  16
ENDBRANCH   8  11
ENDBRANCH   2   9
BRANCH   1  22
ATOM     22  N   UNL     1      34.126 -20.552 -20.646  0.00  0.00    -0.302 N 
ATOM     23  C   UNL     1      32.743 -20.284 -20.985  0.00  0.00    +0.112 C 
BRANCH  22  24
ATOM     24  C   UNL     1      35.177 -20.000 -21.479  0.00  0.00    +0.118 C 
BRANCH  24  29
ATOM     25  O   UNL     1      35.263 -16.306 -21.367  0.00  0.00    -0.427 OA
ATOM     26  N   UNL     1      34.492 -15.493 -23.475  0.00  0.00    -0.294 NA
ATOM     27  N   UNL     1      33.888 -17.253 -25.047  0.00  0.00    -0.317 NA
ATOM     28  N   UNL     1      33.703 -14.991 -25.620  0.00  0.00    -0.283 N 
ATOM     29  C   UNL     1      35.105 -18.524 -21.720  0.00  0.00    +0.031 C 
ATOM     30  C   UNL     1      34.677 -17.859 -22.894  0.00  0.00    +0.180 C 
ATOM     31  C   UNL     1      34.792 -16.497 -22.633  0.00  0.00    +0.281 C 
ATOM     32  C   UNL     1      35.448 -17.538 -20.824  0.00  0.00    +0.176 C 
ATOM     33  C   UNL     1      34.206 -18.219 -24.155  0.00  0.00    +0.181 C 
ATOM     34  C   UNL     1      34.049 -15.968 -24.657  0.00  0.00    +0.200 C 
ATOM     35  H   UNL     1      33.795 -14.035 -25.404  0.00  0.00    +0.156 HD
ATOM     36  H   UNL     1      33.372 -15.268 -26.504  0.00  0.00    +0.156 HD
ATOM     37  N   UNL     1      34.055 -19.571 -24.513  0.00  0.00    -0.335 N 
ATOM     38  H   UNL     1      33.721 -19.809 -25.408  0.00  0.00    +0.144 HD
ATOM     39  H   UNL     1      34.284 -20.280 -23.869  0.00  0.00    +0.144 HD
ENDBRANCH  24  29
ENDBRANCH  22  24
ENDBRANCH   1  22
TORSDOF 11
ENDMDL
