MODEL 1
REMARK VINA RESULT:     -11.9      0.000      0.000
REMARK  Name = 46937054
REMARK  4 active torsions:
REMARK  status: ('A' for Active; 'I' for Inactive)
REMARK    1  A    between atoms: C_5  and  C_18
REMARK    2  A    between atoms: C_11  and  O_19
REMARK    3  A    between atoms: O_19  and  C_20
REMARK    4  A    between atoms: C_20  and  C_22
REMARK                            x       y       z     vdW  Elec       q    Type
REMARK                         _______ _______ _______ _____ _____    ______ ____
ROOT
ATOM      1 CL   UNL     1      30.087 -23.538 -15.834  0.00  0.00    -0.047 Cl
ATOM      2  O   UNL     1      35.665 -22.978 -17.031  0.00  0.00    -0.263 OA
ATOM      3  N   UNL     1      34.038 -23.540 -15.457  0.00  0.00    -0.240 N 
ATOM      4  N   UNL     1      32.129 -23.129 -17.448  0.00  0.00    -0.351 NA
ATOM      5  C   UNL     1      34.837 -23.764 -14.250  0.00  0.00    +0.161 C 
ATOM      6  C   UNL     1      33.765 -23.984 -13.221  0.00  0.00    +0.057 C 
ATOM      7  C   UNL     1      32.691 -23.637 -15.182  0.00  0.00    +0.091 C 
ATOM      8  C   UNL     1      32.547 -23.923 -13.779  0.00  0.00    -0.005 C 
ATOM      9  C   UNL     1      34.508 -23.165 -16.693  0.00  0.00    +0.320 C 
ATOM     10  C   UNL     1      31.786 -23.438 -16.151  0.00  0.00    +0.206 C 
ATOM     11  C   UNL     1      33.393 -22.997 -17.698  0.00  0.00    +0.335 C 
ENDROOT
BRANCH   5  18
ATOM     12  O   UNL     1      35.204 -25.946 -15.131  0.00  0.00    -0.273 OA
ATOM     13  N   UNL     1      36.787 -25.120 -13.665  0.00  0.00    -0.278 N 
ATOM     14  C   UNL     1      37.332 -24.091 -12.785  0.00  0.00    +0.094 C 
ATOM     15  C   UNL     1      37.650 -26.292 -13.695  0.00  0.00    +0.094 C 
ATOM     16  C   UNL     1      38.456 -24.791 -12.033  0.00  0.00    +0.023 C 
ATOM     17  C   UNL     1      38.940 -25.832 -13.034  0.00  0.00    +0.023 C 
ATOM     18  C   UNL     1      35.617 -25.045 -14.399  0.00  0.00    +0.244 C 
ENDBRANCH   5  18
BRANCH  11  19
ATOM     19  O   UNL     1      33.842 -22.691 -18.924  0.00  0.00    -0.444 OA
BRANCH  19  20
ATOM     20  C   UNL     1      33.384 -21.437 -19.413  0.00  0.00    +0.235 C 
BRANCH  20  22
ATOM     21  F   UNL     1      37.707 -18.682 -21.739  0.00  0.00    -0.204 F 
ATOM     22  C   UNL     1      34.536 -20.703 -20.033  0.00  0.00    +0.021 C 
ATOM     23  C   UNL     1      34.301 -19.721 -20.995  0.00  0.00    +0.002 C 
ATOM     24  C   UNL     1      35.842 -21.003 -19.648  0.00  0.00    +0.002 C 
ATOM     25  C   UNL     1      35.372 -19.038 -21.572  0.00  0.00    +0.029 C 
ATOM     26  C   UNL     1      36.914 -20.320 -20.224  0.00  0.00    +0.029 C 
ATOM     27  C   UNL     1      36.678 -19.337 -21.186  0.00  0.00    +0.140 C 
ENDBRANCH  20  22
ENDBRANCH  19  20
ENDBRANCH  11  19
TORSDOF 4
ENDMDL
MODEL 2
REMARK VINA RESULT:     -11.5      2.568      4.969
REMARK  Name = 46937054
REMARK  4 active torsions:
REMARK  status: ('A' for Active; 'I' for Inactive)
REMARK    1  A    between atoms: C_5  and  C_18
REMARK    2  A    between atoms: C_11  and  O_19
REMARK    3  A    between atoms: O_19  and  C_20
REMARK    4  A    between atoms: C_20  and  C_22
REMARK                            x       y       z     vdW  Elec       q    Type
REMARK                         _______ _______ _______ _____ _____    ______ ____
ROOT
ATOM      1 CL   UNL     1      37.304 -23.423 -14.138  0.00  0.00    -0.047 Cl
ATOM      2  O   UNL     1      32.728 -23.457 -17.592  0.00  0.00    -0.263 OA
ATOM      3  N   UNL     1      33.585 -23.849 -15.458  0.00  0.00    -0.240 N 
ATOM      4  N   UNL     1      36.038 -22.905 -16.390  0.00  0.00    -0.351 NA
ATOM      5  C   UNL     1      32.433 -24.423 -14.760  0.00  0.00    +0.161 C 
ATOM      6  C   UNL     1      33.041 -24.798 -13.440  0.00  0.00    +0.057 C 
ATOM      7  C   UNL     1      34.706 -23.863 -14.655  0.00  0.00    +0.091 C 
ATOM      8  C   UNL     1      34.337 -24.454 -13.395  0.00  0.00    -0.005 C 
ATOM      9  C   UNL     1      33.631 -23.446 -16.771  0.00  0.00    +0.320 C 
ATOM     10  C   UNL     1      35.876 -23.404 -15.118  0.00  0.00    +0.206 C 
ATOM     11  C   UNL     1      34.996 -22.930 -17.159  0.00  0.00    +0.335 C 
ENDROOT
BRANCH   5  18
ATOM     12  O   UNL     1      31.693 -22.354 -13.842  0.00  0.00    -0.273 OA
ATOM     13  N   UNL     1      30.168 -23.559 -15.092  0.00  0.00    -0.278 N 
ATOM     14  C   UNL     1      29.769 -24.704 -15.904  0.00  0.00    +0.094 C 
ATOM     15  C   UNL     1      29.070 -22.615 -14.946  0.00  0.00    +0.094 C 
ATOM     16  C   UNL     1      28.258 -24.570 -16.033  0.00  0.00    +0.023 C 
ATOM     17  C   UNL     1      28.043 -23.063 -15.973  0.00  0.00    +0.023 C 
ATOM     18  C   UNL     1      31.408 -23.344 -14.518  0.00  0.00    +0.244 C 
ENDBRANCH   5  18
BRANCH  11  19
ATOM     19  O   UNL     1      35.039 -22.475 -18.420  0.00  0.00    -0.444 OA
BRANCH  19  20
ATOM     20  C   UNL     1      36.264 -21.841 -18.767  0.00  0.00    +0.235 C 
BRANCH  20  22
ATOM     21  F   UNL     1      35.256 -17.904 -22.662  0.00  0.00    -0.204 F 
ATOM     22  C   UNL     1      35.996 -20.792 -19.805  0.00  0.00    +0.021 C 
ATOM     23  C   UNL     1      36.997 -19.888 -20.159  0.00  0.00    +0.002 C 
ATOM     24  C   UNL     1      34.744 -20.720 -20.417  0.00  0.00    +0.002 C 
ATOM     25  C   UNL     1      36.748 -18.912 -21.124  0.00  0.00    +0.029 C 
ATOM     26  C   UNL     1      34.494 -19.744 -21.382  0.00  0.00    +0.029 C 
ATOM     27  C   UNL     1      35.496 -18.840 -21.736  0.00  0.00    +0.140 C 
ENDBRANCH  20  22
ENDBRANCH  19  20
ENDBRANCH  11  19
TORSDOF 4
ENDMDL
MODEL 3
REMARK VINA RESULT:     -10.3     10.808     15.198
REMARK  Name = 46937054
REMARK  4 active torsions:
REMARK  status: ('A' for Active; 'I' for Inactive)
REMARK    1  A    between atoms: C_5  and  C_18
REMARK    2  A    between atoms: C_11  and  O_19
REMARK    3  A    between atoms: O_19  and  C_20
REMARK    4  A    between atoms: C_20  and  C_22
REMARK                            x       y       z     vdW  Elec       q    Type
REMARK                         _______ _______ _______ _____ _____    ______ ____
ROOT
ATOM      1 CL   UNL     1      31.516 -10.410 -18.044  0.00  0.00    -0.047 Cl
ATOM      2  O   UNL     1      32.418 -10.287 -23.704  0.00  0.00    -0.263 OA
ATOM      3  N   UNL     1      32.217  -9.080 -21.718  0.00  0.00    -0.240 N 
ATOM      4  N   UNL     1      31.956 -11.520 -20.392  0.00  0.00    -0.351 NA
ATOM      5  C   UNL     1      32.279  -7.695 -22.187  0.00  0.00    +0.161 C 
ATOM      6  C   UNL     1      32.005  -6.939 -20.919  0.00  0.00    +0.057 C 
ATOM      7  C   UNL     1      31.966  -9.132 -20.363  0.00  0.00    +0.091 C 
ATOM      8  C   UNL     1      31.846  -7.780 -19.886  0.00  0.00    -0.005 C 
ATOM      9  C   UNL     1      32.275 -10.213 -22.495  0.00  0.00    +0.320 C 
ATOM     10  C   UNL     1      31.845 -10.313 -19.741  0.00  0.00    +0.206 C 
ATOM     11  C   UNL     1      32.150 -11.474 -21.672  0.00  0.00    +0.335 C 
ENDROOT
BRANCH   5  18
ATOM     12  O   UNL     1      34.620  -7.443 -21.830  0.00  0.00    -0.273 OA
ATOM     13  N   UNL     1      33.826  -7.024 -23.960  0.00  0.00    -0.278 N 
ATOM     14  C   UNL     1      32.764  -6.935 -24.956  0.00  0.00    +0.094 C 
ATOM     15  C   UNL     1      35.117  -6.685 -24.540  0.00  0.00    +0.094 C 
ATOM     16  C   UNL     1      33.416  -6.243 -26.145  0.00  0.00    +0.023 C 
ATOM     17  C   UNL     1      34.871  -6.683 -26.040  0.00  0.00    +0.023 C 
ATOM     18  C   UNL     1      33.685  -7.381 -22.631  0.00  0.00    +0.244 C 
ENDBRANCH   5  18
BRANCH  11  19
ATOM     19  O   UNL     1      32.267 -12.588 -22.409  0.00  0.00    -0.444 OA
BRANCH  19  20
ATOM     20  C   UNL     1      33.582 -12.824 -22.898  0.00  0.00    +0.235 C 
BRANCH  20  22
ATOM     21  F   UNL     1      35.458 -17.713 -20.833  0.00  0.00    -0.204 F 
ATOM     22  C   UNL     1      34.082 -14.127 -22.348  0.00  0.00    +0.021 C 
ATOM     23  C   UNL     1      34.492 -15.139 -23.215  0.00  0.00    +0.002 C 
ATOM     24  C   UNL     1      34.136 -14.327 -20.969  0.00  0.00    +0.002 C 
ATOM     25  C   UNL     1      34.956 -16.351 -22.704  0.00  0.00    +0.029 C 
ATOM     26  C   UNL     1      34.601 -15.538 -20.456  0.00  0.00    +0.029 C 
ATOM     27  C   UNL     1      35.012 -16.551 -21.325  0.00  0.00    +0.140 C 
ENDBRANCH  20  22
ENDBRANCH  19  20
ENDBRANCH  11  19
TORSDOF 4
ENDMDL
MODEL 4
REMARK VINA RESULT:     -10.3     11.026     15.396
REMARK  Name = 46937054
REMARK  4 active torsions:
REMARK  status: ('A' for Active; 'I' for Inactive)
REMARK    1  A    between atoms: C_5  and  C_18
REMARK    2  A    between atoms: C_11  and  O_19
REMARK    3  A    between atoms: O_19  and  C_20
REMARK    4  A    between atoms: C_20  and  C_22
REMARK                            x       y       z     vdW  Elec       q    Type
REMARK                         _______ _______ _______ _____ _____    ______ ____
ROOT
ATOM      1 CL   UNL     1      31.563 -10.393 -18.004  0.00  0.00    -0.047 Cl
ATOM      2  O   UNL     1      32.325 -10.194 -23.683  0.00  0.00    -0.263 OA
ATOM      3  N   UNL     1      32.148  -9.012 -21.679  0.00  0.00    -0.240 N 
ATOM      4  N   UNL     1      31.968 -11.470 -20.375  0.00  0.00    -0.351 NA
ATOM      5  C   UNL     1      32.172  -7.621 -22.135  0.00  0.00    +0.161 C 
ATOM      6  C   UNL     1      31.915  -6.883 -20.852  0.00  0.00    +0.057 C 
ATOM      7  C   UNL     1      31.932  -9.083 -20.319  0.00  0.00    +0.091 C 
ATOM      8  C   UNL     1      31.797  -7.738 -19.825  0.00  0.00    -0.005 C 
ATOM      9  C   UNL     1      32.210 -10.135 -22.469  0.00  0.00    +0.320 C 
ATOM     10  C   UNL     1      31.849 -10.272 -19.708  0.00  0.00    +0.206 C 
ATOM     11  C   UNL     1      32.129 -11.406 -21.658  0.00  0.00    +0.335 C 
ENDROOT
BRANCH   5  18
ATOM     12  O   UNL     1      34.548  -7.680 -21.993  0.00  0.00    -0.273 OA
ATOM     13  N   UNL     1      33.625  -6.487 -23.744  0.00  0.00    -0.278 N 
ATOM     14  C   UNL     1      32.497  -5.979 -24.518  0.00  0.00    +0.094 C 
ATOM     15  C   UNL     1      34.891  -6.061 -24.323  0.00  0.00    +0.094 C 
ATOM     16  C   UNL     1      33.116  -4.965 -25.470  0.00  0.00    +0.023 C 
ATOM     17  C   UNL     1      34.518  -5.518 -25.693  0.00  0.00    +0.023 C 
ATOM     18  C   UNL     1      33.561  -7.275 -22.608  0.00  0.00    +0.244 C 
ENDBRANCH   5  18
BRANCH  11  19
ATOM     19  O   UNL     1      32.251 -12.510 -22.410  0.00  0.00    -0.444 OA
BRANCH  19  20
ATOM     20  C   UNL     1      33.569 -12.742 -22.892  0.00  0.00    +0.235 C 
BRANCH  20  22
ATOM     21  F   UNL     1      35.434 -17.646 -20.854  0.00  0.00    -0.204 F 
ATOM     22  C   UNL     1      34.066 -14.049 -22.348  0.00  0.00    +0.021 C 
ATOM     23  C   UNL     1      34.095 -14.266 -20.971  0.00  0.00    +0.002 C 
ATOM     24  C   UNL     1      34.500 -15.047 -23.221  0.00  0.00    +0.002 C 
ATOM     25  C   UNL     1      34.557 -15.481 -20.465  0.00  0.00    +0.029 C 
ATOM     26  C   UNL     1      34.962 -16.263 -22.716  0.00  0.00    +0.029 C 
ATOM     27  C   UNL     1      34.990 -16.480 -21.338  0.00  0.00    +0.140 C 
ENDBRANCH  20  22
ENDBRANCH  19  20
ENDBRANCH  11  19
TORSDOF 4
ENDMDL
MODEL 5
REMARK VINA RESULT:     -10.1      6.775     11.563
REMARK  Name = 46937054
REMARK  4 active torsions:
REMARK  status: ('A' for Active; 'I' for Inactive)
REMARK    1  A    between atoms: C_5  and  C_18
REMARK    2  A    between atoms: C_11  and  O_19
REMARK    3  A    between atoms: O_19  and  C_20
REMARK    4  A    between atoms: C_20  and  C_22
REMARK                            x       y       z     vdW  Elec       q    Type
REMARK                         _______ _______ _______ _____ _____    ______ ____
ROOT
ATOM      1 CL   UNL     1      33.975 -17.827 -25.465  0.00  0.00    -0.047 Cl
ATOM      2  O   UNL     1      35.025 -15.036 -20.569  0.00  0.00    -0.263 OA
ATOM      3  N   UNL     1      34.169 -14.950 -22.737  0.00  0.00    -0.240 N 
ATOM      4  N   UNL     1      34.710 -17.678 -22.939  0.00  0.00    -0.351 NA
ATOM      5  C   UNL     1      33.843 -13.531 -22.887  0.00  0.00    +0.161 C 
ATOM      6  C   UNL     1      33.430 -13.472 -24.330  0.00  0.00    +0.057 C 
ATOM      7  C   UNL     1      33.955 -15.633 -23.915  0.00  0.00    +0.091 C 
ATOM      8  C   UNL     1      33.485 -14.688 -24.893  0.00  0.00    -0.005 C 
ATOM      9  C   UNL     1      34.726 -15.551 -21.633  0.00  0.00    +0.320 C 
ATOM     10  C   UNL     1      34.219 -16.945 -23.995  0.00  0.00    +0.206 C 
ATOM     11  C   UNL     1      34.951 -17.030 -21.844  0.00  0.00    +0.335 C 
ENDROOT
BRANCH   5  18
ATOM     12  O   UNL     1      32.082 -14.081 -21.382  0.00  0.00    -0.273 OA
ATOM     13  N   UNL     1      32.236 -11.879 -22.065  0.00  0.00    -0.278 N 
ATOM     14  C   UNL     1      32.857 -10.792 -22.815  0.00  0.00    +0.094 C 
ATOM     15  C   UNL     1      31.091 -11.403 -21.305  0.00  0.00    +0.094 C 
ATOM     16  C   UNL     1      31.863  -9.643 -22.709  0.00  0.00    +0.023 C 
ATOM     17  C   UNL     1      31.202  -9.887 -21.358  0.00  0.00    +0.023 C 
ATOM     18  C   UNL     1      32.642 -13.202 -22.038  0.00  0.00    +0.244 C 
ENDBRANCH   5  18
BRANCH  11  19
ATOM     19  O   UNL     1      35.437 -17.641 -20.754  0.00  0.00    -0.444 OA
BRANCH  19  20
ATOM     20  C   UNL     1      36.188 -18.816 -21.033  0.00  0.00    +0.235 C 
BRANCH  20  22
ATOM     21  F   UNL     1      33.745 -23.206 -18.494  0.00  0.00    -0.204 F 
ATOM     22  C   UNL     1      35.537 -19.986 -20.357  0.00  0.00    +0.021 C 
ATOM     23  C   UNL     1      34.154 -20.155 -20.432  0.00  0.00    +0.002 C 
ATOM     24  C   UNL     1      36.314 -20.905 -19.652  0.00  0.00    +0.002 C 
ATOM     25  C   UNL     1      33.548 -21.242 -19.802  0.00  0.00    +0.029 C 
ATOM     26  C   UNL     1      35.709 -21.993 -19.022  0.00  0.00    +0.029 C 
ATOM     27  C   UNL     1      34.325 -22.162 -19.098  0.00  0.00    +0.140 C 
ENDBRANCH  20  22
ENDBRANCH  19  20
ENDBRANCH  11  19
TORSDOF 4
ENDMDL
MODEL 6
REMARK VINA RESULT:     -10.1     11.170     15.548
REMARK  Name = 46937054
REMARK  4 active torsions:
REMARK  status: ('A' for Active; 'I' for Inactive)
REMARK    1  A    between atoms: C_5  and  C_18
REMARK    2  A    between atoms: C_11  and  O_19
REMARK    3  A    between atoms: O_19  and  C_20
REMARK    4  A    between atoms: C_20  and  C_22
REMARK                            x       y       z     vdW  Elec       q    Type
REMARK                         _______ _______ _______ _____ _____    ______ ____
ROOT
ATOM      1 CL   UNL     1      31.590 -10.486 -18.222  0.00  0.00    -0.047 Cl
ATOM      2  O   UNL     1      32.324  -9.956 -23.883  0.00  0.00    -0.263 OA
ATOM      3  N   UNL     1      32.183  -8.895 -21.810  0.00  0.00    -0.240 N 
ATOM      4  N   UNL     1      31.959 -11.424 -20.656  0.00  0.00    -0.351 NA
ATOM      5  C   UNL     1      32.233  -7.480 -22.180  0.00  0.00    +0.161 C 
ATOM      6  C   UNL     1      31.998  -6.817 -20.853  0.00  0.00    +0.057 C 
ATOM      7  C   UNL     1      31.973  -9.044 -20.455  0.00  0.00    +0.091 C 
ATOM      8  C   UNL     1      31.869  -7.730 -19.879  0.00  0.00    -0.005 C 
ATOM      9  C   UNL     1      32.217  -9.969 -22.668  0.00  0.00    +0.320 C 
ATOM     10  C   UNL     1      31.869 -10.267 -19.917  0.00  0.00    +0.206 C 
ATOM     11  C   UNL     1      32.115 -11.286 -21.934  0.00  0.00    +0.335 C 
ENDROOT
BRANCH   5  18
ATOM     12  O   UNL     1      34.605  -7.463 -21.970  0.00  0.00    -0.273 OA
ATOM     13  N   UNL     1      33.703  -6.433 -23.832  0.00  0.00    -0.278 N 
ATOM     14  C   UNL     1      32.586  -6.016 -24.673  0.00  0.00    +0.094 C 
ATOM     15  C   UNL     1      34.974  -6.019 -24.408  0.00  0.00    +0.094 C 
ATOM     16  C   UNL     1      33.207  -5.061 -25.683  0.00  0.00    +0.023 C 
ATOM     17  C   UNL     1      34.628  -5.592 -25.825  0.00  0.00    +0.023 C 
ATOM     18  C   UNL     1      33.625  -7.133 -22.641  0.00  0.00    +0.244 C 
ENDBRANCH   5  18
BRANCH  11  19
ATOM     19  O   UNL     1      32.209 -12.343 -22.753  0.00  0.00    -0.444 OA
BRANCH  19  20
ATOM     20  C   UNL     1      33.455 -12.443 -23.432  0.00  0.00    +0.235 C 
BRANCH  20  22
ATOM     21  F   UNL     1      34.792 -17.877 -24.031  0.00  0.00    -0.204 F 
ATOM     22  C   UNL     1      33.811 -13.891 -23.592  0.00  0.00    +0.021 C 
ATOM     23  C   UNL     1      33.430 -14.581 -24.742  0.00  0.00    +0.002 C 
ATOM     24  C   UNL     1      34.524 -14.549 -22.589  0.00  0.00    +0.002 C 
ATOM     25  C   UNL     1      33.760 -15.927 -24.891  0.00  0.00    +0.029 C 
ATOM     26  C   UNL     1      34.856 -15.896 -22.738  0.00  0.00    +0.029 C 
ATOM     27  C   UNL     1      34.474 -16.585 -23.889  0.00  0.00    +0.140 C 
ENDBRANCH  20  22
ENDBRANCH  19  20
ENDBRANCH  11  19
TORSDOF 4
ENDMDL
MODEL 7
REMARK VINA RESULT:      -9.8      3.192      4.974
REMARK  Name = 46937054
REMARK  4 active torsions:
REMARK  status: ('A' for Active; 'I' for Inactive)
REMARK    1  A    between atoms: C_5  and  C_18
REMARK    2  A    between atoms: C_11  and  O_19
REMARK    3  A    between atoms: O_19  and  C_20
REMARK    4  A    between atoms: C_20  and  C_22
REMARK                            x       y       z     vdW  Elec       q    Type
REMARK                         _______ _______ _______ _____ _____    ______ ____
ROOT
ATOM      1 CL   UNL     1      37.479 -21.758 -15.970  0.00  0.00    -0.047 Cl
ATOM      2  O   UNL     1      33.181 -22.820 -19.614  0.00  0.00    -0.263 OA
ATOM      3  N   UNL     1      34.052 -23.091 -17.466  0.00  0.00    -0.240 N 
ATOM      4  N   UNL     1      36.183 -21.470 -18.246  0.00  0.00    -0.351 NA
ATOM      5  C   UNL     1      33.079 -23.993 -16.848  0.00  0.00    +0.161 C 
ATOM      6  C   UNL     1      33.730 -24.268 -15.522  0.00  0.00    +0.057 C 
ATOM      7  C   UNL     1      35.112 -22.851 -16.618  0.00  0.00    +0.091 C 
ATOM      8  C   UNL     1      34.882 -23.591 -15.406  0.00  0.00    -0.005 C 
ATOM      9  C   UNL     1      34.024 -22.614 -18.755  0.00  0.00    +0.320 C 
ATOM     10  C   UNL     1      36.127 -22.067 -17.008  0.00  0.00    +0.206 C 
ATOM     11  C   UNL     1      35.209 -21.729 -19.060  0.00  0.00    +0.335 C 
ENDROOT
BRANCH   5  18
ATOM     12  O   UNL     1      31.615 -22.131 -17.090  0.00  0.00    -0.273 OA
ATOM     13  N   UNL     1      30.874 -23.893 -15.791  0.00  0.00    -0.278 N 
ATOM     14  C   UNL     1      31.023 -25.210 -15.182  0.00  0.00    +0.094 C 
ATOM     15  C   UNL     1      29.589 -23.301 -15.450  0.00  0.00    +0.094 C 
ATOM     16  C   UNL     1      29.867 -25.305 -14.196  0.00  0.00    +0.023 C 
ATOM     17  C   UNL     1      28.791 -24.447 -14.849  0.00  0.00    +0.023 C 
ATOM     18  C   UNL     1      31.794 -23.246 -16.597  0.00  0.00    +0.244 C 
ENDBRANCH   5  18
BRANCH  11  19
ATOM     19  O   UNL     1      35.162 -21.206 -20.294  0.00  0.00    -0.444 OA
BRANCH  19  20
ATOM     20  C   UNL     1      36.026 -20.093 -20.486  0.00  0.00    +0.235 C 
BRANCH  20  22
ATOM     21  F   UNL     1      34.069 -16.960 -24.734  0.00  0.00    -0.204 F 
ATOM     22  C   UNL     1      35.504 -19.258 -21.618  0.00  0.00    +0.021 C 
ATOM     23  C   UNL     1      35.662 -17.873 -21.593  0.00  0.00    +0.002 C 
ATOM     24  C   UNL     1      34.862 -19.867 -22.695  0.00  0.00    +0.002 C 
ATOM     25  C   UNL     1      35.177 -17.096 -22.645  0.00  0.00    +0.029 C 
ATOM     26  C   UNL     1      34.377 -19.091 -23.749  0.00  0.00    +0.029 C 
ATOM     27  C   UNL     1      34.535 -17.705 -23.723  0.00  0.00    +0.140 C 
ENDBRANCH  20  22
ENDBRANCH  19  20
ENDBRANCH  11  19
TORSDOF 4
ENDMDL
MODEL 8
REMARK VINA RESULT:      -9.6      8.981     13.690
REMARK  Name = 46937054
REMARK  4 active torsions:
REMARK  status: ('A' for Active; 'I' for Inactive)
REMARK    1  A    between atoms: C_5  and  C_18
REMARK    2  A    between atoms: C_11  and  O_19
REMARK    3  A    between atoms: O_19  and  C_20
REMARK    4  A    between atoms: C_20  and  C_22
REMARK                            x       y       z     vdW  Elec       q    Type
REMARK                         _______ _______ _______ _____ _____    ______ ____
ROOT
ATOM      1 CL   UNL     1      32.119 -14.217 -19.588  0.00  0.00    -0.047 Cl
ATOM      2  O   UNL     1      34.154 -12.664 -24.718  0.00  0.00    -0.263 OA
ATOM      3  N   UNL     1      32.824 -12.116 -22.881  0.00  0.00    -0.240 N 
ATOM      4  N   UNL     1      33.671 -14.495 -21.699  0.00  0.00    -0.351 NA
ATOM      5  C   UNL     1      32.206 -10.859 -23.308  0.00  0.00    +0.161 C 
ATOM      6  C   UNL     1      31.250 -10.599 -22.179  0.00  0.00    +0.057 C 
ATOM      7  C   UNL     1      32.322 -12.524 -21.664  0.00  0.00    +0.091 C 
ATOM      8  C   UNL     1      31.346 -11.555 -21.242  0.00  0.00    -0.005 C 
ATOM      9  C   UNL     1      33.701 -12.886 -23.607  0.00  0.00    +0.320 C 
ATOM     10  C   UNL     1      32.741 -13.670 -21.109  0.00  0.00    +0.206 C 
ATOM     11  C   UNL     1      34.113 -14.134 -22.861  0.00  0.00    +0.335 C 
ENDROOT
BRANCH   5  18
ATOM     12  O   UNL     1      34.380  -9.986 -22.885  0.00  0.00    -0.273 OA
ATOM     13  N   UNL     1      32.824  -8.544 -23.802  0.00  0.00    -0.278 N 
ATOM     14  C   UNL     1      31.499  -8.222 -24.321  0.00  0.00    +0.094 C 
ATOM     15  C   UNL     1      33.705  -7.388 -23.864  0.00  0.00    +0.094 C 
ATOM     16  C   UNL     1      31.504  -6.706 -24.458  0.00  0.00    +0.023 C 
ATOM     17  C   UNL     1      32.967  -6.394 -24.746  0.00  0.00    +0.023 C 
ATOM     18  C   UNL     1      33.244  -9.767 -23.309  0.00  0.00    +0.244 C 
ENDBRANCH   5  18
BRANCH  11  19
ATOM     19  O   UNL     1      35.016 -14.864 -23.532  0.00  0.00    -0.444 OA
BRANCH  19  20
ATOM     20  C   UNL     1      34.466 -15.984 -24.214  0.00  0.00    +0.235 C 
BRANCH  20  22
ATOM     21  F   UNL     1      35.436 -20.633 -21.192  0.00  0.00    -0.204 F 
ATOM     22  C   UNL     1      34.725 -17.223 -23.408  0.00  0.00    +0.021 C 
ATOM     23  C   UNL     1      35.375 -17.132 -22.178  0.00  0.00    +0.002 C 
ATOM     24  C   UNL     1      34.315 -18.466 -23.890  0.00  0.00    +0.002 C 
ATOM     25  C   UNL     1      35.616 -18.284 -21.429  0.00  0.00    +0.029 C 
ATOM     26  C   UNL     1      34.555 -19.619 -23.141  0.00  0.00    +0.029 C 
ATOM     27  C   UNL     1      35.206 -19.527 -21.910  0.00  0.00    +0.140 C 
ENDBRANCH  20  22
ENDBRANCH  19  20
ENDBRANCH  11  19
TORSDOF 4
ENDMDL
MODEL 9
REMARK VINA RESULT:      -9.5      2.837      5.603
REMARK  Name = 46937054
REMARK  4 active torsions:
REMARK  status: ('A' for Active; 'I' for Inactive)
REMARK    1  A    between atoms: C_5  and  C_18
REMARK    2  A    between atoms: C_11  and  O_19
REMARK    3  A    between atoms: O_19  and  C_20
REMARK    4  A    between atoms: C_20  and  C_22
REMARK                            x       y       z     vdW  Elec       q    Type
REMARK                         _______ _______ _______ _____ _____    ______ ____
ROOT
ATOM      1 CL   UNL     1      35.037 -24.994 -12.553  0.00  0.00    -0.047 Cl
ATOM      2  O   UNL     1      32.101 -23.177 -17.130  0.00  0.00    -0.263 OA
ATOM      3  N   UNL     1      32.048 -24.241 -15.054  0.00  0.00    -0.240 N 
ATOM      4  N   UNL     1      34.772 -23.691 -14.828  0.00  0.00    -0.351 NA
ATOM      5  C   UNL     1      30.655 -24.683 -14.967  0.00  0.00    +0.161 C 
ATOM      6  C   UNL     1      30.677 -25.485 -13.697  0.00  0.00    +0.057 C 
ATOM      7  C   UNL     1      32.780 -24.698 -13.979  0.00  0.00    +0.091 C 
ATOM      8  C   UNL     1      31.898 -25.466 -13.141  0.00  0.00    -0.005 C 
ATOM      9  C   UNL     1      32.629 -23.564 -16.100  0.00  0.00    +0.320 C 
ATOM     10  C   UNL     1      34.088 -24.423 -13.884  0.00  0.00    +0.206 C 
ATOM     11  C   UNL     1      34.096 -23.297 -15.859  0.00  0.00    +0.335 C 
ENDROOT
BRANCH   5  18
ATOM     12  O   UNL     1      29.961 -22.722 -13.807  0.00  0.00    -0.273 OA
ATOM     13  N   UNL     1      28.742 -23.331 -15.673  0.00  0.00    -0.278 N 
ATOM     14  C   UNL     1      28.457 -24.195 -16.814  0.00  0.00    +0.094 C 
ATOM     15  C   UNL     1      27.793 -22.230 -15.601  0.00  0.00    +0.094 C 
ATOM     16  C   UNL     1      27.092 -23.736 -17.306  0.00  0.00    +0.023 C 
ATOM     17  C   UNL     1      27.078 -22.256 -16.943  0.00  0.00    +0.023 C 
ATOM     18  C   UNL     1      29.764 -23.486 -14.753  0.00  0.00    +0.244 C 
ENDBRANCH   5  18
BRANCH  11  19
ATOM     19  O   UNL     1      34.661 -22.583 -16.844  0.00  0.00    -0.444 OA
BRANCH  19  20
ATOM     20  C   UNL     1      34.346 -23.046 -18.151  0.00  0.00    +0.235 C 
BRANCH  20  22
ATOM     21  F   UNL     1      35.032 -18.826 -21.812  0.00  0.00    -0.204 F 
ATOM     22  C   UNL     1      34.529 -21.922 -19.127  0.00  0.00    +0.021 C 
ATOM     23  C   UNL     1      33.416 -21.291 -19.681  0.00  0.00    +0.002 C 
ATOM     24  C   UNL     1      35.813 -21.507 -19.480  0.00  0.00    +0.002 C 
ATOM     25  C   UNL     1      33.585 -20.246 -20.589  0.00  0.00    +0.029 C 
ATOM     26  C   UNL     1      35.983 -20.460 -20.387  0.00  0.00    +0.029 C 
ATOM     27  C   UNL     1      34.869 -19.830 -20.942  0.00  0.00    +0.140 C 
ENDBRANCH  20  22
ENDBRANCH  19  20
ENDBRANCH  11  19
TORSDOF 4
ENDMDL
