MODEL 1
REMARK VINA RESULT:     -10.7      0.000      0.000
REMARK  Name = 11488320
REMARK  6 active torsions:
REMARK  status: ('A' for Active; 'I' for Inactive)
REMARK    1  A    between atoms: N_2  and  C_15
REMARK    2  A    between atoms: C_4  and  O_23
REMARK    3  A    between atoms: C_6  and  O_21
REMARK    4  A    between atoms: O_23  and  C_25
REMARK    5  A    between atoms: N_24  and  C_31
REMARK    6  A    between atoms: C_31  and  C_34
REMARK                            x       y       z     vdW  Elec       q    Type
REMARK                         _______ _______ _______ _____ _____    ______ ____
ROOT
ATOM      1  N   UNL     1      31.838 -23.958 -12.787  0.00  0.00    -0.248 NA
ATOM      2  N   UNL     1      35.563 -24.812 -14.376  0.00  0.00    -0.296 N 
ATOM      3  N   UNL     1      34.108 -24.725 -12.530  0.00  0.00    -0.230 NA
ATOM      4  C   UNL     1      32.458 -23.335 -16.853  0.00  0.00    +0.168 C 
ATOM      5  C   UNL     1      33.495 -23.820 -16.070  0.00  0.00    +0.044 C 
ATOM      6  C   UNL     1      31.225 -23.061 -16.285  0.00  0.00    +0.156 C 
ATOM      7  C   UNL     1      33.289 -24.031 -14.695  0.00  0.00    +0.048 C 
ATOM      8  C   UNL     1      31.027 -23.274 -14.917  0.00  0.00    +0.112 C 
ATOM      9  C   UNL     1      32.046 -23.759 -14.101  0.00  0.00    +0.066 C 
ATOM     10  C   UNL     1      34.282 -24.515 -13.848  0.00  0.00    +0.131 C 
ATOM     11  C   UNL     1      32.880 -24.431 -12.073  0.00  0.00    +0.252 C 
ATOM     12  H   UNL     1      35.548 -25.097 -15.319  0.00  0.00    +0.154 HD
ENDROOT
BRANCH   2  15
ATOM     13 CL   UNL     1      40.396 -26.551 -14.403  0.00  0.00    -0.080 Cl
ATOM     14  F   UNL     1      37.606 -26.402 -15.365  0.00  0.00    -0.202 F 
ATOM     15  C   UNL     1      36.850 -24.778 -13.817  0.00  0.00    +0.078 C 
ATOM     16  C   UNL     1      37.867 -25.589 -14.329  0.00  0.00    +0.164 C 
ATOM     17  C   UNL     1      37.124 -23.930 -12.739  0.00  0.00    +0.017 C 
ATOM     18  C   UNL     1      39.143 -25.553 -13.771  0.00  0.00    +0.086 C 
ATOM     19  C   UNL     1      38.401 -23.893 -12.180  0.00  0.00    +0.002 C 
ATOM     20  C   UNL     1      39.411 -24.705 -12.696  0.00  0.00    +0.014 C 
ENDBRANCH   2  15
BRANCH   6  21
ATOM     21  O   UNL     1      30.196 -22.584 -17.041  0.00  0.00    -0.472 OA
ATOM     22  C   UNL     1      28.877 -22.777 -16.536  0.00  0.00    +0.252 C 
ENDBRANCH   6  21
BRANCH   4  23
ATOM     23  O   UNL     1      32.666 -23.129 -18.192  0.00  0.00    -0.477 OA
BRANCH  23  25
ATOM     24  N   UNL     1      34.915 -20.606 -20.660  0.00  0.00    +0.393 N 
ATOM     25  C   UNL     1      33.440 -21.993 -18.553  0.00  0.00    +0.162 C 
ATOM     26  C   UNL     1      32.737 -21.253 -19.687  0.00  0.00    +0.021 C 
ATOM     27  C   UNL     1      34.835 -22.428 -18.992  0.00  0.00    +0.021 C 
ATOM     28  C   UNL     1      33.600 -20.114 -20.228  0.00  0.00    -0.073 C 
ATOM     29  C   UNL     1      35.633 -21.252 -19.552  0.00  0.00    -0.073 C 
ATOM     30  H   UNL     1      34.764 -21.305 -21.387  0.00  0.00    -0.079 HD
BRANCH  24  31
ATOM     31  C   UNL     1      35.712 -19.513 -21.218  0.00  0.00    +0.010 C 
BRANCH  31  34
ATOM     32  O   UNL     1      34.885 -20.061 -23.420  0.00  0.00    -0.277 OA
ATOM     33  N   UNL     1      35.099 -17.828 -22.821  0.00  0.00    -0.304 N 
ATOM     34  C   UNL     1      35.197 -19.195 -22.606  0.00  0.00    +0.201 C 
ATOM     35  C   UNL     1      34.608 -17.251 -24.052  0.00  0.00    +0.111 C 
ATOM     36  H   UNL     1      35.378 -17.220 -22.098  0.00  0.00    +0.149 HD
ENDBRANCH  31  34
ENDBRANCH  24  31
ENDBRANCH  23  25
ENDBRANCH   4  23
TORSDOF 6
ENDMDL
MODEL 2
REMARK VINA RESULT:     -10.3      6.140     10.360
REMARK  Name = 11488320
REMARK  6 active torsions:
REMARK  status: ('A' for Active; 'I' for Inactive)
REMARK    1  A    between atoms: N_2  and  C_15
REMARK    2  A    between atoms: C_4  and  O_23
REMARK    3  A    between atoms: C_6  and  O_21
REMARK    4  A    between atoms: O_23  and  C_25
REMARK    5  A    between atoms: N_24  and  C_31
REMARK    6  A    between atoms: C_31  and  C_34
REMARK                            x       y       z     vdW  Elec       q    Type
REMARK                         _______ _______ _______ _____ _____    ______ ____
ROOT
ATOM      1  N   UNL     1      34.012 -18.937 -25.166  0.00  0.00    -0.248 NA
ATOM      2  N   UNL     1      35.609 -19.134 -21.353  0.00  0.00    -0.296 N 
ATOM      3  N   UNL     1      34.941 -20.204 -23.338  0.00  0.00    -0.230 NA
ATOM      4  C   UNL     1      34.416 -15.413 -22.993  0.00  0.00    +0.168 C 
ATOM      5  C   UNL     1      34.816 -16.615 -22.428  0.00  0.00    +0.044 C 
ATOM      6  C   UNL     1      33.886 -15.387 -24.273  0.00  0.00    +0.156 C 
ATOM      7  C   UNL     1      34.681 -17.808 -23.159  0.00  0.00    +0.048 C 
ATOM      8  C   UNL     1      33.755 -16.578 -24.994  0.00  0.00    +0.112 C 
ATOM      9  C   UNL     1      34.146 -17.802 -24.457  0.00  0.00    +0.066 C 
ATOM     10  C   UNL     1      35.061 -19.049 -22.657  0.00  0.00    +0.131 C 
ATOM     11  C   UNL     1      34.417 -20.076 -24.569  0.00  0.00    +0.252 C 
ATOM     12  H   UNL     1      36.101 -18.327 -21.076  0.00  0.00    +0.154 HD
ENDROOT
BRANCH   2  15
ATOM     13 CL   UNL     1      32.863 -22.411 -18.507  0.00  0.00    -0.080 Cl
ATOM     14  F   UNL     1      33.227 -20.281 -20.523  0.00  0.00    -0.202 F 
ATOM     15  C   UNL     1      35.587 -20.145 -20.380  0.00  0.00    +0.078 C 
ATOM     16  C   UNL     1      34.374 -20.710 -19.974  0.00  0.00    +0.164 C 
ATOM     17  C   UNL     1      36.781 -20.595 -19.808  0.00  0.00    +0.017 C 
ATOM     18  C   UNL     1      34.355 -21.713 -19.006  0.00  0.00    +0.086 C 
ATOM     19  C   UNL     1      36.763 -21.599 -18.840  0.00  0.00    +0.002 C 
ATOM     20  C   UNL     1      35.550 -22.159 -18.439  0.00  0.00    +0.014 C 
ENDBRANCH   2  15
BRANCH   6  21
ATOM     21  O   UNL     1      33.488 -14.214 -24.841  0.00  0.00    -0.472 OA
ATOM     22  C   UNL     1      33.498 -14.149 -26.266  0.00  0.00    +0.252 C 
ENDBRANCH   6  21
BRANCH   4  23
ATOM     23  O   UNL     1      34.549 -14.254 -22.273  0.00  0.00    -0.477 OA
BRANCH  23  25
ATOM     24  N   UNL     1      32.141 -11.271 -20.594  0.00  0.00    +0.393 N 
ATOM     25  C   UNL     1      33.351 -13.566 -21.940  0.00  0.00    +0.162 C 
ATOM     26  C   UNL     1      33.410 -12.157 -22.522  0.00  0.00    +0.021 C 
ATOM     27  C   UNL     1      33.188 -13.504 -20.424  0.00  0.00    +0.021 C 
ATOM     28  C   UNL     1      32.221 -11.314 -22.061  0.00  0.00    -0.073 C 
ATOM     29  C   UNL     1      32.006 -12.622 -20.028  0.00  0.00    -0.073 C 
ATOM     30  H   UNL     1      33.011 -10.870 -20.244  0.00  0.00    -0.079 HD
BRANCH  24  31
ATOM     31  C   UNL     1      31.028 -10.423 -20.167  0.00  0.00    +0.010 C 
BRANCH  31  34
ATOM     32  O   UNL     1      31.628  -8.989 -18.319  0.00  0.00    -0.277 OA
ATOM     33  N   UNL     1      32.068  -8.279 -20.486  0.00  0.00    -0.304 N 
ATOM     34  C   UNL     1      31.589  -9.167 -19.534  0.00  0.00    +0.201 C 
ATOM     35  C   UNL     1      32.682  -7.013 -20.151  0.00  0.00    +0.111 C 
ATOM     36  H   UNL     1      31.986  -8.522 -21.436  0.00  0.00    +0.149 HD
ENDBRANCH  31  34
ENDBRANCH  24  31
ENDBRANCH  23  25
ENDBRANCH   4  23
TORSDOF 6
ENDMDL
MODEL 3
REMARK VINA RESULT:      -9.7      3.350      5.793
REMARK  Name = 11488320
REMARK  6 active torsions:
REMARK  status: ('A' for Active; 'I' for Inactive)
REMARK    1  A    between atoms: N_2  and  C_15
REMARK    2  A    between atoms: C_4  and  O_23
REMARK    3  A    between atoms: C_6  and  O_21
REMARK    4  A    between atoms: O_23  and  C_25
REMARK    5  A    between atoms: N_24  and  C_31
REMARK    6  A    between atoms: C_31  and  C_34
REMARK                            x       y       z     vdW  Elec       q    Type
REMARK                         _______ _______ _______ _____ _____    ______ ____
ROOT
ATOM      1  N   UNL     1      35.553 -24.537 -12.139  0.00  0.00    -0.248 NA
ATOM      2  N   UNL     1      32.499 -23.587 -14.767  0.00  0.00    -0.296 N 
ATOM      3  N   UNL     1      33.207 -24.303 -12.641  0.00  0.00    -0.230 NA
ATOM      4  C   UNL     1      36.548 -23.309 -15.987  0.00  0.00    +0.168 C 
ATOM      5  C   UNL     1      35.214 -23.389 -15.618  0.00  0.00    +0.044 C 
ATOM      6  C   UNL     1      37.542 -23.635 -15.078  0.00  0.00    +0.156 C 
ATOM      7  C   UNL     1      34.873 -23.804 -14.319  0.00  0.00    +0.048 C 
ATOM      8  C   UNL     1      37.196 -24.047 -13.787  0.00  0.00    +0.112 C 
ATOM      9  C   UNL     1      35.866 -24.139 -13.385  0.00  0.00    +0.066 C 
ATOM     10  C   UNL     1      33.556 -23.908 -13.879  0.00  0.00    +0.131 C 
ATOM     11  C   UNL     1      34.240 -24.596 -11.834  0.00  0.00    +0.252 C 
ATOM     12  H   UNL     1      32.736 -22.903 -15.434  0.00  0.00    +0.154 HD
ENDROOT
BRANCH   2  15
ATOM     13 CL   UNL     1      27.861 -23.132 -16.925  0.00  0.00    -0.080 Cl
ATOM     14  F   UNL     1      30.683 -22.380 -16.477  0.00  0.00    -0.202 F 
ATOM     15  C   UNL     1      31.181 -24.055 -14.879  0.00  0.00    +0.078 C 
ATOM     16  C   UNL     1      30.279 -23.432 -15.747  0.00  0.00    +0.164 C 
ATOM     17  C   UNL     1      30.759 -25.151 -14.120  0.00  0.00    +0.017 C 
ATOM     18  C   UNL     1      28.971 -23.898 -15.855  0.00  0.00    +0.086 C 
ATOM     19  C   UNL     1      29.450 -25.619 -14.229  0.00  0.00    +0.002 C 
ATOM     20  C   UNL     1      28.555 -24.993 -15.096  0.00  0.00    +0.014 C 
ENDBRANCH   2  15
BRANCH   6  21
ATOM     21  O   UNL     1      38.858 -23.562 -15.425  0.00  0.00    -0.472 OA
ATOM     22  C   UNL     1      39.695 -24.645 -15.025  0.00  0.00    +0.252 C 
ENDBRANCH   6  21
BRANCH   4  23
ATOM     23  O   UNL     1      36.873 -22.906 -17.255  0.00  0.00    -0.477 OA
BRANCH  23  25
ATOM     24  N   UNL     1      34.634 -21.050 -20.265  0.00  0.00    +0.393 N 
ATOM     25  C   UNL     1      36.030 -21.930 -17.854  0.00  0.00    +0.162 C 
ATOM     26  C   UNL     1      34.759 -22.610 -18.352  0.00  0.00    +0.021 C 
ATOM     27  C   UNL     1      36.755 -21.253 -19.013  0.00  0.00    +0.021 C 
ATOM     28  C   UNL     1      33.885 -21.642 -19.148  0.00  0.00    -0.073 C 
ATOM     29  C   UNL     1      35.821 -20.325 -19.787  0.00  0.00    -0.073 C 
ATOM     30  H   UNL     1      34.952 -21.810 -20.867  0.00  0.00    -0.079 HD
BRANCH  24  31
ATOM     31  C   UNL     1      33.772 -20.162 -21.046  0.00  0.00    +0.010 C 
BRANCH  31  34
ATOM     32  O   UNL     1      34.999 -20.131 -23.126  0.00  0.00    -0.277 OA
ATOM     33  N   UNL     1      34.818 -18.170 -21.896  0.00  0.00    -0.304 N 
ATOM     34  C   UNL     1      34.601 -19.518 -22.139  0.00  0.00    +0.201 C 
ATOM     35  C   UNL     1      35.555 -17.311 -22.796  0.00  0.00    +0.111 C 
ATOM     36  H   UNL     1      34.453 -17.778 -21.070  0.00  0.00    +0.149 HD
ENDBRANCH  31  34
ENDBRANCH  24  31
ENDBRANCH  23  25
ENDBRANCH   4  23
TORSDOF 6
ENDMDL
MODEL 4
REMARK VINA RESULT:      -9.4     10.954     16.869
REMARK  Name = 11488320
REMARK  6 active torsions:
REMARK  status: ('A' for Active; 'I' for Inactive)
REMARK    1  A    between atoms: N_2  and  C_15
REMARK    2  A    between atoms: C_4  and  O_23
REMARK    3  A    between atoms: C_6  and  O_21
REMARK    4  A    between atoms: O_23  and  C_25
REMARK    5  A    between atoms: N_24  and  C_31
REMARK    6  A    between atoms: C_31  and  C_34
REMARK                            x       y       z     vdW  Elec       q    Type
REMARK                         _______ _______ _______ _____ _____    ______ ____
ROOT
ATOM      1  N   UNL     1      32.210  -6.120 -20.632  0.00  0.00    -0.248 NA
ATOM      2  N   UNL     1      33.385  -6.867 -24.530  0.00  0.00    -0.296 N 
ATOM      3  N   UNL     1      33.113  -5.369 -22.737  0.00  0.00    -0.230 NA
ATOM      4  C   UNL     1      31.827  -9.985 -22.120  0.00  0.00    +0.168 C 
ATOM      5  C   UNL     1      32.341  -8.987 -22.934  0.00  0.00    +0.044 C 
ATOM      6  C   UNL     1      31.444  -9.696 -20.820  0.00  0.00    +0.156 C 
ATOM      7  C   UNL     1      32.472  -7.679 -22.435  0.00  0.00    +0.048 C 
ATOM      8  C   UNL     1      31.578  -8.393 -20.330  0.00  0.00    +0.112 C 
ATOM      9  C   UNL     1      32.089  -7.367 -21.120  0.00  0.00    +0.066 C 
ATOM     10  C   UNL     1      32.979  -6.628 -23.194  0.00  0.00    +0.131 C 
ATOM     11  C   UNL     1      32.716  -5.188 -21.467  0.00  0.00    +0.252 C 
ATOM     12  H   UNL     1      33.714  -7.781 -24.687  0.00  0.00    +0.154 HD
ENDROOT
BRANCH   2  15
ATOM     13 CL   UNL     1      35.316  -5.928 -29.196  0.00  0.00    -0.080 Cl
ATOM     14  F   UNL     1      35.044  -7.443 -26.673  0.00  0.00    -0.202 F 
ATOM     15  C   UNL     1      33.410  -6.052 -25.673  0.00  0.00    +0.078 C 
ATOM     16  C   UNL     1      34.255  -6.360 -26.743  0.00  0.00    +0.164 C 
ATOM     17  C   UNL     1      32.586  -4.924 -25.748  0.00  0.00    +0.017 C 
ATOM     18  C   UNL     1      34.277  -5.549 -27.876  0.00  0.00    +0.086 C 
ATOM     19  C   UNL     1      32.608  -4.113 -26.882  0.00  0.00    +0.002 C 
ATOM     20  C   UNL     1      33.454  -4.425 -27.946  0.00  0.00    +0.014 C 
ENDBRANCH   2  15
BRANCH   6  21
ATOM     21  O   UNL     1      30.938 -10.666 -20.008  0.00  0.00    -0.472 OA
ATOM     22  C   UNL     1      31.522 -10.798 -18.714  0.00  0.00    +0.252 C 
ENDBRANCH   6  21
BRANCH   4  23
ATOM     23  O   UNL     1      31.700 -11.257 -22.614  0.00  0.00    -0.477 OA
BRANCH  23  25
ATOM     24  N   UNL     1      33.947 -14.774 -22.932  0.00  0.00    +0.393 N 
ATOM     25  C   UNL     1      32.823 -12.116 -22.469  0.00  0.00    +0.162 C 
ATOM     26  C   UNL     1      33.276 -12.579 -23.850  0.00  0.00    +0.021 C 
ATOM     27  C   UNL     1      32.453 -13.318 -21.605  0.00  0.00    +0.021 C 
ATOM     28  C   UNL     1      34.378 -13.633 -23.750  0.00  0.00    -0.073 C 
ATOM     29  C   UNL     1      33.581 -14.348 -21.573  0.00  0.00    -0.073 C 
ATOM     30  H   UNL     1      33.117 -15.176 -23.368  0.00  0.00    -0.079 HD
BRANCH  24  31
ATOM     31  C   UNL     1      34.993 -15.795 -22.884  0.00  0.00    +0.010 C 
BRANCH  31  34
ATOM     32  O   UNL     1      34.537 -16.639 -25.101  0.00  0.00    -0.277 OA
ATOM     33  N   UNL     1      34.579 -18.124 -23.316  0.00  0.00    -0.304 N 
ATOM     34  C   UNL     1      34.671 -16.870 -23.901  0.00  0.00    +0.201 C 
ATOM     35  C   UNL     1      34.310 -19.331 -24.065  0.00  0.00    +0.111 C 
ATOM     36  H   UNL     1      34.704 -18.197 -22.342  0.00  0.00    +0.149 HD
ENDBRANCH  31  34
ENDBRANCH  24  31
ENDBRANCH  23  25
ENDBRANCH   4  23
TORSDOF 6
ENDMDL
MODEL 5
REMARK VINA RESULT:      -9.4      5.735     12.134
REMARK  Name = 11488320
REMARK  6 active torsions:
REMARK  status: ('A' for Active; 'I' for Inactive)
REMARK    1  A    between atoms: N_2  and  C_15
REMARK    2  A    between atoms: C_4  and  O_23
REMARK    3  A    between atoms: C_6  and  O_21
REMARK    4  A    between atoms: O_23  and  C_25
REMARK    5  A    between atoms: N_24  and  C_31
REMARK    6  A    between atoms: C_31  and  C_34
REMARK                            x       y       z     vdW  Elec       q    Type
REMARK                         _______ _______ _______ _____ _____    ______ ____
ROOT
ATOM      1  N   UNL     1      33.812 -15.301 -25.727  0.00  0.00    -0.248 NA
ATOM      2  N   UNL     1      32.673 -13.589 -22.135  0.00  0.00    -0.296 N 
ATOM      3  N   UNL     1      32.726 -13.543 -24.486  0.00  0.00    -0.230 NA
ATOM      4  C   UNL     1      34.836 -17.233 -22.188  0.00  0.00    +0.168 C 
ATOM      5  C   UNL     1      34.127 -16.042 -22.137  0.00  0.00    +0.044 C 
ATOM      6  C   UNL     1      35.200 -17.775 -23.410  0.00  0.00    +0.156 C 
ATOM      7  C   UNL     1      33.780 -15.386 -23.331  0.00  0.00    +0.048 C 
ATOM      8  C   UNL     1      34.850 -17.117 -24.594  0.00  0.00    +0.112 C 
ATOM      9  C   UNL     1      34.139 -15.920 -24.579  0.00  0.00    +0.066 C 
ATOM     10  C   UNL     1      33.070 -14.189 -23.356  0.00  0.00    +0.131 C 
ATOM     11  C   UNL     1      33.122 -14.147 -25.619  0.00  0.00    +0.252 C 
ATOM     12  H   UNL     1      32.508 -14.236 -21.411  0.00  0.00    +0.154 HD
ENDROOT
BRANCH   2  15
ATOM     13 CL   UNL     1      31.534 -10.207 -18.441  0.00  0.00    -0.080 Cl
ATOM     14  F   UNL     1      32.022 -12.911 -19.528  0.00  0.00    -0.202 F 
ATOM     15  C   UNL     1      32.468 -12.253 -21.758  0.00  0.00    +0.078 C 
ATOM     16  C   UNL     1      32.140 -11.932 -20.438  0.00  0.00    +0.164 C 
ATOM     17  C   UNL     1      32.592 -11.230 -22.705  0.00  0.00    +0.017 C 
ATOM     18  C   UNL     1      31.937 -10.604 -20.067  0.00  0.00    +0.086 C 
ATOM     19  C   UNL     1      32.390  -9.901 -22.334  0.00  0.00    +0.002 C 
ATOM     20  C   UNL     1      32.062  -9.587 -21.015  0.00  0.00    +0.014 C 
ENDBRANCH   2  15
BRANCH   6  21
ATOM     21  O   UNL     1      35.896 -18.944 -23.477  0.00  0.00    -0.472 OA
ATOM     22  C   UNL     1      35.192 -20.091 -23.948  0.00  0.00    +0.252 C 
ENDBRANCH   6  21
BRANCH   4  23
ATOM     23  O   UNL     1      35.174 -17.865 -21.020  0.00  0.00    -0.477 OA
BRANCH  23  25
ATOM     24  N   UNL     1      34.344 -21.587 -19.295  0.00  0.00    +0.393 N 
ATOM     25  C   UNL     1      34.958 -19.269 -20.965  0.00  0.00    +0.162 C 
ATOM     26  C   UNL     1      33.556 -19.535 -20.426  0.00  0.00    +0.021 C 
ATOM     27  C   UNL     1      36.003 -19.924 -20.066  0.00  0.00    +0.021 C 
ATOM     28  C   UNL     1      33.324 -21.027 -20.191  0.00  0.00    -0.073 C 
ATOM     29  C   UNL     1      35.696 -21.404 -19.845  0.00  0.00    -0.073 C 
ATOM     30  H   UNL     1      34.295 -21.082 -18.410  0.00  0.00    -0.079 HD
BRANCH  24  31
ATOM     31  C   UNL     1      34.083 -23.004 -19.042  0.00  0.00    +0.010 C 
BRANCH  31  34
ATOM     32  O   UNL     1      34.493 -23.350 -16.687  0.00  0.00    -0.277 OA
ATOM     33  N   UNL     1      32.307 -23.074 -17.422  0.00  0.00    -0.304 N 
ATOM     34  C   UNL     1      33.681 -23.173 -17.592  0.00  0.00    +0.201 C 
ATOM     35  C   UNL     1      31.659 -23.169 -16.133  0.00  0.00    +0.111 C 
ATOM     36  H   UNL     1      31.746 -22.932 -18.218  0.00  0.00    +0.149 HD
ENDBRANCH  31  34
ENDBRANCH  24  31
ENDBRANCH  23  25
ENDBRANCH   4  23
TORSDOF 6
ENDMDL
MODEL 6
REMARK VINA RESULT:      -9.3     12.025     16.237
REMARK  Name = 11488320
REMARK  6 active torsions:
REMARK  status: ('A' for Active; 'I' for Inactive)
REMARK    1  A    between atoms: N_2  and  C_15
REMARK    2  A    between atoms: C_4  and  O_23
REMARK    3  A    between atoms: C_6  and  O_21
REMARK    4  A    between atoms: O_23  and  C_25
REMARK    5  A    between atoms: N_24  and  C_31
REMARK    6  A    between atoms: C_31  and  C_34
REMARK                            x       y       z     vdW  Elec       q    Type
REMARK                         _______ _______ _______ _____ _____    ______ ____
ROOT
ATOM      1  N   UNL     1      31.106 -10.297 -20.370  0.00  0.00    -0.248 NA
ATOM      2  N   UNL     1      32.960 -12.034 -23.637  0.00  0.00    -0.296 N 
ATOM      3  N   UNL     1      31.537 -12.209 -21.772  0.00  0.00    -0.230 NA
ATOM      4  C   UNL     1      33.583  -7.940 -22.739  0.00  0.00    +0.168 C 
ATOM      5  C   UNL     1      33.399  -9.277 -23.060  0.00  0.00    +0.044 C 
ATOM      6  C   UNL     1      32.945  -7.394 -21.637  0.00  0.00    +0.156 C 
ATOM      7  C   UNL     1      32.563 -10.077 -22.261  0.00  0.00    +0.048 C 
ATOM      8  C   UNL     1      32.114  -8.196 -20.847  0.00  0.00    +0.112 C 
ATOM      9  C   UNL     1      31.908  -9.542 -21.140  0.00  0.00    +0.066 C 
ATOM     10  C   UNL     1      32.332 -11.424 -22.523  0.00  0.00    +0.131 C 
ATOM     11  C   UNL     1      30.963 -11.590 -20.728  0.00  0.00    +0.252 C 
ATOM     12  H   UNL     1      33.127 -11.416 -24.385  0.00  0.00    +0.154 HD
ENDROOT
BRANCH   2  15
ATOM     13 CL   UNL     1      35.242 -16.290 -21.888  0.00  0.00    -0.080 Cl
ATOM     14  F   UNL     1      34.231 -13.522 -21.675  0.00  0.00    -0.202 F 
ATOM     15  C   UNL     1      33.389 -13.348 -23.881  0.00  0.00    +0.078 C 
ATOM     16  C   UNL     1      34.029 -14.082 -22.878  0.00  0.00    +0.164 C 
ATOM     17  C   UNL     1      33.178 -13.934 -25.134  0.00  0.00    +0.017 C 
ATOM     18  C   UNL     1      34.455 -15.386 -23.124  0.00  0.00    +0.086 C 
ATOM     19  C   UNL     1      33.603 -15.239 -25.380  0.00  0.00    +0.002 C 
ATOM     20  C   UNL     1      34.242 -15.965 -24.375  0.00  0.00    +0.014 C 
ENDBRANCH   2  15
BRANCH   6  21
ATOM     21  O   UNL     1      33.115  -6.083 -21.308  0.00  0.00    -0.472 OA
ATOM     22  C   UNL     1      32.023  -5.203 -21.567  0.00  0.00    +0.252 C 
ENDBRANCH   6  21
BRANCH   4  23
ATOM     23  O   UNL     1      34.401  -7.167 -23.520  0.00  0.00    -0.477 OA
BRANCH  23  25
ATOM     24  N   UNL     1      34.267  -5.142 -27.180  0.00  0.00    +0.393 N 
ATOM     25  C   UNL     1      33.903  -6.795 -24.799  0.00  0.00    +0.162 C 
ATOM     26  C   UNL     1      34.960  -7.108 -25.853  0.00  0.00    +0.021 C 
ATOM     27  C   UNL     1      33.565  -5.308 -24.816  0.00  0.00    +0.021 C 
ATOM     28  C   UNL     1      34.548  -6.583 -27.228  0.00  0.00    -0.073 C 
ATOM     29  C   UNL     1      33.194  -4.839 -26.222  0.00  0.00    -0.073 C 
ATOM     30  H   UNL     1      35.113  -4.667 -26.864  0.00  0.00    -0.079 HD
BRANCH  24  31
ATOM     31  C   UNL     1      33.920  -4.643 -28.511  0.00  0.00    +0.010 C 
BRANCH  31  34
ATOM     32  O   UNL     1      33.973  -2.289 -29.050  0.00  0.00    -0.277 OA
ATOM     33  N   UNL     1      35.950  -3.355 -28.457  0.00  0.00    -0.304 N 
ATOM     34  C   UNL     1      34.588  -3.300 -28.717  0.00  0.00    +0.201 C 
ATOM     35  C   UNL     1      36.822  -2.205 -28.550  0.00  0.00    +0.111 C 
ATOM     36  H   UNL     1      36.342  -4.220 -28.197  0.00  0.00    +0.149 HD
ENDBRANCH  31  34
ENDBRANCH  24  31
ENDBRANCH  23  25
ENDBRANCH   4  23
TORSDOF 6
ENDMDL
MODEL 7
REMARK VINA RESULT:      -8.8      9.447     15.340
REMARK  Name = 11488320
REMARK  6 active torsions:
REMARK  status: ('A' for Active; 'I' for Inactive)
REMARK    1  A    between atoms: N_2  and  C_15
REMARK    2  A    between atoms: C_4  and  O_23
REMARK    3  A    between atoms: C_6  and  O_21
REMARK    4  A    between atoms: O_23  and  C_25
REMARK    5  A    between atoms: N_24  and  C_31
REMARK    6  A    between atoms: C_31  and  C_34
REMARK                            x       y       z     vdW  Elec       q    Type
REMARK                         _______ _______ _______ _____ _____    ______ ____
ROOT
ATOM      1  N   UNL     1      32.142  -9.070 -19.595  0.00  0.00    -0.248 NA
ATOM      2  N   UNL     1      33.422  -8.116 -23.413  0.00  0.00    -0.296 N 
ATOM      3  N   UNL     1      32.947  -7.466 -21.203  0.00  0.00    -0.230 NA
ATOM      4  C   UNL     1      32.276 -12.083 -22.460  0.00  0.00    +0.168 C 
ATOM      5  C   UNL     1      32.658 -10.794 -22.804  0.00  0.00    +0.044 C 
ATOM      6  C   UNL     1      31.853 -12.363 -21.171  0.00  0.00    +0.156 C 
ATOM      7  C   UNL     1      32.613  -9.773 -21.838  0.00  0.00    +0.048 C 
ATOM      8  C   UNL     1      31.812 -11.343 -20.215  0.00  0.00    +0.112 C 
ATOM      9  C   UNL     1      32.188 -10.038 -20.527  0.00  0.00    +0.066 C 
ATOM     10  C   UNL     1      32.982  -8.459 -22.111  0.00  0.00    +0.131 C 
ATOM     11  C   UNL     1      32.525  -7.836 -19.983  0.00  0.00    +0.252 C 
ATOM     12  H   UNL     1      33.868  -8.853 -23.888  0.00  0.00    +0.154 HD
ENDROOT
BRANCH   2  15
ATOM     13 CL   UNL     1      35.792  -4.612 -26.328  0.00  0.00    -0.080 Cl
ATOM     14  F   UNL     1      35.644  -7.075 -24.701  0.00  0.00    -0.202 F 
ATOM     15  C   UNL     1      33.344  -6.928 -24.157  0.00  0.00    +0.078 C 
ATOM     16  C   UNL     1      34.477  -6.419 -24.799  0.00  0.00    +0.164 C 
ATOM     17  C   UNL     1      32.129  -6.244 -24.262  0.00  0.00    +0.017 C 
ATOM     18  C   UNL     1      34.397  -5.239 -25.536  0.00  0.00    +0.086 C 
ATOM     19  C   UNL     1      32.048  -5.064 -25.000  0.00  0.00    +0.002 C 
ATOM     20  C   UNL     1      33.182  -4.560 -25.637  0.00  0.00    +0.014 C 
ENDBRANCH   2  15
BRANCH   6  21
ATOM     21  O   UNL     1      31.474 -13.624 -20.817  0.00  0.00    -0.472 OA
ATOM     22  C   UNL     1      32.133 -14.207 -19.696  0.00  0.00    +0.252 C 
ENDBRANCH   6  21
BRANCH   4  23
ATOM     23  O   UNL     1      32.319 -13.072 -23.407  0.00  0.00    -0.477 OA
BRANCH  23  25
ATOM     24  N   UNL     1      34.607 -16.557 -23.036  0.00  0.00    +0.393 N 
ATOM     25  C   UNL     1      33.482 -13.888 -23.429  0.00  0.00    +0.162 C 
ATOM     26  C   UNL     1      33.280 -15.013 -24.439  0.00  0.00    +0.021 C 
ATOM     27  C   UNL     1      33.742 -14.466 -22.041  0.00  0.00    +0.021 C 
ATOM     28  C   UNL     1      34.431 -16.018 -24.391  0.00  0.00    -0.073 C 
ATOM     29  C   UNL     1      34.879 -15.485 -22.067  0.00  0.00    -0.073 C 
ATOM     30  H   UNL     1      33.735 -17.011 -22.764  0.00  0.00    -0.079 HD
BRANCH  24  31
ATOM     31  C   UNL     1      35.680 -17.550 -23.015  0.00  0.00    +0.010 C 
BRANCH  31  34
ATOM     32  O   UNL     1      34.774 -19.744 -23.463  0.00  0.00    -0.277 OA
ATOM     33  N   UNL     1      34.991 -19.043 -21.260  0.00  0.00    -0.304 N 
ATOM     34  C   UNL     1      35.092 -18.894 -22.635  0.00  0.00    +0.201 C 
ATOM     35  C   UNL     1      34.489 -20.242 -20.627  0.00  0.00    +0.111 C 
ATOM     36  H   UNL     1      35.275 -18.295 -20.686  0.00  0.00    +0.149 HD
ENDBRANCH  31  34
ENDBRANCH  24  31
ENDBRANCH  23  25
ENDBRANCH   4  23
TORSDOF 6
ENDMDL
MODEL 8
REMARK VINA RESULT:      -8.7     11.575     15.699
REMARK  Name = 11488320
REMARK  6 active torsions:
REMARK  status: ('A' for Active; 'I' for Inactive)
REMARK    1  A    between atoms: N_2  and  C_15
REMARK    2  A    between atoms: C_4  and  O_23
REMARK    3  A    between atoms: C_6  and  O_21
REMARK    4  A    between atoms: O_23  and  C_25
REMARK    5  A    between atoms: N_24  and  C_31
REMARK    6  A    between atoms: C_31  and  C_34
REMARK                            x       y       z     vdW  Elec       q    Type
REMARK                         _______ _______ _______ _____ _____    ______ ____
ROOT
ATOM      1  N   UNL     1      31.698  -9.255 -18.793  0.00  0.00    -0.248 NA
ATOM      2  N   UNL     1      32.275 -11.936 -21.892  0.00  0.00    -0.296 N 
ATOM      3  N   UNL     1      32.102 -11.494 -19.589  0.00  0.00    -0.230 NA
ATOM      4  C   UNL     1      31.633  -7.826 -22.699  0.00  0.00    +0.168 C 
ATOM      5  C   UNL     1      31.846  -9.177 -22.469  0.00  0.00    +0.044 C 
ATOM      6  C   UNL     1      31.444  -6.959 -21.635  0.00  0.00    +0.156 C 
ATOM      7  C   UNL     1      31.869  -9.664 -21.150  0.00  0.00    +0.048 C 
ATOM      8  C   UNL     1      31.467  -7.450 -20.326  0.00  0.00    +0.112 C 
ATOM      9  C   UNL     1      31.679  -8.800 -20.059  0.00  0.00    +0.066 C 
ATOM     10  C   UNL     1      32.076 -11.006 -20.843  0.00  0.00    +0.131 C 
ATOM     11  C   UNL     1      31.908 -10.577 -18.627  0.00  0.00    +0.252 C 
ATOM     12  H   UNL     1      31.816 -11.695 -22.729  0.00  0.00    +0.154 HD
ENDROOT
BRANCH   2  15
ATOM     13 CL   UNL     1      34.251 -15.677 -24.806  0.00  0.00    -0.080 Cl
ATOM     14  F   UNL     1      32.768 -13.167 -24.326  0.00  0.00    -0.202 F 
ATOM     15  C   UNL     1      33.001 -13.135 -21.970  0.00  0.00    +0.078 C 
ATOM     16  C   UNL     1      33.238 -13.741 -23.208  0.00  0.00    +0.164 C 
ATOM     17  C   UNL     1      33.493 -13.734 -20.806  0.00  0.00    +0.017 C 
ATOM     18  C   UNL     1      33.958 -14.932 -23.282  0.00  0.00    +0.086 C 
ATOM     19  C   UNL     1      34.214 -14.925 -20.879  0.00  0.00    +0.002 C 
ATOM     20  C   UNL     1      34.447 -15.525 -22.117  0.00  0.00    +0.014 C 
ENDBRANCH   2  15
BRANCH   6  21
ATOM     21  O   UNL     1      31.234  -5.629 -21.845  0.00  0.00    -0.472 OA
ATOM     22  C   UNL     1      32.248  -4.734 -21.393  0.00  0.00    +0.252 C 
ENDBRANCH   6  21
BRANCH   4  23
ATOM     23  O   UNL     1      31.615  -7.358 -23.987  0.00  0.00    -0.477 OA
BRANCH  23  25
ATOM     24  N   UNL     1      34.296  -5.693 -26.735  0.00  0.00    +0.393 N 
ATOM     25  C   UNL     1      32.781  -6.686 -24.442  0.00  0.00    +0.162 C 
ATOM     26  C   UNL     1      32.366  -5.437 -25.213  0.00  0.00    +0.021 C 
ATOM     27  C   UNL     1      33.602  -7.609 -25.337  0.00  0.00    +0.021 C 
ATOM     28  C   UNL     1      33.570  -4.758 -25.865  0.00  0.00    -0.073 C 
ATOM     29  C   UNL     1      34.769  -6.865 -25.983  0.00  0.00    -0.073 C 
ATOM     30  H   UNL     1      33.649  -6.020 -27.453  0.00  0.00    -0.079 HD
BRANCH  24  31
ATOM     31  C   UNL     1      35.418  -5.018 -27.388  0.00  0.00    +0.010 C 
BRANCH  31  34
ATOM     32  O   UNL     1      35.165  -6.280 -29.432  0.00  0.00    -0.277 OA
ATOM     33  N   UNL     1      37.266  -6.126 -28.456  0.00  0.00    -0.304 N 
ATOM     34  C   UNL     1      35.903  -5.880 -28.535  0.00  0.00    +0.201 C 
ATOM     35  C   UNL     1      37.991  -6.899 -29.439  0.00  0.00    +0.111 C 
ATOM     36  H   UNL     1      37.765  -5.757 -27.691  0.00  0.00    +0.149 HD
ENDBRANCH  31  34
ENDBRANCH  24  31
ENDBRANCH  23  25
ENDBRANCH   4  23
TORSDOF 6
ENDMDL
MODEL 9
REMARK VINA RESULT:      -8.5      6.367     12.851
REMARK  Name = 11488320
REMARK  6 active torsions:
REMARK  status: ('A' for Active; 'I' for Inactive)
REMARK    1  A    between atoms: N_2  and  C_15
REMARK    2  A    between atoms: C_4  and  O_23
REMARK    3  A    between atoms: C_6  and  O_21
REMARK    4  A    between atoms: O_23  and  C_25
REMARK    5  A    between atoms: N_24  and  C_31
REMARK    6  A    between atoms: C_31  and  C_34
REMARK                            x       y       z     vdW  Elec       q    Type
REMARK                         _______ _______ _______ _____ _____    ______ ____
ROOT
ATOM      1  N   UNL     1      33.467 -15.036 -26.223  0.00  0.00    -0.248 NA
ATOM      2  N   UNL     1      33.038 -12.699 -22.834  0.00  0.00    -0.296 N 
ATOM      3  N   UNL     1      32.765 -12.995 -25.151  0.00  0.00    -0.230 NA
ATOM      4  C   UNL     1      34.761 -16.562 -22.576  0.00  0.00    +0.168 C 
ATOM      5  C   UNL     1      34.201 -15.294 -22.627  0.00  0.00    +0.044 C 
ATOM      6  C   UNL     1      34.888 -17.314 -23.732  0.00  0.00    +0.156 C 
ATOM      7  C   UNL     1      33.763 -14.775 -23.857  0.00  0.00    +0.048 C 
ATOM      8  C   UNL     1      34.449 -16.792 -24.953  0.00  0.00    +0.112 C 
ATOM      9  C   UNL     1      33.883 -15.522 -25.040  0.00  0.00    +0.066 C 
ATOM     10  C   UNL     1      33.191 -13.512 -23.984  0.00  0.00    +0.131 C 
ATOM     11  C   UNL     1      32.929 -13.799 -26.214  0.00  0.00    +0.252 C 
ATOM     12  H   UNL     1      32.907 -13.209 -22.002  0.00  0.00    +0.154 HD
ENDROOT
BRANCH   2  15
ATOM     13 CL   UNL     1      35.267  -8.161 -23.737  0.00  0.00    -0.080 Cl
ATOM     14  F   UNL     1      35.005 -11.097 -23.947  0.00  0.00    -0.202 F 
ATOM     15  C   UNL     1      33.035 -11.307 -22.650  0.00  0.00    +0.078 C 
ATOM     16  C   UNL     1      34.038 -10.517 -23.219  0.00  0.00    +0.164 C 
ATOM     17  C   UNL     1      32.027 -10.702 -21.894  0.00  0.00    +0.017 C 
ATOM     18  C   UNL     1      34.033  -9.135 -23.035  0.00  0.00    +0.086 C 
ATOM     19  C   UNL     1      32.022  -9.319 -21.710  0.00  0.00    +0.002 C 
ATOM     20  C   UNL     1      33.025  -8.535 -22.280  0.00  0.00    +0.014 C 
ENDBRANCH   2  15
BRANCH   6  21
ATOM     21  O   UNL     1      35.436 -18.562 -23.699  0.00  0.00    -0.472 OA
ATOM     22  C   UNL     1      34.628 -19.637 -24.170  0.00  0.00    +0.252 C 
ENDBRANCH   6  21
BRANCH   4  23
ATOM     23  O   UNL     1      35.189 -17.060 -21.373  0.00  0.00    -0.477 OA
BRANCH  23  25
ATOM     24  N   UNL     1      35.539 -20.812 -19.552  0.00  0.00    +0.393 N 
ATOM     25  C   UNL     1      35.364 -18.468 -21.288  0.00  0.00    +0.162 C 
ATOM     26  C   UNL     1      34.136 -19.083 -20.625  0.00  0.00    +0.021 C 
ATOM     27  C   UNL     1      36.618 -18.791 -20.480  0.00  0.00    +0.021 C 
ATOM     28  C   UNL     1      34.335 -20.575 -20.360  0.00  0.00    -0.073 C 
ATOM     29  C   UNL     1      36.741 -20.291 -20.221  0.00  0.00    -0.073 C 
ATOM     30  H   UNL     1      35.429 -20.312 -18.670  0.00  0.00    -0.079 HD
BRANCH  24  31
ATOM     31  C   UNL     1      35.691 -22.239 -19.267  0.00  0.00    +0.010 C 
BRANCH  31  34
ATOM     32  O   UNL     1      34.671 -22.887 -17.175  0.00  0.00    -0.277 OA
ATOM     33  N   UNL     1      36.853 -22.092 -17.166  0.00  0.00    -0.304 N 
ATOM     34  C   UNL     1      35.652 -22.441 -17.766  0.00  0.00    +0.201 C 
ATOM     35  C   UNL     1      37.096 -22.215 -15.746  0.00  0.00    +0.111 C 
ATOM     36  H   UNL     1      37.577 -21.744 -17.736  0.00  0.00    +0.149 HD
ENDBRANCH  31  34
ENDBRANCH  24  31
ENDBRANCH  23  25
ENDBRANCH   4  23
TORSDOF 6
ENDMDL
