MODEL 1
REMARK VINA RESULT:     -13.0      0.000      0.000
REMARK  Name = 448889
REMARK  5 active torsions:
REMARK  status: ('A' for Active; 'I' for Inactive)
REMARK    1  A    between atoms: C_1  and  N_2
REMARK    2  A    between atoms: C_1  and  C_16
REMARK    3  A    between atoms: C_6  and  C_10
REMARK    4  A    between atoms: C_16  and  C_17
REMARK    5  A    between atoms: C_17  and  C_21
REMARK                            x       y       z     vdW  Elec       q    Type
REMARK                         _______ _______ _______ _____ _____    ______ ____
ROOT
ATOM      1  C   UNL     1      34.971 -16.127 -24.657  0.00  0.00    -0.076 C 
ENDROOT
BRANCH   1   2
ATOM      2  N   UNL     1      35.162 -17.239 -23.728  0.00  0.00    +0.390 N 
ATOM      3  C   UNL     1      34.154 -18.283 -23.940  0.00  0.00    -0.072 C 
ATOM      4  C   UNL     1      34.480 -19.506 -23.069  0.00  0.00    +0.003 C 
ATOM      5  C   UNL     1      35.134 -16.765 -22.336  0.00  0.00    -0.051 C 
ATOM      6  C   UNL     1      34.786 -19.144 -21.633  0.00  0.00    -0.031 C 
ATOM      7  C   UNL     1      35.084 -17.869 -21.314  0.00  0.00    -0.053 C 
ATOM      8  H   UNL     1      36.079 -17.645 -23.911  0.00  0.00    -0.079 HD
BRANCH   6  10
ATOM      9  F   UNL     1      34.659 -23.220 -17.774  0.00  0.00    -0.204 F 
ATOM     10  C   UNL     1      34.753 -20.220 -20.614  0.00  0.00    -0.004 C 
ATOM     11  C   UNL     1      35.945 -20.744 -20.108  0.00  0.00    +0.002 C 
ATOM     12  C   UNL     1      33.529 -20.713 -20.156  0.00  0.00    +0.002 C 
ATOM     13  C   UNL     1      35.913 -21.756 -19.148  0.00  0.00    +0.030 C 
ATOM     14  C   UNL     1      33.498 -21.725 -19.196  0.00  0.00    +0.030 C 
ATOM     15  C   UNL     1      34.689 -22.247 -18.693  0.00  0.00    +0.140 C 
ENDBRANCH   6  10
ENDBRANCH   1   2
BRANCH   1  16
ATOM     16  C   UNL     1      33.592 -15.495 -24.449  0.00  0.00    -0.014 C 
BRANCH  16  17
ATOM     17  C   UNL     1      33.615 -13.983 -24.599  0.00  0.00    +0.074 C 
BRANCH  17  21
ATOM     18  O   UNL     1      32.104 -14.161 -20.154  0.00  0.00    -0.209 OA
ATOM     19  N   UNL     1      32.889 -11.961 -23.412  0.00  0.00    -0.290 N 
ATOM     20  N   UNL     1      32.842 -14.080 -22.322  0.00  0.00    -0.322 NA
ATOM     21  C   UNL     1      33.081 -13.321 -23.352  0.00  0.00    +0.173 C 
ATOM     22  C   UNL     1      32.397 -11.295 -22.288  0.00  0.00    +0.058 C 
ATOM     23  C   UNL     1      32.113 -12.035 -21.132  0.00  0.00    +0.108 C 
ATOM     24  C   UNL     1      32.182  -9.914 -22.286  0.00  0.00    -0.008 C 
ATOM     25  C   UNL     1      32.353 -13.507 -21.161  0.00  0.00    +0.207 C 
ATOM     26  C   UNL     1      31.620 -11.406 -19.986  0.00  0.00    +0.014 C 
ATOM     27  C   UNL     1      31.690  -9.283 -21.142  0.00  0.00    -0.003 C 
ATOM     28  C   UNL     1      31.409 -10.028 -19.997  0.00  0.00    +0.001 C 
ATOM     29  C   UNL     1      32.469  -9.078 -23.491  0.00  0.00    +0.032 C 
ATOM     30  H   UNL     1      33.096 -11.464 -24.236  0.00  0.00    +0.154 HD
ENDBRANCH  17  21
ENDBRANCH  16  17
ENDBRANCH   1  16
TORSDOF 5
ENDMDL
MODEL 2
REMARK VINA RESULT:     -12.3      1.263      2.335
REMARK  Name = 448889
REMARK  5 active torsions:
REMARK  status: ('A' for Active; 'I' for Inactive)
REMARK    1  A    between atoms: C_1  and  N_2
REMARK    2  A    between atoms: C_1  and  C_16
REMARK    3  A    between atoms: C_6  and  C_10
REMARK    4  A    between atoms: C_16  and  C_17
REMARK    5  A    between atoms: C_17  and  C_21
REMARK                            x       y       z     vdW  Elec       q    Type
REMARK                         _______ _______ _______ _____ _____    ______ ____
ROOT
ATOM      1  C   UNL     1      34.976 -16.013 -24.616  0.00  0.00    -0.076 C 
ENDROOT
BRANCH   1   2
ATOM      2  N   UNL     1      35.174 -17.129 -23.695  0.00  0.00    +0.390 N 
ATOM      3  C   UNL     1      34.223 -18.212 -23.963  0.00  0.00    -0.072 C 
ATOM      4  C   UNL     1      34.564 -19.433 -23.095  0.00  0.00    +0.003 C 
ATOM      5  C   UNL     1      35.067 -16.678 -22.298  0.00  0.00    -0.051 C 
ATOM      6  C   UNL     1      34.792 -19.080 -21.642  0.00  0.00    -0.031 C 
ATOM      7  C   UNL     1      35.021 -17.799 -21.295  0.00  0.00    -0.053 C 
ATOM      8  H   UNL     1      36.115 -17.494 -23.843  0.00  0.00    -0.079 HD
BRANCH   6  10
ATOM      9  F   UNL     1      34.682 -23.212 -17.843  0.00  0.00    -0.204 F 
ATOM     10  C   UNL     1      34.762 -20.171 -20.640  0.00  0.00    -0.004 C 
ATOM     11  C   UNL     1      33.541 -20.649 -20.160  0.00  0.00    +0.002 C 
ATOM     12  C   UNL     1      35.956 -20.725 -20.172  0.00  0.00    +0.002 C 
ATOM     13  C   UNL     1      33.513 -21.677 -19.216  0.00  0.00    +0.030 C 
ATOM     14  C   UNL     1      35.928 -21.752 -19.229  0.00  0.00    +0.030 C 
ATOM     15  C   UNL     1      34.708 -22.227 -18.750  0.00  0.00    +0.140 C 
ENDBRANCH   6  10
ENDBRANCH   1   2
BRANCH   1  16
ATOM     16  C   UNL     1      33.677 -15.275 -24.280  0.00  0.00    -0.014 C 
BRANCH  16  17
ATOM     17  C   UNL     1      33.610 -13.895 -24.915  0.00  0.00    +0.074 C 
BRANCH  17  21
ATOM     18  O   UNL     1      32.465  -9.498 -23.720  0.00  0.00    -0.209 OA
ATOM     19  N   UNL     1      32.904 -13.332 -22.633  0.00  0.00    -0.290 N 
ATOM     20  N   UNL     1      33.025 -11.641 -24.309  0.00  0.00    -0.322 NA
ATOM     21  C   UNL     1      33.151 -12.872 -23.906  0.00  0.00    +0.173 C 
ATOM     22  C   UNL     1      32.476 -12.431 -21.657  0.00  0.00    +0.058 C 
ATOM     23  C   UNL     1      32.312 -11.083 -22.005  0.00  0.00    +0.108 C 
ATOM     24  C   UNL     1      32.207 -12.837 -20.347  0.00  0.00    -0.008 C 
ATOM     25  C   UNL     1      32.604 -10.677 -23.410  0.00  0.00    +0.207 C 
ATOM     26  C   UNL     1      31.884 -10.149 -21.057  0.00  0.00    +0.014 C 
ATOM     27  C   UNL     1      31.780 -11.906 -19.398  0.00  0.00    -0.003 C 
ATOM     28  C   UNL     1      31.620 -10.566 -19.753  0.00  0.00    +0.001 C 
ATOM     29  C   UNL     1      32.366 -14.261 -19.924  0.00  0.00    +0.032 C 
ATOM     30  H   UNL     1      33.027 -14.284 -22.415  0.00  0.00    +0.154 HD
ENDBRANCH  17  21
ENDBRANCH  16  17
ENDBRANCH   1  16
TORSDOF 5
ENDMDL
MODEL 3
REMARK VINA RESULT:     -11.9      3.948      9.914
REMARK  Name = 448889
REMARK  5 active torsions:
REMARK  status: ('A' for Active; 'I' for Inactive)
REMARK    1  A    between atoms: C_1  and  N_2
REMARK    2  A    between atoms: C_1  and  C_16
REMARK    3  A    between atoms: C_6  and  C_10
REMARK    4  A    between atoms: C_16  and  C_17
REMARK    5  A    between atoms: C_17  and  C_21
REMARK                            x       y       z     vdW  Elec       q    Type
REMARK                         _______ _______ _______ _____ _____    ______ ____
ROOT
ATOM      1  C   UNL     1      36.264 -18.353 -22.300  0.00  0.00    -0.076 C 
ENDROOT
BRANCH   1   2
ATOM      2  N   UNL     1      35.736 -16.992 -22.237  0.00  0.00    +0.390 N 
ATOM      3  C   UNL     1      34.968 -16.779 -21.007  0.00  0.00    -0.072 C 
ATOM      4  C   UNL     1      34.570 -15.300 -20.890  0.00  0.00    +0.003 C 
ATOM      5  C   UNL     1      34.914 -16.697 -23.421  0.00  0.00    -0.051 C 
ATOM      6  C   UNL     1      33.973 -14.746 -22.164  0.00  0.00    -0.031 C 
ATOM      7  C   UNL     1      34.141 -15.409 -23.325  0.00  0.00    -0.053 C 
ATOM      8  H   UNL     1      36.529 -16.350 -22.228  0.00  0.00    -0.079 HD
BRANCH   6  10
ATOM      9  F   UNL     1      31.114  -9.921 -21.886  0.00  0.00    -0.204 F 
ATOM     10  C   UNL     1      33.218 -13.472 -22.092  0.00  0.00    -0.004 C 
ATOM     11  C   UNL     1      33.386 -12.500 -23.080  0.00  0.00    +0.002 C 
ATOM     12  C   UNL     1      32.336 -13.241 -21.034  0.00  0.00    +0.002 C 
ATOM     13  C   UNL     1      32.675 -11.301 -23.012  0.00  0.00    +0.030 C 
ATOM     14  C   UNL     1      31.625 -12.042 -20.966  0.00  0.00    +0.030 C 
ATOM     15  C   UNL     1      31.795 -11.072 -21.953  0.00  0.00    +0.140 C 
ENDBRANCH   6  10
ENDBRANCH   1   2
BRANCH   1  16
ATOM     16  C   UNL     1      35.531 -19.251 -21.300  0.00  0.00    -0.014 C 
BRANCH  16  17
ATOM     17  C   UNL     1      36.482 -20.109 -20.481  0.00  0.00    +0.074 C 
BRANCH  17  21
ATOM     18  O   UNL     1      32.617 -22.513 -19.317  0.00  0.00    -0.209 OA
ATOM     19  N   UNL     1      36.357 -21.398 -18.397  0.00  0.00    -0.290 N 
ATOM     20  N   UNL     1      34.499 -21.338 -19.890  0.00  0.00    -0.322 NA
ATOM     21  C   UNL     1      35.710 -21.006 -19.546  0.00  0.00    +0.173 C 
ATOM     22  C   UNL     1      35.691 -22.229 -17.494  0.00  0.00    +0.058 C 
ATOM     23  C   UNL     1      34.383 -22.638 -17.786  0.00  0.00    +0.108 C 
ATOM     24  C   UNL     1      36.295 -22.664 -16.310  0.00  0.00    -0.008 C 
ATOM     25  C   UNL     1      33.763 -22.161 -19.056  0.00  0.00    +0.207 C 
ATOM     26  C   UNL     1      33.682 -23.471 -16.909  0.00  0.00    +0.014 C 
ATOM     27  C   UNL     1      35.598 -23.495 -15.432  0.00  0.00    -0.003 C 
ATOM     28  C   UNL     1      34.295 -23.896 -15.730  0.00  0.00    +0.001 C 
ATOM     29  C   UNL     1      37.688 -22.258 -15.951  0.00  0.00    +0.032 C 
ATOM     30  H   UNL     1      37.276 -21.098 -18.215  0.00  0.00    +0.154 HD
ENDBRANCH  17  21
ENDBRANCH  16  17
ENDBRANCH   1  16
TORSDOF 5
ENDMDL
MODEL 4
REMARK VINA RESULT:     -11.9      4.885     10.491
REMARK  Name = 448889
REMARK  5 active torsions:
REMARK  status: ('A' for Active; 'I' for Inactive)
REMARK    1  A    between atoms: C_1  and  N_2
REMARK    2  A    between atoms: C_1  and  C_16
REMARK    3  A    between atoms: C_6  and  C_10
REMARK    4  A    between atoms: C_16  and  C_17
REMARK    5  A    between atoms: C_17  and  C_21
REMARK                            x       y       z     vdW  Elec       q    Type
REMARK                         _______ _______ _______ _____ _____    ______ ____
ROOT
ATOM      1  C   UNL     1      36.481 -21.573 -19.318  0.00  0.00    -0.076 C 
ENDROOT
BRANCH   1   2
ATOM      2  N   UNL     1      35.967 -20.361 -19.952  0.00  0.00    +0.390 N 
ATOM      3  C   UNL     1      34.970 -20.683 -20.978  0.00  0.00    -0.072 C 
ATOM      4  C   UNL     1      34.330 -19.391 -21.507  0.00  0.00    +0.003 C 
ATOM      5  C   UNL     1      37.066 -19.569 -20.527  0.00  0.00    -0.051 C 
ATOM      6  C   UNL     1      35.347 -18.330 -21.864  0.00  0.00    -0.031 C 
ATOM      7  C   UNL     1      36.609 -18.433 -21.402  0.00  0.00    -0.053 C 
ATOM      8  H   UNL     1      35.509 -19.801 -19.233  0.00  0.00    -0.079 HD
BRANCH   6  10
ATOM      9  F   UNL     1      33.702 -14.040 -25.090  0.00  0.00    -0.204 F 
ATOM     10  C   UNL     1      34.914 -17.197 -22.715  0.00  0.00    -0.004 C 
ATOM     11  C   UNL     1      34.905 -15.898 -22.203  0.00  0.00    +0.002 C 
ATOM     12  C   UNL     1      34.512 -17.426 -24.033  0.00  0.00    +0.002 C 
ATOM     13  C   UNL     1      34.497 -14.831 -23.005  0.00  0.00    +0.030 C 
ATOM     14  C   UNL     1      34.104 -16.359 -24.834  0.00  0.00    +0.030 C 
ATOM     15  C   UNL     1      34.095 -15.063 -24.321  0.00  0.00    +0.140 C 
ENDBRANCH   6  10
ENDBRANCH   1   2
BRANCH   1  16
ATOM     16  C   UNL     1      35.553 -22.008 -18.180  0.00  0.00    -0.014 C 
BRANCH  16  17
ATOM     17  C   UNL     1      34.328 -22.757 -18.681  0.00  0.00    +0.074 C 
BRANCH  17  21
ATOM     18  O   UNL     1      30.034 -22.630 -16.780  0.00  0.00    -0.209 OA
ATOM     19  N   UNL     1      33.906 -23.602 -16.416  0.00  0.00    -0.290 N 
ATOM     20  N   UNL     1      32.126 -22.689 -17.712  0.00  0.00    -0.322 NA
ATOM     21  C   UNL     1      33.373 -23.024 -17.544  0.00  0.00    +0.173 C 
ATOM     22  C   UNL     1      33.069 -23.873 -15.332  0.00  0.00    +0.058 C 
ATOM     23  C   UNL     1      31.709 -23.546 -15.427  0.00  0.00    +0.108 C 
ATOM     24  C   UNL     1      33.550 -24.461 -14.159  0.00  0.00    -0.008 C 
ATOM     25  C   UNL     1      31.222 -22.921 -16.691  0.00  0.00    +0.207 C 
ATOM     26  C   UNL     1      30.838 -23.801 -14.365  0.00  0.00    +0.014 C 
ATOM     27  C   UNL     1      32.682 -24.717 -13.096  0.00  0.00    -0.003 C 
ATOM     28  C   UNL     1      31.331 -24.387 -13.199  0.00  0.00    +0.001 C 
ATOM     29  C   UNL     1      34.990 -24.829 -14.005  0.00  0.00    +0.032 C 
ATOM     30  H   UNL     1      34.864 -23.822 -16.374  0.00  0.00    +0.154 HD
ENDBRANCH  17  21
ENDBRANCH  16  17
ENDBRANCH   1  16
TORSDOF 5
ENDMDL
MODEL 5
REMARK VINA RESULT:     -11.9      5.337     10.699
REMARK  Name = 448889
REMARK  5 active torsions:
REMARK  status: ('A' for Active; 'I' for Inactive)
REMARK    1  A    between atoms: C_1  and  N_2
REMARK    2  A    between atoms: C_1  and  C_16
REMARK    3  A    between atoms: C_6  and  C_10
REMARK    4  A    between atoms: C_16  and  C_17
REMARK    5  A    between atoms: C_17  and  C_21
REMARK                            x       y       z     vdW  Elec       q    Type
REMARK                         _______ _______ _______ _____ _____    ______ ____
ROOT
ATOM      1  C   UNL     1      36.439 -21.739 -19.244  0.00  0.00    -0.076 C 
ENDROOT
BRANCH   1   2
ATOM      2  N   UNL     1      35.947 -20.509 -19.860  0.00  0.00    +0.390 N 
ATOM      3  C   UNL     1      34.953 -20.799 -20.898  0.00  0.00    -0.072 C 
ATOM      4  C   UNL     1      34.333 -19.488 -21.407  0.00  0.00    +0.003 C 
ATOM      5  C   UNL     1      37.060 -19.721 -20.411  0.00  0.00    -0.051 C 
ATOM      6  C   UNL     1      35.367 -18.435 -21.737  0.00  0.00    -0.031 C 
ATOM      7  C   UNL     1      36.624 -18.563 -21.268  0.00  0.00    -0.053 C 
ATOM      8  H   UNL     1      35.491 -19.957 -19.133  0.00  0.00    -0.079 HD
BRANCH   6  10
ATOM      9  F   UNL     1      33.806 -14.059 -24.890  0.00  0.00    -0.204 F 
ATOM     10  C   UNL     1      34.954 -17.280 -22.569  0.00  0.00    -0.004 C 
ATOM     11  C   UNL     1      34.626 -17.467 -23.914  0.00  0.00    +0.002 C 
ATOM     12  C   UNL     1      34.893 -16.002 -22.011  0.00  0.00    +0.002 C 
ATOM     13  C   UNL     1      34.238 -16.380 -24.697  0.00  0.00    +0.030 C 
ATOM     14  C   UNL     1      34.504 -14.915 -22.795  0.00  0.00    +0.030 C 
ATOM     15  C   UNL     1      34.177 -15.103 -24.138  0.00  0.00    +0.140 C 
ENDBRANCH   6  10
ENDBRANCH   1   2
BRANCH   1  16
ATOM     16  C   UNL     1      35.696 -22.010 -17.934  0.00  0.00    -0.014 C 
BRANCH  16  17
ATOM     17  C   UNL     1      34.344 -22.670 -18.155  0.00  0.00    +0.074 C 
BRANCH  17  21
ATOM     18  O   UNL     1      35.092 -24.944 -14.113  0.00  0.00    -0.209 OA
ATOM     19  N   UNL     1      32.493 -23.255 -16.655  0.00  0.00    -0.290 N 
ATOM     20  N   UNL     1      34.734 -23.835 -16.086  0.00  0.00    -0.322 NA
ATOM     21  C   UNL     1      33.849 -23.300 -16.877  0.00  0.00    +0.173 C 
ATOM     22  C   UNL     1      31.977 -23.822 -15.488  0.00  0.00    +0.058 C 
ATOM     23  C   UNL     1      32.859 -24.419 -14.578  0.00  0.00    +0.108 C 
ATOM     24  C   UNL     1      30.608 -23.807 -15.205  0.00  0.00    -0.008 C 
ATOM     25  C   UNL     1      34.315 -24.420 -14.904  0.00  0.00    +0.207 C 
ATOM     26  C   UNL     1      32.384 -24.997 -13.397  0.00  0.00    +0.014 C 
ATOM     27  C   UNL     1      30.130 -24.383 -14.027  0.00  0.00    -0.003 C 
ATOM     28  C   UNL     1      31.016 -24.977 -13.127  0.00  0.00    +0.001 C 
ATOM     29  C   UNL     1      29.625 -23.183 -16.141  0.00  0.00    +0.032 C 
ATOM     30  H   UNL     1      31.894 -22.830 -17.310  0.00  0.00    +0.154 HD
ENDBRANCH  17  21
ENDBRANCH  16  17
ENDBRANCH   1  16
TORSDOF 5
ENDMDL
MODEL 6
REMARK VINA RESULT:     -11.8      5.632     10.823
REMARK  Name = 448889
REMARK  5 active torsions:
REMARK  status: ('A' for Active; 'I' for Inactive)
REMARK    1  A    between atoms: C_1  and  N_2
REMARK    2  A    between atoms: C_1  and  C_16
REMARK    3  A    between atoms: C_6  and  C_10
REMARK    4  A    between atoms: C_16  and  C_17
REMARK    5  A    between atoms: C_17  and  C_21
REMARK                            x       y       z     vdW  Elec       q    Type
REMARK                         _______ _______ _______ _____ _____    ______ ____
ROOT
ATOM      1  C   UNL     1      36.540 -22.026 -18.110  0.00  0.00    -0.076 C 
ENDROOT
BRANCH   1   2
ATOM      2  N   UNL     1      36.080 -20.938 -18.969  0.00  0.00    +0.390 N 
ATOM      3  C   UNL     1      35.012 -21.389 -19.867  0.00  0.00    -0.072 C 
ATOM      4  C   UNL     1      34.436 -20.190 -20.635  0.00  0.00    +0.003 C 
ATOM      5  C   UNL     1      37.200 -20.372 -19.738  0.00  0.00    -0.051 C 
ATOM      6  C   UNL     1      35.504 -19.310 -21.245  0.00  0.00    -0.031 C 
ATOM      7  C   UNL     1      36.778 -19.412 -20.818  0.00  0.00    -0.053 C 
ATOM      8  H   UNL     1      35.699 -20.206 -18.370  0.00  0.00    -0.079 HD
BRANCH   6  10
ATOM      9  F   UNL     1      34.000 -15.672 -25.249  0.00  0.00    -0.204 F 
ATOM     10  C   UNL     1      35.106 -18.350 -22.302  0.00  0.00    -0.004 C 
ATOM     11  C   UNL     1      34.540 -18.812 -23.492  0.00  0.00    +0.002 C 
ATOM     12  C   UNL     1      35.298 -16.980 -22.111  0.00  0.00    +0.002 C 
ATOM     13  C   UNL     1      34.165 -17.908 -24.487  0.00  0.00    +0.030 C 
ATOM     14  C   UNL     1      34.923 -16.076 -23.106  0.00  0.00    +0.030 C 
ATOM     15  C   UNL     1      34.358 -16.540 -24.294  0.00  0.00    +0.140 C 
ENDBRANCH   6  10
ENDBRANCH   1   2
BRANCH   1  16
ATOM     16  C   UNL     1      36.867 -21.494 -16.712  0.00  0.00    -0.014 C 
BRANCH  16  17
ATOM     17  C   UNL     1      37.280 -22.597 -15.750  0.00  0.00    +0.074 C 
BRANCH  17  21
ATOM     18  O   UNL     1      35.241 -24.809 -12.142  0.00  0.00    -0.209 OA
ATOM     19  N   UNL     1      34.876 -23.088 -15.745  0.00  0.00    -0.290 N 
ATOM     20  N   UNL     1      36.242 -23.730 -13.899  0.00  0.00    -0.322 NA
ATOM     21  C   UNL     1      36.070 -23.183 -15.067  0.00  0.00    +0.173 C 
ATOM     22  C   UNL     1      33.722 -23.613 -15.161  0.00  0.00    +0.058 C 
ATOM     23  C   UNL     1      33.815 -24.220 -13.902  0.00  0.00    +0.108 C 
ATOM     24  C   UNL     1      32.479 -23.547 -15.799  0.00  0.00    -0.008 C 
ATOM     25  C   UNL     1      35.152 -24.276 -13.243  0.00  0.00    +0.207 C 
ATOM     26  C   UNL     1      32.683 -24.757 -13.282  0.00  0.00    +0.014 C 
ATOM     27  C   UNL     1      31.347 -24.082 -15.183  0.00  0.00    -0.003 C 
ATOM     28  C   UNL     1      31.449 -24.686 -13.929  0.00  0.00    +0.001 C 
ATOM     29  C   UNL     1      32.325 -22.910 -17.141  0.00  0.00    +0.032 C 
ATOM     30  H   UNL     1      34.837 -22.657 -16.628  0.00  0.00    +0.154 HD
ENDBRANCH  17  21
ENDBRANCH  16  17
ENDBRANCH   1  16
TORSDOF 5
ENDMDL
MODEL 7
REMARK VINA RESULT:     -11.8      2.876      5.238
REMARK  Name = 448889
REMARK  5 active torsions:
REMARK  status: ('A' for Active; 'I' for Inactive)
REMARK    1  A    between atoms: C_1  and  N_2
REMARK    2  A    between atoms: C_1  and  C_16
REMARK    3  A    between atoms: C_6  and  C_10
REMARK    4  A    between atoms: C_16  and  C_17
REMARK    5  A    between atoms: C_17  and  C_21
REMARK                            x       y       z     vdW  Elec       q    Type
REMARK                         _______ _______ _______ _____ _____    ______ ____
ROOT
ATOM      1  C   UNL     1      34.447 -20.142 -21.228  0.00  0.00    -0.076 C 
ENDROOT
BRANCH   1   2
ATOM      2  N   UNL     1      34.701 -20.635 -19.877  0.00  0.00    +0.390 N 
ATOM      3  C   UNL     1      36.044 -21.212 -19.768  0.00  0.00    -0.072 C 
ATOM      4  C   UNL     1      36.342 -21.567 -18.303  0.00  0.00    +0.003 C 
ATOM      5  C   UNL     1      33.680 -21.619 -19.481  0.00  0.00    -0.051 C 
ATOM      6  C   UNL     1      35.221 -22.337 -17.642  0.00  0.00    -0.031 C 
ATOM      7  C   UNL     1      33.997 -22.351 -18.205  0.00  0.00    -0.053 C 
ATOM      8  H   UNL     1      34.646 -19.842 -19.239  0.00  0.00    -0.079 HD
BRANCH   6  10
ATOM      9  F   UNL     1      36.315 -25.060 -12.855  0.00  0.00    -0.204 F 
ATOM     10  C   UNL     1      35.511 -23.056 -16.378  0.00  0.00    -0.004 C 
ATOM     11  C   UNL     1      36.792 -23.013 -15.825  0.00  0.00    +0.002 C 
ATOM     12  C   UNL     1      34.501 -23.777 -15.737  0.00  0.00    +0.002 C 
ATOM     13  C   UNL     1      37.064 -23.689 -14.635  0.00  0.00    +0.030 C 
ATOM     14  C   UNL     1      34.774 -24.453 -14.547  0.00  0.00    +0.030 C 
ATOM     15  C   UNL     1      36.054 -24.410 -13.996  0.00  0.00    +0.140 C 
ENDBRANCH   6  10
ENDBRANCH   1   2
BRANCH   1  16
ATOM     16  C   UNL     1      35.588 -19.227 -21.680  0.00  0.00    -0.014 C 
BRANCH  16  17
ATOM     17  C   UNL     1      35.542 -18.929 -23.170  0.00  0.00    +0.074 C 
BRANCH  17  21
ATOM     18  O   UNL     1      33.539 -15.769 -26.011  0.00  0.00    -0.209 OA
ATOM     19  N   UNL     1      34.817 -16.739 -22.337  0.00  0.00    -0.290 N 
ATOM     20  N   UNL     1      34.517 -17.315 -24.630  0.00  0.00    -0.322 NA
ATOM     21  C   UNL     1      34.914 -17.581 -23.420  0.00  0.00    +0.173 C 
ATOM     22  C   UNL     1      34.244 -15.477 -22.508  0.00  0.00    +0.058 C 
ATOM     23  C   UNL     1      33.786 -15.107 -23.780  0.00  0.00    +0.108 C 
ATOM     24  C   UNL     1      34.114 -14.577 -21.446  0.00  0.00    -0.008 C 
ATOM     25  C   UNL     1      33.935 -16.087 -24.894  0.00  0.00    +0.207 C 
ATOM     26  C   UNL     1      33.205 -13.854 -23.993  0.00  0.00    +0.014 C 
ATOM     27  C   UNL     1      33.535 -13.324 -21.656  0.00  0.00    -0.003 C 
ATOM     28  C   UNL     1      33.083 -12.964 -22.926  0.00  0.00    +0.001 C 
ATOM     29  C   UNL     1      34.585 -14.921 -20.070  0.00  0.00    +0.032 C 
ATOM     30  H   UNL     1      35.145 -17.022 -21.454  0.00  0.00    +0.154 HD
ENDBRANCH  17  21
ENDBRANCH  16  17
ENDBRANCH   1  16
TORSDOF 5
ENDMDL
MODEL 8
REMARK VINA RESULT:     -11.7      1.646      2.399
REMARK  Name = 448889
REMARK  5 active torsions:
REMARK  status: ('A' for Active; 'I' for Inactive)
REMARK    1  A    between atoms: C_1  and  N_2
REMARK    2  A    between atoms: C_1  and  C_16
REMARK    3  A    between atoms: C_6  and  C_10
REMARK    4  A    between atoms: C_16  and  C_17
REMARK    5  A    between atoms: C_17  and  C_21
REMARK                            x       y       z     vdW  Elec       q    Type
REMARK                         _______ _______ _______ _____ _____    ______ ____
ROOT
ATOM      1  C   UNL     1      33.844 -14.905 -24.620  0.00  0.00    -0.076 C 
ENDROOT
BRANCH   1   2
ATOM      2  N   UNL     1      33.992 -15.982 -23.644  0.00  0.00    +0.390 N 
ATOM      3  C   UNL     1      34.969 -15.627 -22.610  0.00  0.00    -0.072 C 
ATOM      4  C   UNL     1      34.979 -16.701 -21.512  0.00  0.00    +0.003 C 
ATOM      5  C   UNL     1      34.371 -17.239 -24.308  0.00  0.00    -0.051 C 
ATOM      6  C   UNL     1      35.058 -18.108 -22.061  0.00  0.00    -0.031 C 
ATOM      7  C   UNL     1      34.776 -18.335 -23.359  0.00  0.00    -0.053 C 
ATOM      8  H   UNL     1      33.089 -16.118 -23.189  0.00  0.00    -0.079 HD
BRANCH   6  10
ATOM      9  F   UNL     1      36.515 -22.259 -18.572  0.00  0.00    -0.204 F 
ATOM     10  C   UNL     1      35.444 -19.203 -21.140  0.00  0.00    -0.004 C 
ATOM     11  C   UNL     1      36.767 -19.326 -20.711  0.00  0.00    +0.002 C 
ATOM     12  C   UNL     1      34.483 -20.115 -20.697  0.00  0.00    +0.002 C 
ATOM     13  C   UNL     1      37.129 -20.357 -19.843  0.00  0.00    +0.030 C 
ATOM     14  C   UNL     1      34.845 -21.146 -19.829  0.00  0.00    +0.030 C 
ATOM     15  C   UNL     1      36.168 -21.268 -19.403  0.00  0.00    +0.140 C 
ENDBRANCH   6  10
ENDBRANCH   1   2
BRANCH   1  16
ATOM     16  C   UNL     1      33.118 -13.714 -23.988  0.00  0.00    -0.014 C 
BRANCH  16  17
ATOM     17  C   UNL     1      33.919 -12.426 -24.085  0.00  0.00    +0.074 C 
BRANCH  17  21
ATOM     18  O   UNL     1      30.682 -10.950 -21.016  0.00  0.00    -0.209 OA
ATOM     19  N   UNL     1      33.859 -10.099 -23.309  0.00  0.00    -0.290 N 
ATOM     20  N   UNL     1      32.259 -11.676 -22.513  0.00  0.00    -0.322 NA
ATOM     21  C   UNL     1      33.288 -11.348 -23.239  0.00  0.00    +0.173 C 
ATOM     22  C   UNL     1      33.318  -9.061 -22.547  0.00  0.00    +0.058 C 
ATOM     23  C   UNL     1      32.207  -9.327 -21.734  0.00  0.00    +0.108 C 
ATOM     24  C   UNL     1      33.854  -7.771 -22.573  0.00  0.00    -0.008 C 
ATOM     25  C   UNL     1      31.656 -10.712 -21.724  0.00  0.00    +0.207 C 
ATOM     26  C   UNL     1      31.636  -8.317 -20.955  0.00  0.00    +0.014 C 
ATOM     27  C   UNL     1      33.285  -6.760 -21.796  0.00  0.00    -0.003 C 
ATOM     28  C   UNL     1      32.179  -7.032 -20.991  0.00  0.00    +0.001 C 
ATOM     29  C   UNL     1      35.037  -7.435 -23.421  0.00  0.00    +0.032 C 
ATOM     30  H   UNL     1      34.639  -9.938 -23.887  0.00  0.00    +0.154 HD
ENDBRANCH  17  21
ENDBRANCH  16  17
ENDBRANCH   1  16
TORSDOF 5
ENDMDL
MODEL 9
REMARK VINA RESULT:     -11.7      1.717      2.701
REMARK  Name = 448889
REMARK  5 active torsions:
REMARK  status: ('A' for Active; 'I' for Inactive)
REMARK    1  A    between atoms: C_1  and  N_2
REMARK    2  A    between atoms: C_1  and  C_16
REMARK    3  A    between atoms: C_6  and  C_10
REMARK    4  A    between atoms: C_16  and  C_17
REMARK    5  A    between atoms: C_17  and  C_21
REMARK                            x       y       z     vdW  Elec       q    Type
REMARK                         _______ _______ _______ _____ _____    ______ ____
ROOT
ATOM      1  C   UNL     1      33.570 -14.149 -24.613  0.00  0.00    -0.076 C 
ENDROOT
BRANCH   1   2
ATOM      2  N   UNL     1      33.790 -15.293 -23.732  0.00  0.00    +0.390 N 
ATOM      3  C   UNL     1      34.756 -14.970 -22.677  0.00  0.00    -0.072 C 
ATOM      4  C   UNL     1      34.839 -16.130 -21.673  0.00  0.00    +0.003 C 
ATOM      5  C   UNL     1      34.233 -16.466 -24.501  0.00  0.00    -0.051 C 
ATOM      6  C   UNL     1      34.992 -17.479 -22.340  0.00  0.00    -0.031 C 
ATOM      7  C   UNL     1      34.709 -17.613 -23.650  0.00  0.00    -0.053 C 
ATOM      8  H   UNL     1      32.901 -15.519 -23.285  0.00  0.00    -0.079 HD
BRANCH   6  10
ATOM      9  F   UNL     1      36.720 -21.816 -19.220  0.00  0.00    -0.204 F 
ATOM     10  C   UNL     1      35.449 -18.623 -21.516  0.00  0.00    -0.004 C 
ATOM     11  C   UNL     1      36.785 -18.715 -21.121  0.00  0.00    +0.002 C 
ATOM     12  C   UNL     1      34.543 -19.614 -21.131  0.00  0.00    +0.002 C 
ATOM     13  C   UNL     1      37.215 -19.792 -20.345  0.00  0.00    +0.030 C 
ATOM     14  C   UNL     1      34.972 -20.691 -20.355  0.00  0.00    +0.030 C 
ATOM     15  C   UNL     1      36.308 -20.781 -19.963  0.00  0.00    +0.140 C 
ENDBRANCH   6  10
ENDBRANCH   1   2
BRANCH   1  16
ATOM     16  C   UNL     1      33.443 -12.864 -23.791  0.00  0.00    -0.014 C 
BRANCH  16  17
ATOM     17  C   UNL     1      32.224 -12.871 -22.883  0.00  0.00    +0.074 C 
BRANCH  17  21
ATOM     18  O   UNL     1      30.786 -10.374 -19.172  0.00  0.00    -0.209 OA
ATOM     19  N   UNL     1      32.765 -10.488 -22.657  0.00  0.00    -0.290 N 
ATOM     20  N   UNL     1      31.484 -11.597 -20.980  0.00  0.00    -0.322 NA
ATOM     21  C   UNL     1      32.139 -11.581 -22.105  0.00  0.00    +0.173 C 
ATOM     22  C   UNL     1      32.719  -9.267 -21.981  0.00  0.00    +0.058 C 
ATOM     23  C   UNL     1      32.037  -9.194 -20.759  0.00  0.00    +0.108 C 
ATOM     24  C   UNL     1      33.337  -8.121 -22.489  0.00  0.00    -0.008 C 
ATOM     25  C   UNL     1      31.388 -10.432 -20.239  0.00  0.00    +0.207 C 
ATOM     26  C   UNL     1      31.969  -7.991 -20.051  0.00  0.00    +0.014 C 
ATOM     27  C   UNL     1      33.271  -6.918 -21.784  0.00  0.00    -0.003 C 
ATOM     28  C   UNL     1      32.588  -6.854 -20.569  0.00  0.00    +0.001 C 
ATOM     29  C   UNL     1      34.078  -8.145 -23.786  0.00  0.00    +0.032 C 
ATOM     30  H   UNL     1      33.238 -10.566 -23.516  0.00  0.00    +0.154 HD
ENDBRANCH  17  21
ENDBRANCH  16  17
ENDBRANCH   1  16
TORSDOF 5
ENDMDL
