MODEL 1
REMARK VINA RESULT:     -11.8      0.000      0.000
REMARK  Name = 4470566
REMARK  6 active torsions:
REMARK  status: ('A' for Active; 'I' for Inactive)
REMARK    1  A    between atoms: N_4  and  C_23
REMARK    2  A    between atoms: C_13  and  C_14
REMARK    3  A    between atoms: C_17  and  N_22
REMARK    4  A    between atoms: C_23  and  C_24
REMARK    5  A    between atoms: C_24  and  C_25
REMARK    6  A    between atoms: C_25  and  N_27
REMARK                            x       y       z     vdW  Elec       q    Type
REMARK                         _______ _______ _______ _____ _____    ______ ____
ROOT
ATOM      1  S   UNL     1      34.852 -19.396 -23.186  0.00  0.00    -0.086 S 
ATOM      2  S   UNL     1      34.493 -13.897 -20.782  0.00  0.00    -0.017 S 
ATOM      3  O   UNL     1      33.666 -13.962 -25.822  0.00  0.00    -0.268 OA
ATOM      4  N   UNL     1      34.001 -13.599 -23.502  0.00  0.00    -0.237 N 
ATOM      5  N   UNL     1      34.380 -15.638 -22.911  0.00  0.00    -0.244 N 
ATOM      6  C   UNL     1      34.163 -15.669 -24.249  0.00  0.00    +0.112 C 
ATOM      7  C   UNL     1      34.628 -16.915 -22.484  0.00  0.00    +0.064 C 
ATOM      8  C   UNL     1      34.296 -14.368 -22.361  0.00  0.00    +0.152 C 
ATOM      9  C   UNL     1      33.907 -14.340 -24.687  0.00  0.00    +0.268 C 
ATOM     10  C   UNL     1      34.557 -17.735 -23.587  0.00  0.00    +0.045 C 
ATOM     11  C   UNL     1      34.256 -16.940 -24.741  0.00  0.00    +0.028 C 
ATOM     12  C   UNL     1      34.922 -17.610 -21.280  0.00  0.00    +0.022 C 
ATOM     13  C   UNL     1      35.064 -18.957 -21.537  0.00  0.00    +0.031 C 
ENDROOT
BRANCH  13  14
ATOM     14  C   UNL     1      35.365 -20.012 -20.594  0.00  0.00    +0.008 C 
ATOM     15  C   UNL     1      34.363 -20.889 -20.189  0.00  0.00    +0.025 C 
ATOM     16  C   UNL     1      36.659 -20.146 -20.095  0.00  0.00    +0.001 C 
ATOM     17  C   UNL     1      34.654 -21.907 -19.281  0.00  0.00    +0.143 C 
ATOM     18  C   UNL     1      36.951 -21.163 -19.186  0.00  0.00    +0.002 C 
ATOM     19  C   UNL     1      35.948 -22.043 -18.780  0.00  0.00    +0.024 C 
BRANCH  17  22
ATOM     20  O   UNL     1      33.798 -24.034 -19.036  0.00  0.00    -0.126 OA
ATOM     21  O   UNL     1      32.593 -22.335 -18.341  0.00  0.00    -0.126 OA
ATOM     22  N   UNL     1      33.633 -22.801 -18.865  0.00  0.00    +0.058 N 
ENDBRANCH  17  22
ENDBRANCH  13  14
BRANCH   4  23
ATOM     23  C   UNL     1      33.804 -12.156 -23.490  0.00  0.00    +0.098 C 
BRANCH  23  24
ATOM     24  C   UNL     1      32.478 -11.751 -22.849  0.00  0.00    -0.001 C 
BRANCH  24  25
ATOM     25  C   UNL     1      32.190 -10.247 -22.888  0.00  0.00    -0.075 C 
BRANCH  25  27
ATOM     26  O   UNL     1      32.098  -9.210 -18.822  0.00  0.00    -0.358 OA
ATOM     27  N   UNL     1      31.732  -9.745 -21.594  0.00  0.00    +0.390 N 
ATOM     28  C   UNL     1      32.585  -8.642 -21.130  0.00  0.00    -0.045 C 
ATOM     29  C   UNL     1      31.714 -10.822 -20.593  0.00  0.00    -0.045 C 
ATOM     30  C   UNL     1      32.096  -8.144 -19.773  0.00  0.00    +0.119 C 
ATOM     31  C   UNL     1      31.245 -10.273 -19.250  0.00  0.00    +0.119 C 
ATOM     32  H   UNL     1      30.782  -9.396 -21.712  0.00  0.00    -0.079 HD
ENDBRANCH  25  27
ENDBRANCH  24  25
ENDBRANCH  23  24
ENDBRANCH   4  23
TORSDOF 6
ENDMDL
MODEL 2
REMARK VINA RESULT:     -11.3      4.753      8.266
REMARK  Name = 4470566
REMARK  6 active torsions:
REMARK  status: ('A' for Active; 'I' for Inactive)
REMARK    1  A    between atoms: N_4  and  C_23
REMARK    2  A    between atoms: C_13  and  C_14
REMARK    3  A    between atoms: C_17  and  N_22
REMARK    4  A    between atoms: C_23  and  C_24
REMARK    5  A    between atoms: C_24  and  C_25
REMARK    6  A    between atoms: C_25  and  N_27
REMARK                            x       y       z     vdW  Elec       q    Type
REMARK                         _______ _______ _______ _____ _____    ______ ____
ROOT
ATOM      1  S   UNL     1      33.928 -24.043 -15.252  0.00  0.00    -0.086 S 
ATOM      2  S   UNL     1      37.146 -21.021 -19.333  0.00  0.00    -0.017 S 
ATOM      3  O   UNL     1      32.153 -21.170 -20.398  0.00  0.00    -0.268 OA
ATOM      4  N   UNL     1      34.503 -20.922 -20.187  0.00  0.00    -0.237 N 
ATOM      5  N   UNL     1      34.775 -22.009 -18.345  0.00  0.00    -0.244 N 
ATOM      6  C   UNL     1      33.447 -22.057 -18.616  0.00  0.00    +0.112 C 
ATOM      7  C   UNL     1      35.001 -22.689 -17.178  0.00  0.00    +0.064 C 
ATOM      8  C   UNL     1      35.513 -21.311 -19.289  0.00  0.00    +0.152 C 
ATOM      9  C   UNL     1      33.218 -21.349 -19.829  0.00  0.00    +0.268 C 
ATOM     10  C   UNL     1      33.785 -23.156 -16.735  0.00  0.00    +0.045 C 
ATOM     11  C   UNL     1      32.766 -22.753 -17.659  0.00  0.00    +0.028 C 
ATOM     12  C   UNL     1      36.085 -23.035 -16.328  0.00  0.00    +0.022 C 
ATOM     13  C   UNL     1      35.625 -23.768 -15.253  0.00  0.00    +0.031 C 
ENDROOT
BRANCH  13  14
ATOM     14  C   UNL     1      36.396 -24.315 -14.159  0.00  0.00    +0.008 C 
ATOM     15  C   UNL     1      35.884 -24.284 -12.864  0.00  0.00    +0.025 C 
ATOM     16  C   UNL     1      37.649 -24.872 -14.405  0.00  0.00    +0.001 C 
ATOM     17  C   UNL     1      36.627 -24.813 -11.810  0.00  0.00    +0.143 C 
ATOM     18  C   UNL     1      38.393 -25.401 -13.350  0.00  0.00    +0.002 C 
ATOM     19  C   UNL     1      37.882 -25.371 -12.053  0.00  0.00    +0.024 C 
BRANCH  17  22
ATOM     20  O   UNL     1      35.222 -25.609 -10.164  0.00  0.00    -0.126 OA
ATOM     21  O   UNL     1      36.546 -23.925  -9.683  0.00  0.00    -0.126 OA
ATOM     22  N   UNL     1      36.108 -24.781 -10.489  0.00  0.00    +0.058 N 
ENDBRANCH  17  22
ENDBRANCH  13  14
BRANCH   4  23
ATOM     23  C   UNL     1      34.736 -20.143 -21.396  0.00  0.00    +0.098 C 
BRANCH  23  24
ATOM     24  C   UNL     1      34.978 -18.664 -21.102  0.00  0.00    -0.001 C 
BRANCH  24  25
ATOM     25  C   UNL     1      36.106 -18.032 -21.924  0.00  0.00    -0.075 C 
BRANCH  25  27
ATOM     26  O   UNL     1      33.556 -15.314 -23.854  0.00  0.00    -0.358 OA
ATOM     27  N   UNL     1      35.626 -16.924 -22.747  0.00  0.00    +0.390 N 
ATOM     28  C   UNL     1      34.893 -15.946 -21.931  0.00  0.00    -0.045 C 
ATOM     29  C   UNL     1      34.769 -17.415 -23.835  0.00  0.00    -0.045 C 
ATOM     30  C   UNL     1      34.392 -14.806 -22.813  0.00  0.00    +0.119 C 
ATOM     31  C   UNL     1      34.271 -16.240 -24.673  0.00  0.00    +0.119 C 
ATOM     32  H   UNL     1      36.439 -16.464 -23.156  0.00  0.00    -0.079 HD
ENDBRANCH  25  27
ENDBRANCH  24  25
ENDBRANCH  23  24
ENDBRANCH   4  23
TORSDOF 6
ENDMDL
MODEL 3
REMARK VINA RESULT:     -11.1      4.602      8.231
REMARK  Name = 4470566
REMARK  6 active torsions:
REMARK  status: ('A' for Active; 'I' for Inactive)
REMARK    1  A    between atoms: N_4  and  C_23
REMARK    2  A    between atoms: C_13  and  C_14
REMARK    3  A    between atoms: C_17  and  N_22
REMARK    4  A    between atoms: C_23  and  C_24
REMARK    5  A    between atoms: C_24  and  C_25
REMARK    6  A    between atoms: C_25  and  N_27
REMARK                            x       y       z     vdW  Elec       q    Type
REMARK                         _______ _______ _______ _____ _____    ______ ____
ROOT
ATOM      1  S   UNL     1      34.074 -24.049 -15.304  0.00  0.00    -0.086 S 
ATOM      2  S   UNL     1      37.104 -20.947 -19.469  0.00  0.00    -0.017 S 
ATOM      3  O   UNL     1      32.074 -21.129 -20.340  0.00  0.00    -0.268 OA
ATOM      4  N   UNL     1      34.428 -20.861 -20.218  0.00  0.00    -0.237 N 
ATOM      5  N   UNL     1      34.782 -21.969 -18.402  0.00  0.00    -0.244 N 
ATOM      6  C   UNL     1      33.444 -22.026 -18.621  0.00  0.00    +0.112 C 
ATOM      7  C   UNL     1      35.060 -22.661 -17.254  0.00  0.00    +0.064 C 
ATOM      8  C   UNL     1      35.476 -21.252 -19.365  0.00  0.00    +0.152 C 
ATOM      9  C   UNL     1      33.162 -21.305 -19.815  0.00  0.00    +0.268 C 
ATOM     10  C   UNL     1      33.866 -23.145 -16.769  0.00  0.00    +0.045 C 
ATOM     11  C   UNL     1      32.807 -22.740 -17.647  0.00  0.00    +0.028 C 
ATOM     12  C   UNL     1      36.179 -23.008 -16.450  0.00  0.00    +0.022 C 
ATOM     13  C   UNL     1      35.768 -23.758 -15.369  0.00  0.00    +0.031 C 
ENDROOT
BRANCH  13  14
ATOM     14  C   UNL     1      36.586 -24.311 -14.312  0.00  0.00    +0.008 C 
ATOM     15  C   UNL     1      37.877 -24.753 -14.592  0.00  0.00    +0.025 C 
ATOM     16  C   UNL     1      36.079 -24.399 -13.017  0.00  0.00    +0.001 C 
ATOM     17  C   UNL     1      38.666 -25.285 -13.572  0.00  0.00    +0.143 C 
ATOM     18  C   UNL     1      36.868 -24.931 -11.997  0.00  0.00    +0.002 C 
ATOM     19  C   UNL     1      38.161 -25.374 -12.275  0.00  0.00    +0.024 C 
BRANCH  17  22
ATOM     20  O   UNL     1      40.927 -24.913 -13.824  0.00  0.00    -0.126 OA
ATOM     21  O   UNL     1      40.162 -26.948 -14.129  0.00  0.00    -0.126 OA
ATOM     22  N   UNL     1      39.981 -25.737 -13.855  0.00  0.00    +0.058 N 
ENDBRANCH  17  22
ENDBRANCH  13  14
BRANCH   4  23
ATOM     23  C   UNL     1      34.606 -20.066 -21.425  0.00  0.00    +0.098 C 
BRANCH  23  24
ATOM     24  C   UNL     1      35.014 -18.625 -21.122  0.00  0.00    -0.001 C 
BRANCH  24  25
ATOM     25  C   UNL     1      36.096 -18.066 -22.050  0.00  0.00    -0.075 C 
BRANCH  25  27
ATOM     26  O   UNL     1      33.539 -15.259 -23.838  0.00  0.00    -0.358 OA
ATOM     27  N   UNL     1      35.613 -16.925 -22.826  0.00  0.00    +0.390 N 
ATOM     28  C   UNL     1      34.905 -15.969 -21.963  0.00  0.00    -0.045 C 
ATOM     29  C   UNL     1      34.730 -17.371 -23.913  0.00  0.00    -0.045 C 
ATOM     30  C   UNL     1      34.399 -14.795 -22.797  0.00  0.00    +0.119 C 
ATOM     31  C   UNL     1      34.229 -16.164 -24.701  0.00  0.00    +0.119 C 
ATOM     32  H   UNL     1      36.422 -16.459 -23.235  0.00  0.00    -0.079 HD
ENDBRANCH  25  27
ENDBRANCH  24  25
ENDBRANCH  23  24
ENDBRANCH   4  23
TORSDOF 6
ENDMDL
MODEL 4
REMARK VINA RESULT:     -10.3      2.099      2.575
REMARK  Name = 4470566
REMARK  6 active torsions:
REMARK  status: ('A' for Active; 'I' for Inactive)
REMARK    1  A    between atoms: N_4  and  C_23
REMARK    2  A    between atoms: C_13  and  C_14
REMARK    3  A    between atoms: C_17  and  N_22
REMARK    4  A    between atoms: C_23  and  C_24
REMARK    5  A    between atoms: C_24  and  C_25
REMARK    6  A    between atoms: C_25  and  N_27
REMARK                            x       y       z     vdW  Elec       q    Type
REMARK                         _______ _______ _______ _____ _____    ______ ____
ROOT
ATOM      1  S   UNL     1      35.319 -18.796 -23.359  0.00  0.00    -0.086 S 
ATOM      2  S   UNL     1      33.418 -13.770 -20.662  0.00  0.00    -0.017 S 
ATOM      3  O   UNL     1      33.441 -13.448 -25.759  0.00  0.00    -0.268 OA
ATOM      4  N   UNL     1      33.315 -13.281 -23.396  0.00  0.00    -0.237 N 
ATOM      5  N   UNL     1      34.020 -15.257 -22.898  0.00  0.00    -0.244 N 
ATOM      6  C   UNL     1      34.032 -15.185 -24.253  0.00  0.00    +0.112 C 
ATOM      7  C   UNL     1      34.462 -16.499 -22.529  0.00  0.00    +0.064 C 
ATOM      8  C   UNL     1      33.581 -14.096 -22.281  0.00  0.00    +0.152 C 
ATOM      9  C   UNL     1      33.572 -13.892 -24.630  0.00  0.00    +0.268 C 
ATOM     10  C   UNL     1      34.745 -17.192 -23.684  0.00  0.00    +0.045 C 
ATOM     11  C   UNL     1      34.471 -16.351 -24.812  0.00  0.00    +0.028 C 
ATOM     12  C   UNL     1      34.701 -17.249 -21.346  0.00  0.00    +0.022 C 
ATOM     13  C   UNL     1      35.166 -18.506 -21.671  0.00  0.00    +0.031 C 
ENDROOT
BRANCH  13  14
ATOM     14  C   UNL     1      35.530 -19.577 -20.769  0.00  0.00    +0.008 C 
ATOM     15  C   UNL     1      34.568 -20.496 -20.359  0.00  0.00    +0.025 C 
ATOM     16  C   UNL     1      36.843 -19.684 -20.316  0.00  0.00    +0.001 C 
ATOM     17  C   UNL     1      34.920 -21.529 -19.491  0.00  0.00    +0.143 C 
ATOM     18  C   UNL     1      37.194 -20.717 -19.447  0.00  0.00    +0.002 C 
ATOM     19  C   UNL     1      36.233 -21.640 -19.035  0.00  0.00    +0.024 C 
BRANCH  17  22
ATOM     20  O   UNL     1      32.736 -22.257 -19.354  0.00  0.00    -0.126 OA
ATOM     21  O   UNL     1      34.305 -23.479 -18.423  0.00  0.00    -0.126 OA
ATOM     22  N   UNL     1      33.940 -22.467 -19.069  0.00  0.00    +0.058 N 
ENDBRANCH  17  22
ENDBRANCH  13  14
BRANCH   4  23
ATOM     23  C   UNL     1      32.816 -11.915 -23.314  0.00  0.00    +0.098 C 
BRANCH  23  24
ATOM     24  C   UNL     1      33.927 -10.876 -23.457  0.00  0.00    -0.001 C 
BRANCH  24  25
ATOM     25  C   UNL     1      33.573  -9.492 -22.905  0.00  0.00    -0.075 C 
BRANCH  25  27
ATOM     26  O   UNL     1      34.082  -5.689 -24.606  0.00  0.00    -0.358 OA
ATOM     27  N   UNL     1      33.950  -8.424 -23.829  0.00  0.00    +0.390 N 
ATOM     28  C   UNL     1      34.887  -7.488 -23.192  0.00  0.00    -0.045 C 
ATOM     29  C   UNL     1      32.762  -7.701 -24.304  0.00  0.00    -0.045 C 
ATOM     30  C   UNL     1      35.256  -6.377 -24.170  0.00  0.00    +0.119 C 
ATOM     31  C   UNL     1      33.181  -6.586 -25.257  0.00  0.00    +0.119 C 
ATOM     32  H   UNL     1      34.412  -8.853 -24.631  0.00  0.00    -0.079 HD
ENDBRANCH  25  27
ENDBRANCH  24  25
ENDBRANCH  23  24
ENDBRANCH   4  23
TORSDOF 6
ENDMDL
MODEL 5
REMARK VINA RESULT:     -10.0      1.831     10.009
REMARK  Name = 4470566
REMARK  6 active torsions:
REMARK  status: ('A' for Active; 'I' for Inactive)
REMARK    1  A    between atoms: N_4  and  C_23
REMARK    2  A    between atoms: C_13  and  C_14
REMARK    3  A    between atoms: C_17  and  N_22
REMARK    4  A    between atoms: C_23  and  C_24
REMARK    5  A    between atoms: C_24  and  C_25
REMARK    6  A    between atoms: C_25  and  N_27
REMARK                            x       y       z     vdW  Elec       q    Type
REMARK                         _______ _______ _______ _____ _____    ______ ____
ROOT
ATOM      1  S   UNL     1      32.331 -11.689 -23.286  0.00  0.00    -0.086 S 
ATOM      2  S   UNL     1      34.895 -16.234 -20.300  0.00  0.00    -0.017 S 
ATOM      3  O   UNL     1      34.704 -16.981 -25.349  0.00  0.00    -0.268 OA
ATOM      4  N   UNL     1      34.943 -16.935 -22.989  0.00  0.00    -0.237 N 
ATOM      5  N   UNL     1      34.040 -15.013 -22.613  0.00  0.00    -0.244 N 
ATOM      6  C   UNL     1      33.981 -15.199 -23.956  0.00  0.00    +0.112 C 
ATOM      7  C   UNL     1      33.475 -13.801 -22.321  0.00  0.00    +0.064 C 
ATOM      8  C   UNL     1      34.632 -16.064 -21.929  0.00  0.00    +0.152 C 
ATOM      9  C   UNL     1      34.569 -16.460 -24.253  0.00  0.00    +0.268 C 
ATOM     10  C   UNL     1      33.069 -13.242 -23.512  0.00  0.00    +0.045 C 
ATOM     11  C   UNL     1      33.391 -14.139 -24.582  0.00  0.00    +0.028 C 
ATOM     12  C   UNL     1      33.201 -12.985 -21.191  0.00  0.00    +0.022 C 
ATOM     13  C   UNL     1      32.584 -11.819 -21.590  0.00  0.00    +0.031 C 
ENDROOT
BRANCH  13  14
ATOM     14  C   UNL     1      32.138 -10.723 -20.758  0.00  0.00    +0.008 C 
ATOM     15  C   UNL     1      32.148  -9.423 -21.257  0.00  0.00    +0.025 C 
ATOM     16  C   UNL     1      31.699 -10.973 -19.459  0.00  0.00    +0.001 C 
ATOM     17  C   UNL     1      31.716  -8.367 -20.454  0.00  0.00    +0.143 C 
ATOM     18  C   UNL     1      31.268  -9.917 -18.657  0.00  0.00    +0.002 C 
ATOM     19  C   UNL     1      31.276  -8.614 -19.154  0.00  0.00    +0.024 C 
BRANCH  17  22
ATOM     20  O   UNL     1      32.637  -6.258 -20.595  0.00  0.00    -0.126 OA
ATOM     21  O   UNL     1      30.825  -6.687 -21.758  0.00  0.00    -0.126 OA
ATOM     22  N   UNL     1      31.726  -7.040 -20.960  0.00  0.00    +0.058 N 
ENDBRANCH  17  22
ENDBRANCH  13  14
BRANCH   4  23
ATOM     23  C   UNL     1      35.595 -18.227 -22.825  0.00  0.00    +0.098 C 
BRANCH  23  24
ATOM     24  C   UNL     1      34.815 -19.165 -21.906  0.00  0.00    -0.001 C 
BRANCH  24  25
ATOM     25  C   UNL     1      35.659 -19.828 -20.814  0.00  0.00    -0.075 C 
BRANCH  25  27
ATOM     26  O   UNL     1      33.077 -22.642 -19.075  0.00  0.00    -0.358 OA
ATOM     27  N   UNL     1      34.832 -20.535 -19.839  0.00  0.00    +0.390 N 
ATOM     28  C   UNL     1      35.319 -21.908 -19.638  0.00  0.00    -0.045 C 
ATOM     29  C   UNL     1      33.426 -20.558 -20.267  0.00  0.00    -0.045 C 
ATOM     30  C   UNL     1      34.433 -22.630 -18.627  0.00  0.00    +0.119 C 
ATOM     31  C   UNL     1      32.585 -21.312 -19.240  0.00  0.00    +0.119 C 
ATOM     32  H   UNL     1      34.894 -20.034 -18.953  0.00  0.00    -0.079 HD
ENDBRANCH  25  27
ENDBRANCH  24  25
ENDBRANCH  23  24
ENDBRANCH   4  23
TORSDOF 6
ENDMDL
MODEL 6
REMARK VINA RESULT:      -9.9      4.907     11.093
REMARK  Name = 4470566
REMARK  6 active torsions:
REMARK  status: ('A' for Active; 'I' for Inactive)
REMARK    1  A    between atoms: N_4  and  C_23
REMARK    2  A    between atoms: C_13  and  C_14
REMARK    3  A    between atoms: C_17  and  N_22
REMARK    4  A    between atoms: C_23  and  C_24
REMARK    5  A    between atoms: C_24  and  C_25
REMARK    6  A    between atoms: C_25  and  N_27
REMARK                            x       y       z     vdW  Elec       q    Type
REMARK                         _______ _______ _______ _____ _____    ______ ____
ROOT
ATOM      1  S   UNL     1      37.114 -20.347 -19.679  0.00  0.00    -0.086 S 
ATOM      2  S   UNL     1      32.470 -23.310 -17.269  0.00  0.00    -0.017 S 
ATOM      3  O   UNL     1      36.846 -23.991 -14.724  0.00  0.00    -0.268 OA
ATOM      4  N   UNL     1      34.676 -23.878 -15.675  0.00  0.00    -0.237 N 
ATOM      5  N   UNL     1      35.119 -22.567 -17.330  0.00  0.00    -0.244 N 
ATOM      6  C   UNL     1      36.289 -22.740 -16.664  0.00  0.00    +0.112 C 
ATOM      7  C   UNL     1      35.349 -21.739 -18.395  0.00  0.00    +0.064 C 
ATOM      8  C   UNL     1      34.052 -23.253 -16.770  0.00  0.00    +0.152 C 
ATOM      9  C   UNL     1      36.044 -23.602 -15.558  0.00  0.00    +0.268 C 
ATOM     10  C   UNL     1      36.683 -21.404 -18.372  0.00  0.00    +0.045 C 
ATOM     11  C   UNL     1      37.307 -22.047 -17.253  0.00  0.00    +0.028 C 
ATOM     12  C   UNL     1      34.636 -21.149 -19.473  0.00  0.00    +0.022 C 
ATOM     13  C   UNL     1      35.486 -20.375 -20.234  0.00  0.00    +0.031 C 
ENDROOT
BRANCH  13  14
ATOM     14  C   UNL     1      35.166 -19.606 -21.416  0.00  0.00    +0.008 C 
ATOM     15  C   UNL     1      35.237 -18.216 -21.381  0.00  0.00    +0.025 C 
ATOM     16  C   UNL     1      34.788 -20.260 -22.586  0.00  0.00    +0.001 C 
ATOM     17  C   UNL     1      34.930 -17.475 -22.522  0.00  0.00    +0.143 C 
ATOM     18  C   UNL     1      34.479 -19.520 -23.727  0.00  0.00    +0.002 C 
ATOM     19  C   UNL     1      34.551 -18.127 -23.695  0.00  0.00    +0.024 C 
BRANCH  17  22
ATOM     20  O   UNL     1      35.333 -15.440 -23.529  0.00  0.00    -0.126 OA
ATOM     21  O   UNL     1      34.730 -15.460 -21.418  0.00  0.00    -0.126 OA
ATOM     22  N   UNL     1      35.001 -16.057 -22.488  0.00  0.00    +0.058 N 
ENDBRANCH  17  22
ENDBRANCH  13  14
BRANCH   4  23
ATOM     23  C   UNL     1      33.991 -24.743 -14.725  0.00  0.00    +0.098 C 
BRANCH  23  24
ATOM     24  C   UNL     1      33.234 -23.958 -13.657  0.00  0.00    -0.001 C 
BRANCH  24  25
ATOM     25  C   UNL     1      31.859 -24.534 -13.303  0.00  0.00    -0.075 C 
BRANCH  25  27
ATOM     26  O   UNL     1      28.243 -23.951 -15.351  0.00  0.00    -0.358 OA
ATOM     27  N   UNL     1      30.890 -24.332 -14.378  0.00  0.00    +0.390 N 
ATOM     28  C   UNL     1      30.189 -23.051 -14.217  0.00  0.00    -0.045 C 
ATOM     29  C   UNL     1      29.920 -25.435 -14.419  0.00  0.00    -0.045 C 
ATOM     30  C   UNL     1      29.175 -22.869 -15.343  0.00  0.00    +0.119 C 
ATOM     31  C   UNL     1      28.913 -25.198 -15.541  0.00  0.00    +0.119 C 
ATOM     32  H   UNL     1      31.401 -24.316 -15.261  0.00  0.00    -0.079 HD
ENDBRANCH  25  27
ENDBRANCH  24  25
ENDBRANCH  23  24
ENDBRANCH   4  23
TORSDOF 6
ENDMDL
MODEL 7
REMARK VINA RESULT:      -9.6      4.795     11.722
REMARK  Name = 4470566
REMARK  6 active torsions:
REMARK  status: ('A' for Active; 'I' for Inactive)
REMARK    1  A    between atoms: N_4  and  C_23
REMARK    2  A    between atoms: C_13  and  C_14
REMARK    3  A    between atoms: C_17  and  N_22
REMARK    4  A    between atoms: C_23  and  C_24
REMARK    5  A    between atoms: C_24  and  C_25
REMARK    6  A    between atoms: C_25  and  N_27
REMARK                            x       y       z     vdW  Elec       q    Type
REMARK                         _______ _______ _______ _____ _____    ______ ____
ROOT
ATOM      1  S   UNL     1      37.070 -20.094 -19.931  0.00  0.00    -0.086 S 
ATOM      2  S   UNL     1      32.550 -23.235 -17.512  0.00  0.00    -0.017 S 
ATOM      3  O   UNL     1      36.947 -23.722 -14.959  0.00  0.00    -0.268 OA
ATOM      4  N   UNL     1      34.775 -23.703 -15.913  0.00  0.00    -0.237 N 
ATOM      5  N   UNL     1      35.166 -22.384 -17.573  0.00  0.00    -0.244 N 
ATOM      6  C   UNL     1      36.341 -22.505 -16.905  0.00  0.00    +0.112 C 
ATOM      7  C   UNL     1      35.363 -21.552 -18.643  0.00  0.00    +0.064 C 
ATOM      8  C   UNL     1      34.127 -23.110 -17.011  0.00  0.00    +0.152 C 
ATOM      9  C   UNL     1      36.131 -23.370 -15.796  0.00  0.00    +0.268 C 
ATOM     10  C   UNL     1      36.682 -21.161 -18.619  0.00  0.00    +0.045 C 
ATOM     11  C   UNL     1      37.330 -21.773 -17.497  0.00  0.00    +0.028 C 
ATOM     12  C   UNL     1      34.627 -20.996 -19.724  0.00  0.00    +0.022 C 
ATOM     13  C   UNL     1      35.446 -20.192 -20.487  0.00  0.00    +0.031 C 
ENDROOT
BRANCH  13  14
ATOM     14  C   UNL     1      35.096 -19.442 -21.673  0.00  0.00    +0.008 C 
ATOM     15  C   UNL     1      35.132 -18.050 -21.652  0.00  0.00    +0.025 C 
ATOM     16  C   UNL     1      34.724 -20.117 -22.834  0.00  0.00    +0.001 C 
ATOM     17  C   UNL     1      34.796 -17.328 -22.797  0.00  0.00    +0.143 C 
ATOM     18  C   UNL     1      34.387 -19.395 -23.979  0.00  0.00    +0.002 C 
ATOM     19  C   UNL     1      34.423 -18.001 -23.960  0.00  0.00    +0.024 C 
BRANCH  17  22
ATOM     20  O   UNL     1      34.817 -15.285 -23.866  0.00  0.00    -0.126 OA
ATOM     21  O   UNL     1      34.877 -15.318 -21.671  0.00  0.00    -0.126 OA
ATOM     22  N   UNL     1      34.831 -15.909 -22.777  0.00  0.00    +0.058 N 
ENDBRANCH  17  22
ENDBRANCH  13  14
BRANCH   4  23
ATOM     23  C   UNL     1      34.125 -24.592 -14.959  0.00  0.00    +0.098 C 
BRANCH  23  24
ATOM     24  C   UNL     1      33.740 -23.881 -13.664  0.00  0.00    -0.001 C 
BRANCH  24  25
ATOM     25  C   UNL     1      34.326 -24.512 -12.397  0.00  0.00    -0.075 C 
BRANCH  25  27
ATOM     26  O   UNL     1      38.306 -24.641 -11.071  0.00  0.00    -0.358 OA
ATOM     27  N   UNL     1      35.786 -24.445 -12.380  0.00  0.00    +0.390 N 
ATOM     28  C   UNL     1      36.365 -25.746 -12.017  0.00  0.00    -0.045 C 
ATOM     29  C   UNL     1      36.250 -23.410 -11.445  0.00  0.00    -0.045 C 
ATOM     30  C   UNL     1      37.887 -25.648 -11.993  0.00  0.00    +0.119 C 
ATOM     31  C   UNL     1      37.775 -23.366 -11.436  0.00  0.00    +0.119 C 
ATOM     32  H   UNL     1      36.099 -24.199 -13.319  0.00  0.00    -0.079 HD
ENDBRANCH  25  27
ENDBRANCH  24  25
ENDBRANCH  23  24
ENDBRANCH   4  23
TORSDOF 6
ENDMDL
MODEL 8
REMARK VINA RESULT:      -9.5      4.295      7.195
REMARK  Name = 4470566
REMARK  6 active torsions:
REMARK  status: ('A' for Active; 'I' for Inactive)
REMARK    1  A    between atoms: N_4  and  C_23
REMARK    2  A    between atoms: C_13  and  C_14
REMARK    3  A    between atoms: C_17  and  N_22
REMARK    4  A    between atoms: C_23  and  C_24
REMARK    5  A    between atoms: C_24  and  C_25
REMARK    6  A    between atoms: C_25  and  N_27
REMARK                            x       y       z     vdW  Elec       q    Type
REMARK                         _______ _______ _______ _____ _____    ______ ____
ROOT
ATOM      1  S   UNL     1      31.954 -13.033 -21.833  0.00  0.00    -0.086 S 
ATOM      2  S   UNL     1      34.929  -8.417 -24.280  0.00  0.00    -0.017 S 
ATOM      3  O   UNL     1      31.181  -6.967 -21.127  0.00  0.00    -0.268 OA
ATOM      4  N   UNL     1      32.979  -7.311 -22.636  0.00  0.00    -0.237 N 
ATOM      5  N   UNL     1      32.974  -9.468 -22.653  0.00  0.00    -0.244 N 
ATOM      6  C   UNL     1      31.974  -9.097 -21.814  0.00  0.00    +0.112 C 
ATOM      7  C   UNL     1      33.012 -10.836 -22.699  0.00  0.00    +0.064 C 
ATOM      8  C   UNL     1      33.657  -8.400 -23.215  0.00  0.00    +0.152 C 
ATOM      9  C   UNL     1      31.939  -7.675 -21.770  0.00  0.00    +0.268 C 
ATOM     10  C   UNL     1      32.017 -11.301 -21.870  0.00  0.00    +0.045 C 
ATOM     11  C   UNL     1      31.334 -10.183 -21.288  0.00  0.00    +0.028 C 
ATOM     12  C   UNL     1      33.753 -11.871 -23.329  0.00  0.00    +0.022 C 
ATOM     13  C   UNL     1      33.271 -13.102 -22.936  0.00  0.00    +0.031 C 
ENDROOT
BRANCH  13  14
ATOM     14  C   UNL     1      33.742 -14.408 -23.342  0.00  0.00    +0.008 C 
ATOM     15  C   UNL     1      34.359 -15.243 -22.414  0.00  0.00    +0.025 C 
ATOM     16  C   UNL     1      33.574 -14.826 -24.660  0.00  0.00    +0.001 C 
ATOM     17  C   UNL     1      34.810 -16.504 -22.805  0.00  0.00    +0.143 C 
ATOM     18  C   UNL     1      34.026 -16.086 -25.052  0.00  0.00    +0.002 C 
ATOM     19  C   UNL     1      34.644 -16.924 -24.124  0.00  0.00    +0.024 C 
BRANCH  17  22
ATOM     20  O   UNL     1      35.287 -17.126 -20.637  0.00  0.00    -0.126 OA
ATOM     21  O   UNL     1      36.134 -18.316 -22.277  0.00  0.00    -0.126 OA
ATOM     22  N   UNL     1      35.440 -17.356 -21.861  0.00  0.00    +0.058 N 
ENDBRANCH  17  22
ENDBRANCH  13  14
BRANCH   4  23
ATOM     23  C   UNL     1      33.301  -5.914 -22.892  0.00  0.00    +0.098 C 
BRANCH  23  24
ATOM     24  C   UNL     1      32.245  -5.218 -23.749  0.00  0.00    -0.001 C 
BRANCH  24  25
ATOM     25  C   UNL     1      32.671  -3.848 -24.287  0.00  0.00    -0.075 C 
BRANCH  25  27
ATOM     26  O   UNL     1      29.162  -1.917 -23.033  0.00  0.00    -0.358 OA
ATOM     27  N   UNL     1      31.711  -2.803 -23.938  0.00  0.00    +0.390 N 
ATOM     28  C   UNL     1      31.319  -2.905 -22.525  0.00  0.00    -0.045 C 
ATOM     29  C   UNL     1      30.521  -2.878 -24.797  0.00  0.00    -0.045 C 
ATOM     30  C   UNL     1      30.308  -1.812 -22.188  0.00  0.00    +0.119 C 
ATOM     31  C   UNL     1      29.530  -1.786 -24.407  0.00  0.00    +0.119 C 
ATOM     32  H   UNL     1      32.163  -1.901 -24.087  0.00  0.00    -0.079 HD
ENDBRANCH  25  27
ENDBRANCH  24  25
ENDBRANCH  23  24
ENDBRANCH   4  23
TORSDOF 6
ENDMDL
MODEL 9
REMARK VINA RESULT:      -9.5      4.481      7.482
REMARK  Name = 4470566
REMARK  6 active torsions:
REMARK  status: ('A' for Active; 'I' for Inactive)
REMARK    1  A    between atoms: N_4  and  C_23
REMARK    2  A    between atoms: C_13  and  C_14
REMARK    3  A    between atoms: C_17  and  N_22
REMARK    4  A    between atoms: C_23  and  C_24
REMARK    5  A    between atoms: C_24  and  C_25
REMARK    6  A    between atoms: C_25  and  N_27
REMARK                            x       y       z     vdW  Elec       q    Type
REMARK                         _______ _______ _______ _____ _____    ______ ____
ROOT
ATOM      1  S   UNL     1      31.950 -12.986 -21.966  0.00  0.00    -0.086 S 
ATOM      2  S   UNL     1      35.117  -8.476 -24.371  0.00  0.00    -0.017 S 
ATOM      3  O   UNL     1      31.226  -6.893 -21.465  0.00  0.00    -0.268 OA
ATOM      4  N   UNL     1      33.097  -7.301 -22.864  0.00  0.00    -0.237 N 
ATOM      5  N   UNL     1      33.063  -9.457 -22.824  0.00  0.00    -0.244 N 
ATOM      6  C   UNL     1      32.025  -9.051 -22.051  0.00  0.00    +0.112 C 
ATOM      7  C   UNL     1      33.084 -10.826 -22.832  0.00  0.00    +0.064 C 
ATOM      8  C   UNL     1      33.790  -8.413 -23.376  0.00  0.00    +0.152 C 
ATOM      9  C   UNL     1      32.008  -7.628 -22.047  0.00  0.00    +0.268 C 
ATOM     10  C   UNL     1      32.040 -11.256 -22.046  0.00  0.00    +0.045 C 
ATOM     11  C   UNL     1      31.342 -10.114 -21.531  0.00  0.00    +0.028 C 
ATOM     12  C   UNL     1      33.844 -11.888 -23.393  0.00  0.00    +0.022 C 
ATOM     13  C   UNL     1      33.324 -13.101 -22.994  0.00  0.00    +0.031 C 
ENDROOT
BRANCH  13  14
ATOM     14  C   UNL     1      33.797 -14.423 -23.338  0.00  0.00    +0.008 C 
ATOM     15  C   UNL     1      34.397 -15.222 -22.367  0.00  0.00    +0.025 C 
ATOM     16  C   UNL     1      33.650 -14.894 -24.641  0.00  0.00    +0.001 C 
ATOM     17  C   UNL     1      34.851 -16.498 -22.700  0.00  0.00    +0.143 C 
ATOM     18  C   UNL     1      34.105 -16.170 -24.974  0.00  0.00    +0.002 C 
ATOM     19  C   UNL     1      34.705 -16.972 -24.003  0.00  0.00    +0.024 C 
BRANCH  17  22
ATOM     20  O   UNL     1      36.235 -18.233 -22.076  0.00  0.00    -0.126 OA
ATOM     21  O   UNL     1      35.215 -17.092 -20.502  0.00  0.00    -0.126 OA
ATOM     22  N   UNL     1      35.463 -17.313 -21.712  0.00  0.00    +0.058 N 
ENDBRANCH  17  22
ENDBRANCH  13  14
BRANCH   4  23
ATOM     23  C   UNL     1      33.452  -5.916 -23.140  0.00  0.00    +0.098 C 
BRANCH  23  24
ATOM     24  C   UNL     1      32.839  -5.402 -24.441  0.00  0.00    -0.001 C 
BRANCH  24  25
ATOM     25  C   UNL     1      33.849  -4.800 -25.422  0.00  0.00    -0.075 C 
BRANCH  25  27
ATOM     26  O   UNL     1      34.193  -5.280 -29.578  0.00  0.00    -0.358 OA
ATOM     27  N   UNL     1      33.563  -5.183 -26.804  0.00  0.00    +0.390 N 
ATOM     28  C   UNL     1      34.604  -6.080 -27.324  0.00  0.00    -0.045 C 
ATOM     29  C   UNL     1      33.448  -3.994 -27.661  0.00  0.00    -0.045 C 
ATOM     30  C   UNL     1      34.291  -6.454 -28.770  0.00  0.00    +0.119 C 
ATOM     31  C   UNL     1      33.161  -4.418 -29.098  0.00  0.00    +0.119 C 
ATOM     32  H   UNL     1      32.672  -5.677 -26.813  0.00  0.00    -0.079 HD
ENDBRANCH  25  27
ENDBRANCH  24  25
ENDBRANCH  23  24
ENDBRANCH   4  23
TORSDOF 6
ENDMDL
