MODEL 1
REMARK VINA RESULT:     -12.0      0.000      0.000
REMARK  Name = 24832041
REMARK  6 active torsions:
REMARK  status: ('A' for Active; 'I' for Inactive)
REMARK    1  A    between atoms: C_1  and  C_18
REMARK    2  A    between atoms: C_4  and  C_7
REMARK    3  A    between atoms: C_10  and  C_15
REMARK    4  A    between atoms: C_18  and  N_19
REMARK    5  A    between atoms: C_18  and  C_23
REMARK    6  A    between atoms: C_23  and  C_26
REMARK                            x       y       z     vdW  Elec       q    Type
REMARK                         _______ _______ _______ _____ _____    ______ ____
ROOT
ATOM      1  C   UNL     1      34.562 -20.109 -21.181  0.00  0.00    -0.042 C 
ATOM      2  C   UNL     1      35.761 -20.528 -20.603  0.00  0.00    -0.006 C 
ATOM      3  C   UNL     1      33.346 -20.485 -20.612  0.00  0.00    -0.006 C 
ATOM      4  C   UNL     1      34.527 -21.699 -18.888  0.00  0.00    -0.000 C 
ATOM      5  C   UNL     1      35.743 -21.322 -19.457  0.00  0.00    -0.000 C 
ATOM      6  C   UNL     1      33.327 -21.280 -19.466  0.00  0.00    -0.000 C 
ENDROOT
BRANCH   4   7
ATOM      7  C   UNL     1      34.509 -22.523 -17.700  0.00  0.00    +0.000 C 
ATOM      8  C   UNL     1      35.680 -22.714 -16.966  0.00  0.00    +0.005 C 
ATOM      9  C   UNL     1      33.321 -23.126 -17.287  0.00  0.00    +0.000 C 
ATOM     10  C   UNL     1      35.663 -23.509 -15.819  0.00  0.00    +0.053 C 
ATOM     11  C   UNL     1      33.304 -23.920 -16.140  0.00  0.00    +0.000 C 
ATOM     12  C   UNL     1      34.475 -24.112 -15.406  0.00  0.00    +0.005 C 
BRANCH  10  15
ATOM     13  O   UNL     1      37.466 -22.755 -14.504  0.00  0.00    -0.270 OA
ATOM     14  N   UNL     1      37.370 -25.005 -14.936  0.00  0.00    -0.325 N 
ATOM     15  C   UNL     1      36.883 -23.707 -15.052  0.00  0.00    +0.243 C 
ATOM     16  H   UNL     1      38.194 -25.178 -14.425  0.00  0.00    +0.145 HD
ATOM     17  H   UNL     1      36.892 -25.751 -15.364  0.00  0.00    +0.145 HD
ENDBRANCH  10  15
ENDBRANCH   4   7
BRANCH   1  18
ATOM     18  C   UNL     1      34.580 -19.259 -22.405  0.00  0.00    -0.038 C 
BRANCH  18  19
ATOM     19  N   UNL     1      34.890 -20.043 -23.620  0.00  0.00    +0.384 N 
ATOM     20  H   UNL     1      34.041 -20.165 -24.172  0.00  0.00    -0.089 HD
ATOM     21  H   UNL     1      35.255 -20.957 -23.351  0.00  0.00    -0.089 HD
ATOM     22  H   UNL     1      35.587 -19.549 -24.176  0.00  0.00    -0.089 HD
ENDBRANCH  18  19
BRANCH  18  23
ATOM     23  C   UNL     1      35.575 -18.063 -22.339  0.00  0.00    +0.011 C 
BRANCH  23  26
ATOM     24  F   UNL     1      35.036 -16.003 -20.465  0.00  0.00    -0.205 F 
ATOM     25  F   UNL     1      33.646 -15.057 -25.671  0.00  0.00    -0.204 F 
ATOM     26  C   UNL     1      34.934 -16.747 -22.717  0.00  0.00    +0.006 C 
ATOM     27  C   UNL     1      34.698 -15.778 -21.743  0.00  0.00    +0.136 C 
ATOM     28  C   UNL     1      34.580 -16.505 -24.044  0.00  0.00    +0.028 C 
ATOM     29  C   UNL     1      33.988 -15.291 -24.397  0.00  0.00    +0.140 C 
ATOM     30  C   UNL     1      34.107 -14.565 -22.096  0.00  0.00    +0.032 C 
ATOM     31  C   UNL     1      33.752 -14.321 -23.422  0.00  0.00    +0.032 C 
ENDBRANCH  23  26
ENDBRANCH  18  23
ENDBRANCH   1  18
TORSDOF 6
ENDMDL
MODEL 2
REMARK VINA RESULT:     -11.9      0.723      1.947
REMARK  Name = 24832041
REMARK  6 active torsions:
REMARK  status: ('A' for Active; 'I' for Inactive)
REMARK    1  A    between atoms: C_1  and  C_18
REMARK    2  A    between atoms: C_4  and  C_7
REMARK    3  A    between atoms: C_10  and  C_15
REMARK    4  A    between atoms: C_18  and  N_19
REMARK    5  A    between atoms: C_18  and  C_23
REMARK    6  A    between atoms: C_23  and  C_26
REMARK                            x       y       z     vdW  Elec       q    Type
REMARK                         _______ _______ _______ _____ _____    ______ ____
ROOT
ATOM      1  C   UNL     1      34.601 -20.107 -21.126  0.00  0.00    -0.042 C 
ATOM      2  C   UNL     1      33.379 -20.482 -20.569  0.00  0.00    -0.006 C 
ATOM      3  C   UNL     1      35.794 -20.534 -20.543  0.00  0.00    -0.006 C 
ATOM      4  C   UNL     1      34.542 -21.711 -18.843  0.00  0.00    -0.000 C 
ATOM      5  C   UNL     1      33.349 -21.284 -19.428  0.00  0.00    -0.000 C 
ATOM      6  C   UNL     1      35.765 -21.335 -19.402  0.00  0.00    -0.000 C 
ENDROOT
BRANCH   4   7
ATOM      7  C   UNL     1      34.511 -22.542 -17.661  0.00  0.00    +0.000 C 
ATOM      8  C   UNL     1      35.680 -22.759 -16.930  0.00  0.00    +0.005 C 
ATOM      9  C   UNL     1      33.314 -23.129 -17.252  0.00  0.00    +0.000 C 
ATOM     10  C   UNL     1      35.650 -23.562 -15.789  0.00  0.00    +0.053 C 
ATOM     11  C   UNL     1      33.285 -23.931 -16.111  0.00  0.00    +0.000 C 
ATOM     12  C   UNL     1      34.452 -24.148 -15.380  0.00  0.00    +0.005 C 
BRANCH  10  15
ATOM     13  O   UNL     1      37.474 -22.846 -14.482  0.00  0.00    -0.270 OA
ATOM     14  N   UNL     1      37.323 -25.095 -14.903  0.00  0.00    -0.325 N 
ATOM     15  C   UNL     1      36.867 -23.786 -15.025  0.00  0.00    +0.243 C 
ATOM     16  H   UNL     1      38.144 -25.285 -14.394  0.00  0.00    +0.145 HD
ATOM     17  H   UNL     1      36.826 -25.831 -15.327  0.00  0.00    +0.145 HD
ENDBRANCH  10  15
ENDBRANCH   4   7
BRANCH   1  18
ATOM     18  C   UNL     1      34.634 -19.251 -22.346  0.00  0.00    -0.038 C 
BRANCH  18  19
ATOM     19  N   UNL     1      34.870 -20.042 -23.573  0.00  0.00    +0.384 N 
ATOM     20  H   UNL     1      35.871 -20.072 -23.771  0.00  0.00    -0.089 HD
ATOM     21  H   UNL     1      34.382 -19.609 -24.357  0.00  0.00    -0.089 HD
ATOM     22  H   UNL     1      34.523 -20.991 -23.438  0.00  0.00    -0.089 HD
ENDBRANCH  18  19
BRANCH  18  23
ATOM     23  C   UNL     1      35.692 -18.110 -22.299  0.00  0.00    +0.011 C 
BRANCH  23  26
ATOM     24  F   UNL     1      34.980 -16.940 -24.782  0.00  0.00    -0.205 F 
ATOM     25  F   UNL     1      34.032 -13.986 -20.278  0.00  0.00    -0.204 F 
ATOM     26  C   UNL     1      35.076 -16.735 -22.419  0.00  0.00    +0.006 C 
ATOM     27  C   UNL     1      34.750 -16.222 -23.674  0.00  0.00    +0.136 C 
ATOM     28  C   UNL     1      34.833 -15.981 -21.271  0.00  0.00    +0.028 C 
ATOM     29  C   UNL     1      34.265 -14.711 -21.379  0.00  0.00    +0.140 C 
ATOM     30  C   UNL     1      34.182 -14.952 -23.782  0.00  0.00    +0.032 C 
ATOM     31  C   UNL     1      33.939 -14.197 -22.635  0.00  0.00    +0.032 C 
ENDBRANCH  23  26
ENDBRANCH  18  23
ENDBRANCH   1  18
TORSDOF 6
ENDMDL
MODEL 3
REMARK VINA RESULT:     -11.7      4.493      9.731
REMARK  Name = 24832041
REMARK  6 active torsions:
REMARK  status: ('A' for Active; 'I' for Inactive)
REMARK    1  A    between atoms: C_1  and  C_18
REMARK    2  A    between atoms: C_4  and  C_7
REMARK    3  A    between atoms: C_10  and  C_15
REMARK    4  A    between atoms: C_18  and  N_19
REMARK    5  A    between atoms: C_18  and  C_23
REMARK    6  A    between atoms: C_23  and  C_26
REMARK                            x       y       z     vdW  Elec       q    Type
REMARK                         _______ _______ _______ _____ _____    ______ ____
ROOT
ATOM      1  C   UNL     1      35.219 -17.129 -21.583  0.00  0.00    -0.042 C 
ATOM      2  C   UNL     1      35.023 -16.698 -22.895  0.00  0.00    -0.006 C 
ATOM      3  C   UNL     1      34.867 -16.301 -20.517  0.00  0.00    -0.006 C 
ATOM      4  C   UNL     1      34.122 -14.610 -22.076  0.00  0.00    -0.000 C 
ATOM      5  C   UNL     1      34.475 -15.439 -23.142  0.00  0.00    -0.000 C 
ATOM      6  C   UNL     1      34.318 -15.042 -20.763  0.00  0.00    -0.000 C 
ENDROOT
BRANCH   4   7
ATOM      7  C   UNL     1      33.553 -13.307 -22.331  0.00  0.00    +0.000 C 
ATOM      8  C   UNL     1      32.671 -12.738 -21.411  0.00  0.00    +0.005 C 
ATOM      9  C   UNL     1      33.884 -12.617 -23.497  0.00  0.00    +0.000 C 
ATOM     10  C   UNL     1      32.122 -11.479 -21.658  0.00  0.00    +0.053 C 
ATOM     11  C   UNL     1      33.334 -11.359 -23.744  0.00  0.00    +0.000 C 
ATOM     12  C   UNL     1      32.453 -10.790 -22.824  0.00  0.00    +0.005 C 
BRANCH  10  15
ATOM     13  O   UNL     1      29.993 -11.163 -20.701  0.00  0.00    -0.270 OA
ATOM     14  N   UNL     1      31.732 -10.002 -19.760  0.00  0.00    -0.325 N 
ATOM     15  C   UNL     1      31.205 -10.885 -20.698  0.00  0.00    +0.243 C 
ATOM     16  H   UNL     1      31.141  -9.579 -19.095  0.00  0.00    +0.145 HD
ATOM     17  H   UNL     1      32.695  -9.800 -19.761  0.00  0.00    +0.145 HD
ENDBRANCH  10  15
ENDBRANCH   4   7
BRANCH   1  18
ATOM     18  C   UNL     1      35.805 -18.474 -21.319  0.00  0.00    -0.038 C 
BRANCH  18  19
ATOM     19  N   UNL     1      37.043 -18.702 -22.095  0.00  0.00    +0.384 N 
ATOM     20  H   UNL     1      36.913 -19.501 -22.716  0.00  0.00    -0.089 HD
ATOM     21  H   UNL     1      37.815 -18.891 -21.455  0.00  0.00    -0.089 HD
ATOM     22  H   UNL     1      37.256 -17.873 -22.649  0.00  0.00    -0.089 HD
ENDBRANCH  18  19
BRANCH  18  23
ATOM     23  C   UNL     1      34.836 -19.659 -21.601  0.00  0.00    +0.011 C 
BRANCH  23  26
ATOM     24  F   UNL     1      32.351 -20.617 -20.626  0.00  0.00    -0.205 F 
ATOM     25  F   UNL     1      36.864 -22.359 -18.072  0.00  0.00    -0.204 F 
ATOM     26  C   UNL     1      34.717 -20.609 -20.431  0.00  0.00    +0.006 C 
ATOM     27  C   UNL     1      33.462 -21.040 -20.005  0.00  0.00    +0.136 C 
ATOM     28  C   UNL     1      35.867 -21.054 -19.779  0.00  0.00    +0.028 C 
ATOM     29  C   UNL     1      35.761 -21.931 -18.699  0.00  0.00    +0.140 C 
ATOM     30  C   UNL     1      33.355 -21.917 -18.925  0.00  0.00    +0.032 C 
ATOM     31  C   UNL     1      34.504 -22.363 -18.272  0.00  0.00    +0.032 C 
ENDBRANCH  23  26
ENDBRANCH  18  23
ENDBRANCH   1  18
TORSDOF 6
ENDMDL
MODEL 4
REMARK VINA RESULT:     -11.6      2.226      2.666
REMARK  Name = 24832041
REMARK  6 active torsions:
REMARK  status: ('A' for Active; 'I' for Inactive)
REMARK    1  A    between atoms: C_1  and  C_18
REMARK    2  A    between atoms: C_4  and  C_7
REMARK    3  A    between atoms: C_10  and  C_15
REMARK    4  A    between atoms: C_18  and  N_19
REMARK    5  A    between atoms: C_18  and  C_23
REMARK    6  A    between atoms: C_23  and  C_26
REMARK                            x       y       z     vdW  Elec       q    Type
REMARK                         _______ _______ _______ _____ _____    ______ ____
ROOT
ATOM      1  C   UNL     1      34.352 -20.181 -21.102  0.00  0.00    -0.042 C 
ATOM      2  C   UNL     1      35.422 -20.792 -20.450  0.00  0.00    -0.006 C 
ATOM      3  C   UNL     1      33.054 -20.346 -20.619  0.00  0.00    -0.006 C 
ATOM      4  C   UNL     1      33.896 -21.736 -18.830  0.00  0.00    -0.000 C 
ATOM      5  C   UNL     1      35.195 -21.569 -19.314  0.00  0.00    -0.000 C 
ATOM      6  C   UNL     1      32.826 -21.124 -19.484  0.00  0.00    -0.000 C 
ENDROOT
BRANCH   4   7
ATOM      7  C   UNL     1      33.661 -22.541 -17.653  0.00  0.00    +0.000 C 
ATOM      8  C   UNL     1      32.355 -22.800 -17.235  0.00  0.00    +0.005 C 
ATOM      9  C   UNL     1      34.738 -23.057 -16.934  0.00  0.00    +0.000 C 
ATOM     10  C   UNL     1      32.127 -23.577 -16.099  0.00  0.00    +0.053 C 
ATOM     11  C   UNL     1      34.510 -23.833 -15.798  0.00  0.00    +0.000 C 
ATOM     12  C   UNL     1      33.205 -24.094 -15.380  0.00  0.00    +0.005 C 
BRANCH  10  15
ATOM     13  O   UNL     1      30.532 -24.598 -14.698  0.00  0.00    -0.270 OA
ATOM     14  N   UNL     1      29.729 -23.232 -16.356  0.00  0.00    -0.325 N 
ATOM     15  C   UNL     1      30.767 -23.850 -15.664  0.00  0.00    +0.243 C 
ATOM     16  H   UNL     1      28.795 -23.394 -16.091  0.00  0.00    +0.145 HD
ATOM     17  H   UNL     1      29.929 -22.632 -17.111  0.00  0.00    +0.145 HD
ENDBRANCH  10  15
ENDBRANCH   4   7
BRANCH   1  18
ATOM     18  C   UNL     1      34.595 -19.349 -22.316  0.00  0.00    -0.038 C 
BRANCH  18  19
ATOM     19  N   UNL     1      35.088 -20.157 -23.452  0.00  0.00    +0.384 N 
ATOM     20  H   UNL     1      35.433 -19.538 -24.186  0.00  0.00    -0.089 HD
ATOM     21  H   UNL     1      34.326 -20.728 -23.820  0.00  0.00    -0.089 HD
ATOM     22  H   UNL     1      35.845 -20.763 -23.137  0.00  0.00    -0.089 HD
ENDBRANCH  18  19
BRANCH  18  23
ATOM     23  C   UNL     1      35.590 -18.172 -22.096  0.00  0.00    +0.011 C 
BRANCH  23  26
ATOM     24  F   UNL     1      35.024 -16.120 -20.223  0.00  0.00    -0.205 F 
ATOM     25  F   UNL     1      33.914 -15.069 -25.474  0.00  0.00    -0.204 F 
ATOM     26  C   UNL     1      35.007 -16.833 -22.487  0.00  0.00    +0.006 C 
ATOM     27  C   UNL     1      34.755 -15.869 -21.512  0.00  0.00    +0.136 C 
ATOM     28  C   UNL     1      34.724 -16.564 -23.826  0.00  0.00    +0.028 C 
ATOM     29  C   UNL     1      34.187 -15.329 -24.189  0.00  0.00    +0.140 C 
ATOM     30  C   UNL     1      34.217 -14.634 -21.875  0.00  0.00    +0.032 C 
ATOM     31  C   UNL     1      33.933 -14.363 -23.214  0.00  0.00    +0.032 C 
ENDBRANCH  23  26
ENDBRANCH  18  23
ENDBRANCH   1  18
TORSDOF 6
ENDMDL
MODEL 5
REMARK VINA RESULT:     -11.6      2.319      3.150
REMARK  Name = 24832041
REMARK  6 active torsions:
REMARK  status: ('A' for Active; 'I' for Inactive)
REMARK    1  A    between atoms: C_1  and  C_18
REMARK    2  A    between atoms: C_4  and  C_7
REMARK    3  A    between atoms: C_10  and  C_15
REMARK    4  A    between atoms: C_18  and  N_19
REMARK    5  A    between atoms: C_18  and  C_23
REMARK    6  A    between atoms: C_23  and  C_26
REMARK                            x       y       z     vdW  Elec       q    Type
REMARK                         _______ _______ _______ _____ _____    ______ ____
ROOT
ATOM      1  C   UNL     1      34.388 -20.137 -21.188  0.00  0.00    -0.042 C 
ATOM      2  C   UNL     1      35.464 -20.729 -20.527  0.00  0.00    -0.006 C 
ATOM      3  C   UNL     1      33.090 -20.317 -20.707  0.00  0.00    -0.006 C 
ATOM      4  C   UNL     1      33.946 -21.683 -18.906  0.00  0.00    -0.000 C 
ATOM      5  C   UNL     1      35.243 -21.502 -19.387  0.00  0.00    -0.000 C 
ATOM      6  C   UNL     1      32.869 -21.089 -19.568  0.00  0.00    -0.000 C 
ENDROOT
BRANCH   4   7
ATOM      7  C   UNL     1      33.718 -22.482 -17.724  0.00  0.00    +0.000 C 
ATOM      8  C   UNL     1      32.414 -22.765 -17.314  0.00  0.00    +0.005 C 
ATOM      9  C   UNL     1      34.800 -22.972 -16.993  0.00  0.00    +0.000 C 
ATOM     10  C   UNL     1      32.193 -23.537 -16.173  0.00  0.00    +0.053 C 
ATOM     11  C   UNL     1      34.579 -23.744 -15.852  0.00  0.00    +0.000 C 
ATOM     12  C   UNL     1      33.276 -24.026 -15.442  0.00  0.00    +0.005 C 
BRANCH  10  15
ATOM     13  O   UNL     1      30.603 -24.677 -14.862  0.00  0.00    -0.270 OA
ATOM     14  N   UNL     1      29.798 -23.128 -16.349  0.00  0.00    -0.325 N 
ATOM     15  C   UNL     1      30.835 -23.834 -15.746  0.00  0.00    +0.243 C 
ATOM     16  H   UNL     1      28.866 -23.303 -16.086  0.00  0.00    +0.145 HD
ATOM     17  H   UNL     1      29.996 -22.454 -17.038  0.00  0.00    +0.145 HD
ENDBRANCH  10  15
ENDBRANCH   4   7
BRANCH   1  18
ATOM     18  C   UNL     1      34.623 -19.311 -22.406  0.00  0.00    -0.038 C 
BRANCH  18  19
ATOM     19  N   UNL     1      35.015 -20.136 -23.568  0.00  0.00    +0.384 N 
ATOM     20  H   UNL     1      34.843 -21.120 -23.362  0.00  0.00    -0.089 HD
ATOM     21  H   UNL     1      36.008 -19.999 -23.763  0.00  0.00    -0.089 HD
ATOM     22  H   UNL     1      34.468 -19.859 -24.383  0.00  0.00    -0.089 HD
ENDBRANCH  18  19
BRANCH  18  23
ATOM     23  C   UNL     1      35.694 -18.195 -22.225  0.00  0.00    +0.011 C 
BRANCH  23  26
ATOM     24  F   UNL     1      35.050 -16.947 -24.689  0.00  0.00    -0.205 F 
ATOM     25  F   UNL     1      34.094 -14.085 -20.127  0.00  0.00    -0.204 F 
ATOM     26  C   UNL     1      35.111 -16.804 -22.320  0.00  0.00    +0.006 C 
ATOM     27  C   UNL     1      34.818 -16.252 -23.567  0.00  0.00    +0.136 C 
ATOM     28  C   UNL     1      34.866 -16.073 -21.158  0.00  0.00    +0.028 C 
ATOM     29  C   UNL     1      34.329 -14.788 -21.242  0.00  0.00    +0.140 C 
ATOM     30  C   UNL     1      34.281 -14.967 -23.651  0.00  0.00    +0.032 C 
ATOM     31  C   UNL     1      34.035 -14.235 -22.490  0.00  0.00    +0.032 C 
ENDBRANCH  23  26
ENDBRANCH  18  23
ENDBRANCH   1  18
TORSDOF 6
ENDMDL
MODEL 6
REMARK VINA RESULT:     -11.4      1.350      1.844
REMARK  Name = 24832041
REMARK  6 active torsions:
REMARK  status: ('A' for Active; 'I' for Inactive)
REMARK    1  A    between atoms: C_1  and  C_18
REMARK    2  A    between atoms: C_4  and  C_7
REMARK    3  A    between atoms: C_10  and  C_15
REMARK    4  A    between atoms: C_18  and  N_19
REMARK    5  A    between atoms: C_18  and  C_23
REMARK    6  A    between atoms: C_23  and  C_26
REMARK                            x       y       z     vdW  Elec       q    Type
REMARK                         _______ _______ _______ _____ _____    ______ ____
ROOT
ATOM      1  C   UNL     1      34.974 -20.043 -21.179  0.00  0.00    -0.042 C 
ATOM      2  C   UNL     1      36.268 -20.134 -20.668  0.00  0.00    -0.006 C 
ATOM      3  C   UNL     1      33.916 -20.657 -20.509  0.00  0.00    -0.006 C 
ATOM      4  C   UNL     1      35.447 -21.451 -18.817  0.00  0.00    -0.000 C 
ATOM      5  C   UNL     1      36.505 -20.837 -19.488  0.00  0.00    -0.000 C 
ATOM      6  C   UNL     1      34.152 -21.361 -19.329  0.00  0.00    -0.000 C 
ENDROOT
BRANCH   4   7
ATOM      7  C   UNL     1      35.692 -22.180 -17.593  0.00  0.00    +0.000 C 
ATOM      8  C   UNL     1      34.641 -22.830 -16.945  0.00  0.00    +0.005 C 
ATOM      9  C   UNL     1      36.979 -22.233 -17.059  0.00  0.00    +0.000 C 
ATOM     10  C   UNL     1      34.877 -23.533 -15.763  0.00  0.00    +0.053 C 
ATOM     11  C   UNL     1      37.216 -22.936 -15.877  0.00  0.00    +0.000 C 
ATOM     12  C   UNL     1      36.165 -23.586 -15.229  0.00  0.00    +0.005 C 
BRANCH  10  15
ATOM     13  O   UNL     1      32.598 -24.009 -15.408  0.00  0.00    -0.270 OA
ATOM     14  N   UNL     1      34.105 -25.116 -14.080  0.00  0.00    -0.325 N 
ATOM     15  C   UNL     1      33.783 -24.212 -15.089  0.00  0.00    +0.243 C 
ATOM     16  H   UNL     1      33.391 -25.594 -13.601  0.00  0.00    +0.145 HD
ATOM     17  H   UNL     1      35.048 -25.277 -13.846  0.00  0.00    +0.145 HD
ENDBRANCH  10  15
ENDBRANCH   4   7
BRANCH   1  18
ATOM     18  C   UNL     1      34.720 -19.291 -22.441  0.00  0.00    -0.038 C 
BRANCH  18  19
ATOM     19  N   UNL     1      34.782 -20.166 -23.631  0.00  0.00    +0.384 N 
ATOM     20  H   UNL     1      33.989 -19.968 -24.241  0.00  0.00    -0.089 HD
ATOM     21  H   UNL     1      34.749 -21.143 -23.337  0.00  0.00    -0.089 HD
ATOM     22  H   UNL     1      35.650 -19.993 -24.137  0.00  0.00    -0.089 HD
ENDBRANCH  18  19
BRANCH  18  23
ATOM     23  C   UNL     1      35.685 -18.092 -22.676  0.00  0.00    +0.011 C 
BRANCH  23  26
ATOM     24  F   UNL     1      35.114 -16.117 -20.723  0.00  0.00    -0.205 F 
ATOM     25  F   UNL     1      33.446 -15.116 -25.835  0.00  0.00    -0.204 F 
ATOM     26  C   UNL     1      34.955 -16.806 -22.989  0.00  0.00    +0.006 C 
ATOM     27  C   UNL     1      34.709 -15.878 -21.978  0.00  0.00    +0.136 C 
ATOM     28  C   UNL     1      34.530 -16.549 -24.292  0.00  0.00    +0.028 C 
ATOM     29  C   UNL     1      33.856 -15.363 -24.584  0.00  0.00    +0.140 C 
ATOM     30  C   UNL     1      34.035 -14.692 -22.270  0.00  0.00    +0.032 C 
ATOM     31  C   UNL     1      33.609 -14.434 -23.573  0.00  0.00    +0.032 C 
ENDBRANCH  23  26
ENDBRANCH  18  23
ENDBRANCH   1  18
TORSDOF 6
ENDMDL
MODEL 7
REMARK VINA RESULT:     -11.4      4.167      9.404
REMARK  Name = 24832041
REMARK  6 active torsions:
REMARK  status: ('A' for Active; 'I' for Inactive)
REMARK    1  A    between atoms: C_1  and  C_18
REMARK    2  A    between atoms: C_4  and  C_7
REMARK    3  A    between atoms: C_10  and  C_15
REMARK    4  A    between atoms: C_18  and  N_19
REMARK    5  A    between atoms: C_18  and  C_23
REMARK    6  A    between atoms: C_23  and  C_26
REMARK                            x       y       z     vdW  Elec       q    Type
REMARK                         _______ _______ _______ _____ _____    ______ ____
ROOT
ATOM      1  C   UNL     1      34.339 -22.433 -18.229  0.00  0.00    -0.042 C 
ATOM      2  C   UNL     1      33.196 -21.916 -18.839  0.00  0.00    -0.006 C 
ATOM      3  C   UNL     1      35.603 -22.031 -18.663  0.00  0.00    -0.006 C 
ATOM      4  C   UNL     1      34.579 -20.595 -20.316  0.00  0.00    -0.000 C 
ATOM      5  C   UNL     1      33.316 -20.998 -19.882  0.00  0.00    -0.000 C 
ATOM      6  C   UNL     1      35.723 -21.113 -19.706  0.00  0.00    -0.000 C 
ENDROOT
BRANCH   4   7
ATOM      7  C   UNL     1      34.703 -19.643 -21.396  0.00  0.00    +0.000 C 
ATOM      8  C   UNL     1      34.757 -18.276 -21.118  0.00  0.00    +0.005 C 
ATOM      9  C   UNL     1      34.768 -20.089 -22.715  0.00  0.00    +0.000 C 
ATOM     10  C   UNL     1      34.876 -17.357 -22.161  0.00  0.00    +0.053 C 
ATOM     11  C   UNL     1      34.888 -19.169 -23.758  0.00  0.00    +0.000 C 
ATOM     12  C   UNL     1      34.941 -17.804 -23.481  0.00  0.00    +0.005 C 
BRANCH  10  15
ATOM     13  O   UNL     1      35.181 -15.100 -22.763  0.00  0.00    -0.270 OA
ATOM     14  N   UNL     1      34.687 -15.526 -20.565  0.00  0.00    -0.325 N 
ATOM     15  C   UNL     1      34.935 -15.933 -21.872  0.00  0.00    +0.243 C 
ATOM     16  H   UNL     1      34.719 -14.570 -20.332  0.00  0.00    +0.145 HD
ATOM     17  H   UNL     1      34.480 -16.194 -19.872  0.00  0.00    +0.145 HD
ENDBRANCH  10  15
ENDBRANCH   4   7
BRANCH   1  18
ATOM     18  C   UNL     1      34.212 -23.414 -17.114  0.00  0.00    -0.038 C 
BRANCH  18  19
ATOM     19  N   UNL     1      32.803 -23.782 -16.857  0.00  0.00    +0.384 N 
ATOM     20  H   UNL     1      32.265 -22.942 -16.642  0.00  0.00    -0.089 HD
ATOM     21  H   UNL     1      32.758 -24.426 -16.067  0.00  0.00    -0.089 HD
ATOM     22  H   UNL     1      32.412 -24.232 -17.685  0.00  0.00    -0.089 HD
ENDBRANCH  18  19
BRANCH  18  23
ATOM     23  C   UNL     1      34.837 -22.939 -15.770  0.00  0.00    +0.011 C 
BRANCH  23  26
ATOM     24  F   UNL     1      37.539 -22.080 -15.718  0.00  0.00    -0.205 F 
ATOM     25  F   UNL     1      36.519 -27.189 -14.051  0.00  0.00    -0.204 F 
ATOM     26  C   UNL     1      35.976 -23.820 -15.310  0.00  0.00    +0.006 C 
ATOM     27  C   UNL     1      37.282 -23.331 -15.310  0.00  0.00    +0.136 C 
ATOM     28  C   UNL     1      35.717 -25.122 -14.884  0.00  0.00    +0.028 C 
ATOM     29  C   UNL     1      36.766 -25.938 -14.459  0.00  0.00    +0.140 C 
ATOM     30  C   UNL     1      38.331 -24.147 -14.886  0.00  0.00    +0.032 C 
ATOM     31  C   UNL     1      38.074 -25.450 -14.459  0.00  0.00    +0.032 C 
ENDBRANCH  23  26
ENDBRANCH  18  23
ENDBRANCH   1  18
TORSDOF 6
ENDMDL
MODEL 8
REMARK VINA RESULT:     -11.2      4.740     10.051
REMARK  Name = 24832041
REMARK  6 active torsions:
REMARK  status: ('A' for Active; 'I' for Inactive)
REMARK    1  A    between atoms: C_1  and  C_18
REMARK    2  A    between atoms: C_4  and  C_7
REMARK    3  A    between atoms: C_10  and  C_15
REMARK    4  A    between atoms: C_18  and  N_19
REMARK    5  A    between atoms: C_18  and  C_23
REMARK    6  A    between atoms: C_23  and  C_26
REMARK                            x       y       z     vdW  Elec       q    Type
REMARK                         _______ _______ _______ _____ _____    ______ ____
ROOT
ATOM      1  C   UNL     1      35.007 -16.829 -21.594  0.00  0.00    -0.042 C 
ATOM      2  C   UNL     1      34.601 -16.063 -20.502  0.00  0.00    -0.006 C 
ATOM      3  C   UNL     1      34.839 -16.341 -22.890  0.00  0.00    -0.006 C 
ATOM      4  C   UNL     1      33.856 -14.320 -22.001  0.00  0.00    -0.000 C 
ATOM      5  C   UNL     1      34.025 -14.809 -20.705  0.00  0.00    -0.000 C 
ATOM      6  C   UNL     1      34.263 -15.087 -23.093  0.00  0.00    -0.000 C 
ENDROOT
BRANCH   4   7
ATOM      7  C   UNL     1      33.260 -13.020 -22.211  0.00  0.00    +0.000 C 
ATOM      8  C   UNL     1      34.005 -11.998 -22.801  0.00  0.00    +0.005 C 
ATOM      9  C   UNL     1      31.941 -12.786 -21.824  0.00  0.00    +0.000 C 
ATOM     10  C   UNL     1      33.430 -10.743 -23.003  0.00  0.00    +0.053 C 
ATOM     11  C   UNL     1      31.366 -11.531 -22.026  0.00  0.00    +0.000 C 
ATOM     12  C   UNL     1      32.110 -10.510 -22.616  0.00  0.00    +0.005 C 
BRANCH  10  15
ATOM     13  O   UNL     1      33.690  -8.582 -23.902  0.00  0.00    -0.270 OA
ATOM     14  N   UNL     1      35.552  -9.919 -23.869  0.00  0.00    -0.325 N 
ATOM     15  C   UNL     1      34.205  -9.678 -23.620  0.00  0.00    +0.243 C 
ATOM     16  H   UNL     1      36.109  -9.222 -24.287  0.00  0.00    +0.145 HD
ATOM     17  H   UNL     1      35.951 -10.787 -23.629  0.00  0.00    +0.145 HD
ENDBRANCH  10  15
ENDBRANCH   4   7
BRANCH   1  18
ATOM     18  C   UNL     1      35.624 -18.169 -21.378  0.00  0.00    -0.038 C 
BRANCH  18  19
ATOM     19  N   UNL     1      36.853 -18.350 -22.180  0.00  0.00    +0.384 N 
ATOM     20  H   UNL     1      37.342 -17.457 -22.260  0.00  0.00    -0.089 HD
ATOM     21  H   UNL     1      36.606 -18.687 -23.111  0.00  0.00    -0.089 HD
ATOM     22  H   UNL     1      37.461 -19.029 -21.723  0.00  0.00    -0.089 HD
ENDBRANCH  18  19
BRANCH  18  23
ATOM     23  C   UNL     1      34.675 -19.366 -21.679  0.00  0.00    +0.011 C 
BRANCH  23  26
ATOM     24  F   UNL     1      32.268 -20.460 -20.653  0.00  0.00    -0.205 F 
ATOM     25  F   UNL     1      36.944 -22.177 -18.393  0.00  0.00    -0.204 F 
ATOM     26  C   UNL     1      34.639 -20.380 -20.559  0.00  0.00    +0.006 C 
ATOM     27  C   UNL     1      33.418 -20.877 -20.104  0.00  0.00    +0.136 C 
ATOM     28  C   UNL     1      35.830 -20.819 -19.982  0.00  0.00    +0.028 C 
ATOM     29  C   UNL     1      35.800 -21.756 -18.948  0.00  0.00    +0.140 C 
ATOM     30  C   UNL     1      33.388 -21.813 -19.070  0.00  0.00    +0.032 C 
ATOM     31  C   UNL     1      34.579 -22.253 -18.492  0.00  0.00    +0.032 C 
ENDBRANCH  23  26
ENDBRANCH  18  23
ENDBRANCH   1  18
TORSDOF 6
ENDMDL
MODEL 9
REMARK VINA RESULT:     -11.0      3.544      6.005
REMARK  Name = 24832041
REMARK  6 active torsions:
REMARK  status: ('A' for Active; 'I' for Inactive)
REMARK    1  A    between atoms: C_1  and  C_18
REMARK    2  A    between atoms: C_4  and  C_7
REMARK    3  A    between atoms: C_10  and  C_15
REMARK    4  A    between atoms: C_18  and  N_19
REMARK    5  A    between atoms: C_18  and  C_23
REMARK    6  A    between atoms: C_23  and  C_26
REMARK                            x       y       z     vdW  Elec       q    Type
REMARK                         _______ _______ _______ _____ _____    ______ ____
ROOT
ATOM      1  C   UNL     1      33.980 -15.023 -23.486  0.00  0.00    -0.042 C 
ATOM      2  C   UNL     1      34.259 -14.941 -22.122  0.00  0.00    -0.006 C 
ATOM      3  C   UNL     1      34.180 -16.223 -24.168  0.00  0.00    -0.006 C 
ATOM      4  C   UNL     1      34.939 -17.260 -22.121  0.00  0.00    -0.000 C 
ATOM      5  C   UNL     1      34.739 -16.058 -21.440  0.00  0.00    -0.000 C 
ATOM      6  C   UNL     1      34.660 -17.341 -23.486  0.00  0.00    -0.000 C 
ENDROOT
BRANCH   4   7
ATOM      7  C   UNL     1      35.436 -18.418 -21.414  0.00  0.00    +0.000 C 
ATOM      8  C   UNL     1      34.541 -19.355 -20.894  0.00  0.00    +0.005 C 
ATOM      9  C   UNL     1      36.809 -18.600 -21.250  0.00  0.00    +0.000 C 
ATOM     10  C   UNL     1      35.020 -20.473 -20.211  0.00  0.00    +0.053 C 
ATOM     11  C   UNL     1      37.287 -19.718 -20.566  0.00  0.00    +0.000 C 
ATOM     12  C   UNL     1      36.394 -20.655 -20.047  0.00  0.00    +0.005 C 
BRANCH  10  15
ATOM     13  O   UNL     1      34.488 -22.486 -19.110  0.00  0.00    -0.270 OA
ATOM     14  N   UNL     1      32.728 -21.182 -19.787  0.00  0.00    -0.325 N 
ATOM     15  C   UNL     1      34.089 -21.450 -19.671  0.00  0.00    +0.243 C 
ATOM     16  H   UNL     1      32.068 -21.821 -19.434  0.00  0.00    +0.145 HD
ATOM     17  H   UNL     1      32.425 -20.352 -20.222  0.00  0.00    +0.145 HD
ENDBRANCH  10  15
ENDBRANCH   4   7
BRANCH   1  18
ATOM     18  C   UNL     1      33.466 -13.828 -24.216  0.00  0.00    -0.038 C 
BRANCH  18  19
ATOM     19  N   UNL     1      33.540 -14.001 -25.683  0.00  0.00    +0.384 N 
ATOM     20  H   UNL     1      33.694 -13.094 -26.125  0.00  0.00    -0.089 HD
ATOM     21  H   UNL     1      32.665 -14.400 -26.023  0.00  0.00    -0.089 HD
ATOM     22  H   UNL     1      34.312 -14.626 -25.914  0.00  0.00    -0.089 HD
ENDBRANCH  18  19
BRANCH  18  23
ATOM     23  C   UNL     1      34.186 -12.498 -23.852  0.00  0.00    +0.011 C 
BRANCH  23  26
ATOM     24  F   UNL     1      34.684  -9.706 -23.775  0.00  0.00    -0.205 F 
ATOM     25  F   UNL     1      30.196 -11.504 -21.217  0.00  0.00    -0.204 F 
ATOM     26  C   UNL     1      33.279 -11.515 -23.148  0.00  0.00    +0.006 C 
ATOM     27  C   UNL     1      33.585 -10.154 -23.151  0.00  0.00    +0.136 C 
ATOM     28  C   UNL     1      32.134 -11.971 -22.495  0.00  0.00    +0.028 C 
ATOM     29  C   UNL     1      31.295 -11.067 -21.844  0.00  0.00    +0.140 C 
ATOM     30  C   UNL     1      32.746  -9.250 -22.500  0.00  0.00    +0.032 C 
ATOM     31  C   UNL     1      31.601  -9.705 -21.847  0.00  0.00    +0.032 C 
ENDBRANCH  23  26
ENDBRANCH  18  23
ENDBRANCH   1  18
TORSDOF 6
ENDMDL
