MODEL 1
REMARK VINA RESULT:     -13.0      0.000      0.000
REMARK  Name = 68488178
REMARK  9 active torsions:
REMARK  status: ('A' for Active; 'I' for Inactive)
REMARK    1  A    between atoms: N_1  and  C_10
REMARK    2  A    between atoms: N_2  and  C_29
REMARK    3  A    between atoms: C_10  and  C_11
REMARK    4  A    between atoms: C_16  and  O_17
REMARK    5  A    between atoms: O_17  and  C_18
REMARK    6  A    between atoms: C_23  and  C_26
REMARK    7  A    between atoms: C_29  and  C_30
REMARK    8  A    between atoms: C_35  and  C_37
REMARK    9  A    between atoms: C_37  and  O_38
REMARK                            x       y       z     vdW  Elec       q    Type
REMARK                         _______ _______ _______ _____ _____    ______ ____
ROOT
ATOM      1  N   UNL     1      33.097 -23.686 -16.780  0.00  0.00    +0.388 N 
ATOM      2  N   UNL     1      34.169 -25.023 -14.563  0.00  0.00    +0.388 N 
ATOM      3  C   UNL     1      34.241 -23.151 -16.002  0.00  0.00    -0.081 C 
ATOM      4  C   UNL     1      33.016 -24.095 -14.455  0.00  0.00    -0.081 C 
ATOM      5  C   UNL     1      33.623 -22.723 -14.683  0.00  0.00    -0.046 C 
ATOM      6  C   UNL     1      32.200 -24.267 -15.750  0.00  0.00    -0.098 C 
ATOM      7  C   UNL     1      35.064 -24.371 -15.551  0.00  0.00    -0.098 C 
ATOM      8  H   UNL     1      33.395 -24.375 -17.471  0.00  0.00    -0.079 HD
ATOM      9  H   UNL     1      33.881 -25.958 -14.855  0.00  0.00    -0.079 HD
ENDROOT
BRANCH   1  10
ATOM     10  C   UNL     1      32.430 -22.661 -17.574  0.00  0.00    -0.050 C 
BRANCH  10  11
ATOM     11  C   UNL     1      33.368 -22.012 -18.556  0.00  0.00    -0.043 C 
ATOM     12  C   UNL     1      34.717 -22.369 -18.571  0.00  0.00    -0.003 C 
ATOM     13  C   UNL     1      32.890 -21.054 -19.450  0.00  0.00    -0.003 C 
ATOM     14  C   UNL     1      35.587 -21.768 -19.481  0.00  0.00    +0.037 C 
ATOM     15  C   UNL     1      33.760 -20.453 -20.360  0.00  0.00    +0.037 C 
ATOM     16  C   UNL     1      35.109 -20.810 -20.375  0.00  0.00    +0.145 C 
BRANCH  16  17
ATOM     17  O   UNL     1      35.958 -20.223 -21.262  0.00  0.00    -0.453 OA
BRANCH  17  18
ATOM     18  C   UNL     1      35.484 -19.144 -21.990  0.00  0.00    +0.145 C 
ATOM     19  C   UNL     1      34.886 -19.351 -23.233  0.00  0.00    +0.038 C 
ATOM     20  C   UNL     1      35.605 -17.852 -21.480  0.00  0.00    +0.038 C 
ATOM     21  C   UNL     1      34.411 -18.264 -23.967  0.00  0.00    +0.008 C 
ATOM     22  C   UNL     1      35.131 -16.765 -22.214  0.00  0.00    +0.008 C 
ATOM     23  C   UNL     1      34.533 -16.971 -23.458  0.00  0.00    +0.054 C 
BRANCH  23  26
ATOM     24  O   UNL     1      33.891 -14.693 -23.512  0.00  0.00    -0.431 OA
ATOM     25  N   UNL     1      33.720 -15.777 -25.490  0.00  0.00    -0.206 NA
ATOM     26  C   UNL     1      34.042 -15.847 -24.218  0.00  0.00    +0.230 C 
ATOM     27  C   UNL     1      33.426 -13.811 -24.440  0.00  0.00    +0.202 C 
ATOM     28  C   UNL     1      33.325 -14.473 -25.638  0.00  0.00    +0.143 C 
ENDBRANCH  23  26
ENDBRANCH  17  18
ENDBRANCH  16  17
ENDBRANCH  10  11
ENDBRANCH   1  10
BRANCH   2  29
ATOM     29  C   UNL     1      34.832 -25.245 -13.283  0.00  0.00    -0.050 C 
BRANCH  29  30
ATOM     30  C   UNL     1      36.315 -25.444 -13.448  0.00  0.00    -0.043 C 
ATOM     31  C   UNL     1      37.208 -24.576 -12.819  0.00  0.00    -0.006 C 
ATOM     32  C   UNL     1      36.795 -26.495 -14.229  0.00  0.00    -0.006 C 
ATOM     33  C   UNL     1      38.582 -24.761 -12.972  0.00  0.00    +0.006 C 
ATOM     34  C   UNL     1      38.169 -26.679 -14.382  0.00  0.00    +0.006 C 
ATOM     35  C   UNL     1      39.064 -25.812 -13.753  0.00  0.00    +0.075 C 
BRANCH  35  37
ATOM     36  O   UNL     1      41.106 -27.056 -13.697  0.00  0.00    -0.245 OA
ATOM     37  C   UNL     1      40.495 -26.004 -13.912  0.00  0.00    +0.338 C 
BRANCH  37  38
ATOM     38  O   UNL     1      41.127 -24.876 -14.337  0.00  0.00    -0.477 OA
ATOM     39  H   UNL     1      40.860 -24.460 -15.134  0.00  0.00    +0.295 HD
ENDBRANCH  37  38
ENDBRANCH  35  37
ENDBRANCH  29  30
ENDBRANCH   2  29
TORSDOF 9
ENDMDL
MODEL 2
REMARK VINA RESULT:     -11.9      4.947      8.530
REMARK  Name = 68488178
REMARK  9 active torsions:
REMARK  status: ('A' for Active; 'I' for Inactive)
REMARK    1  A    between atoms: N_1  and  C_10
REMARK    2  A    between atoms: N_2  and  C_29
REMARK    3  A    between atoms: C_10  and  C_11
REMARK    4  A    between atoms: C_16  and  O_17
REMARK    5  A    between atoms: O_17  and  C_18
REMARK    6  A    between atoms: C_23  and  C_26
REMARK    7  A    between atoms: C_29  and  C_30
REMARK    8  A    between atoms: C_35  and  C_37
REMARK    9  A    between atoms: C_37  and  O_38
REMARK                            x       y       z     vdW  Elec       q    Type
REMARK                         _______ _______ _______ _____ _____    ______ ____
ROOT
ATOM      1  N   UNL     1      34.657 -17.051 -21.782  0.00  0.00    +0.388 N 
ATOM      2  N   UNL     1      35.082 -19.677 -20.903  0.00  0.00    +0.388 N 
ATOM      3  C   UNL     1      34.983 -18.160 -22.711  0.00  0.00    -0.081 C 
ATOM      4  C   UNL     1      36.163 -18.663 -20.939  0.00  0.00    -0.081 C 
ATOM      5  C   UNL     1      36.440 -18.470 -22.420  0.00  0.00    -0.046 C 
ATOM      6  C   UNL     1      35.504 -17.315 -20.592  0.00  0.00    -0.098 C 
ATOM      7  C   UNL     1      34.302 -19.416 -22.139  0.00  0.00    -0.098 C 
ATOM      8  H   UNL     1      33.662 -17.024 -21.554  0.00  0.00    -0.079 HD
ATOM      9  H   UNL     1      34.512 -19.599 -20.059  0.00  0.00    -0.079 HD
ENDROOT
BRANCH   1  10
ATOM     10  C   UNL     1      34.918 -15.738 -22.361  0.00  0.00    -0.050 C 
BRANCH  10  11
ATOM     11  C   UNL     1      33.881 -14.727 -21.949  0.00  0.00    -0.043 C 
ATOM     12  C   UNL     1      33.241 -13.951 -22.916  0.00  0.00    -0.003 C 
ATOM     13  C   UNL     1      33.561 -14.566 -20.600  0.00  0.00    -0.003 C 
ATOM     14  C   UNL     1      32.281 -13.014 -22.534  0.00  0.00    +0.037 C 
ATOM     15  C   UNL     1      32.601 -13.629 -20.219  0.00  0.00    +0.037 C 
ATOM     16  C   UNL     1      31.961 -12.853 -21.186  0.00  0.00    +0.145 C 
BRANCH  16  17
ATOM     17  O   UNL     1      31.024 -11.938 -20.814  0.00  0.00    -0.453 OA
BRANCH  17  18
ATOM     18  C   UNL     1      31.243 -10.615 -21.160  0.00  0.00    +0.145 C 
ATOM     19  C   UNL     1      30.923 -10.168 -22.442  0.00  0.00    +0.038 C 
ATOM     20  C   UNL     1      31.785  -9.730 -20.228  0.00  0.00    +0.038 C 
ATOM     21  C   UNL     1      31.147  -8.837 -22.792  0.00  0.00    +0.008 C 
ATOM     22  C   UNL     1      32.008  -8.399 -20.578  0.00  0.00    +0.008 C 
ATOM     23  C   UNL     1      31.689  -7.951 -21.861  0.00  0.00    +0.054 C 
BRANCH  23  26
ATOM     24  O   UNL     1      31.502  -5.657 -21.309  0.00  0.00    -0.431 OA
ATOM     25  N   UNL     1      32.476  -6.080 -23.306  0.00  0.00    -0.206 NA
ATOM     26  C   UNL     1      31.920  -6.574 -22.223  0.00  0.00    +0.230 C 
ATOM     27  C   UNL     1      31.829  -4.465 -21.881  0.00  0.00    +0.202 C 
ATOM     28  C   UNL     1      32.420  -4.726 -23.092  0.00  0.00    +0.143 C 
ENDBRANCH  23  26
ENDBRANCH  17  18
ENDBRANCH  16  17
ENDBRANCH  10  11
ENDBRANCH   1  10
BRANCH   2  29
ATOM     29  C   UNL     1      35.593 -21.042 -20.854  0.00  0.00    -0.050 C 
BRANCH  29  30
ATOM     30  C   UNL     1      35.410 -21.661 -19.494  0.00  0.00    -0.043 C 
ATOM     31  C   UNL     1      36.457 -21.642 -18.573  0.00  0.00    -0.006 C 
ATOM     32  C   UNL     1      34.193 -22.255 -19.156  0.00  0.00    -0.006 C 
ATOM     33  C   UNL     1      36.287 -22.216 -17.313  0.00  0.00    +0.006 C 
ATOM     34  C   UNL     1      34.024 -22.830 -17.897  0.00  0.00    +0.006 C 
ATOM     35  C   UNL     1      35.071 -22.809 -16.974  0.00  0.00    +0.075 C 
BRANCH  35  37
ATOM     36  O   UNL     1      34.893 -24.618 -15.420  0.00  0.00    -0.245 OA
ATOM     37  C   UNL     1      34.894 -23.407 -15.661  0.00  0.00    +0.338 C 
BRANCH  37  38
ATOM     38  O   UNL     1      34.725 -22.475 -14.683  0.00  0.00    -0.477 OA
ATOM     39  H   UNL     1      34.962 -22.675 -13.799  0.00  0.00    +0.295 HD
ENDBRANCH  37  38
ENDBRANCH  35  37
ENDBRANCH  29  30
ENDBRANCH   2  29
TORSDOF 9
ENDMDL
MODEL 3
REMARK VINA RESULT:     -11.8      3.017     12.448
REMARK  Name = 68488178
REMARK  9 active torsions:
REMARK  status: ('A' for Active; 'I' for Inactive)
REMARK    1  A    between atoms: N_1  and  C_10
REMARK    2  A    between atoms: N_2  and  C_29
REMARK    3  A    between atoms: C_10  and  C_11
REMARK    4  A    between atoms: C_16  and  O_17
REMARK    5  A    between atoms: O_17  and  C_18
REMARK    6  A    between atoms: C_23  and  C_26
REMARK    7  A    between atoms: C_29  and  C_30
REMARK    8  A    between atoms: C_35  and  C_37
REMARK    9  A    between atoms: C_37  and  O_38
REMARK                            x       y       z     vdW  Elec       q    Type
REMARK                         _______ _______ _______ _____ _____    ______ ____
ROOT
ATOM      1  N   UNL     1      34.768 -19.251 -21.345  0.00  0.00    +0.388 N 
ATOM      2  N   UNL     1      34.615 -16.635 -22.338  0.00  0.00    +0.388 N 
ATOM      3  C   UNL     1      35.819 -18.238 -21.087  0.00  0.00    -0.081 C 
ATOM      4  C   UNL     1      35.186 -17.756 -23.125  0.00  0.00    -0.081 C 
ATOM      5  C   UNL     1      36.502 -18.062 -22.431  0.00  0.00    -0.046 C 
ATOM      6  C   UNL     1      34.368 -19.007 -22.753  0.00  0.00    -0.098 C 
ATOM      7  C   UNL     1      35.093 -16.887 -20.955  0.00  0.00    -0.098 C 
ATOM      8  H   UNL     1      33.984 -19.162 -20.696  0.00  0.00    -0.079 HD
ATOM      9  H   UNL     1      33.597 -16.606 -22.399  0.00  0.00    -0.079 HD
ENDROOT
BRANCH   1  10
ATOM     10  C   UNL     1      35.240 -20.615 -21.137  0.00  0.00    -0.050 C 
BRANCH  10  11
ATOM     11  C   UNL     1      34.482 -21.310 -20.037  0.00  0.00    -0.043 C 
ATOM     12  C   UNL     1      33.152 -20.973 -19.787  0.00  0.00    -0.003 C 
ATOM     13  C   UNL     1      35.111 -22.290 -19.269  0.00  0.00    -0.003 C 
ATOM     14  C   UNL     1      32.450 -21.616 -18.767  0.00  0.00    +0.037 C 
ATOM     15  C   UNL     1      34.409 -22.933 -18.249  0.00  0.00    +0.037 C 
ATOM     16  C   UNL     1      33.078 -22.596 -17.999  0.00  0.00    +0.145 C 
BRANCH  16  17
ATOM     17  O   UNL     1      32.393 -23.223 -17.003  0.00  0.00    -0.453 OA
BRANCH  17  18
ATOM     18  C   UNL     1      33.064 -23.468 -15.816  0.00  0.00    +0.145 C 
ATOM     19  C   UNL     1      32.375 -23.991 -14.722  0.00  0.00    +0.038 C 
ATOM     20  C   UNL     1      34.427 -23.191 -15.715  0.00  0.00    +0.038 C 
ATOM     21  C   UNL     1      33.049 -24.235 -13.526  0.00  0.00    +0.008 C 
ATOM     22  C   UNL     1      35.101 -23.435 -14.518  0.00  0.00    +0.008 C 
ATOM     23  C   UNL     1      34.412 -23.958 -13.423  0.00  0.00    +0.054 C 
BRANCH  23  26
ATOM     24  O   UNL     1      36.212 -23.440 -11.976  0.00  0.00    -0.431 OA
ATOM     25  N   UNL     1      34.833 -25.073 -11.234  0.00  0.00    -0.206 NA
ATOM     26  C   UNL     1      35.109 -24.210 -12.186  0.00  0.00    +0.230 C 
ATOM     27  C   UNL     1      36.673 -23.868 -10.767  0.00  0.00    +0.202 C 
ATOM     28  C   UNL     1      35.833 -24.858 -10.321  0.00  0.00    +0.143 C 
ENDBRANCH  23  26
ENDBRANCH  17  18
ENDBRANCH  16  17
ENDBRANCH  10  11
ENDBRANCH   1  10
BRANCH   2  29
ATOM     29  C   UNL     1      35.033 -15.330 -22.835  0.00  0.00    -0.050 C 
BRANCH  29  30
ATOM     30  C   UNL     1      34.029 -14.258 -22.508  0.00  0.00    -0.043 C 
ATOM     31  C   UNL     1      33.271 -14.344 -21.340  0.00  0.00    -0.006 C 
ATOM     32  C   UNL     1      33.854 -13.178 -23.374  0.00  0.00    -0.006 C 
ATOM     33  C   UNL     1      32.340 -13.352 -21.038  0.00  0.00    +0.006 C 
ATOM     34  C   UNL     1      32.922 -12.186 -23.072  0.00  0.00    +0.006 C 
ATOM     35  C   UNL     1      32.165 -12.271 -21.903  0.00  0.00    +0.075 C 
BRANCH  35  37
ATOM     36  O   UNL     1      30.438 -11.237 -20.611  0.00  0.00    -0.245 OA
ATOM     37  C   UNL     1      31.195 -11.236 -21.588  0.00  0.00    +0.338 C 
BRANCH  37  38
ATOM     38  O   UNL     1      31.195 -10.227 -22.501  0.00  0.00    -0.477 OA
ATOM     39  H   UNL     1      30.553 -10.212 -23.184  0.00  0.00    +0.295 HD
ENDBRANCH  37  38
ENDBRANCH  35  37
ENDBRANCH  29  30
ENDBRANCH   2  29
TORSDOF 9
ENDMDL
MODEL 4
REMARK VINA RESULT:     -11.7      3.632      6.494
REMARK  Name = 68488178
REMARK  9 active torsions:
REMARK  status: ('A' for Active; 'I' for Inactive)
REMARK    1  A    between atoms: N_1  and  C_10
REMARK    2  A    between atoms: N_2  and  C_29
REMARK    3  A    between atoms: C_10  and  C_11
REMARK    4  A    between atoms: C_16  and  O_17
REMARK    5  A    between atoms: O_17  and  C_18
REMARK    6  A    between atoms: C_23  and  C_26
REMARK    7  A    between atoms: C_29  and  C_30
REMARK    8  A    between atoms: C_35  and  C_37
REMARK    9  A    between atoms: C_37  and  O_38
REMARK                            x       y       z     vdW  Elec       q    Type
REMARK                         _______ _______ _______ _____ _____    ______ ____
ROOT
ATOM      1  N   UNL     1      35.640 -19.553 -20.268  0.00  0.00    +0.388 N 
ATOM      2  N   UNL     1      34.366 -21.674 -18.953  0.00  0.00    +0.388 N 
ATOM      3  C   UNL     1      34.636 -20.417 -20.935  0.00  0.00    -0.081 C 
ATOM      4  C   UNL     1      35.679 -21.826 -19.627  0.00  0.00    -0.081 C 
ATOM      5  C   UNL     1      35.347 -21.747 -21.106  0.00  0.00    -0.046 C 
ATOM      6  C   UNL     1      36.424 -20.493 -19.428  0.00  0.00    -0.098 C 
ATOM      7  C   UNL     1      33.598 -20.783 -19.858  0.00  0.00    -0.098 C 
ATOM      8  H   UNL     1      35.202 -18.812 -19.719  0.00  0.00    -0.079 HD
ATOM      9  H   UNL     1      34.461 -21.287 -18.013  0.00  0.00    -0.079 HD
ENDROOT
BRANCH   1  10
ATOM     10  C   UNL     1      36.481 -18.834 -21.217  0.00  0.00    -0.050 C 
BRANCH  10  11
ATOM     11  C   UNL     1      35.692 -17.835 -22.021  0.00  0.00    -0.043 C 
ATOM     12  C   UNL     1      35.315 -16.621 -21.447  0.00  0.00    -0.003 C 
ATOM     13  C   UNL     1      35.338 -18.124 -23.339  0.00  0.00    -0.003 C 
ATOM     14  C   UNL     1      34.583 -15.695 -22.192  0.00  0.00    +0.037 C 
ATOM     15  C   UNL     1      34.607 -17.199 -24.084  0.00  0.00    +0.037 C 
ATOM     16  C   UNL     1      34.230 -15.984 -23.510  0.00  0.00    +0.145 C 
BRANCH  16  17
ATOM     17  O   UNL     1      33.515 -15.081 -24.237  0.00  0.00    -0.453 OA
BRANCH  17  18
ATOM     18  C   UNL     1      33.203 -13.874 -23.635  0.00  0.00    +0.145 C 
ATOM     19  C   UNL     1      32.266 -13.831 -22.603  0.00  0.00    +0.038 C 
ATOM     20  C   UNL     1      33.824 -12.700 -24.062  0.00  0.00    +0.038 C 
ATOM     21  C   UNL     1      31.949 -12.615 -21.999  0.00  0.00    +0.008 C 
ATOM     22  C   UNL     1      33.507 -11.484 -23.459  0.00  0.00    +0.008 C 
ATOM     23  C   UNL     1      32.569 -11.440 -22.426  0.00  0.00    +0.054 C 
BRANCH  23  26
ATOM     24  O   UNL     1      31.936 -10.255 -20.477  0.00  0.00    -0.431 OA
ATOM     25  N   UNL     1      32.193  -8.979 -22.327  0.00  0.00    -0.206 NA
ATOM     26  C   UNL     1      32.241 -10.182 -21.802  0.00  0.00    +0.230 C 
ATOM     27  C   UNL     1      31.670  -8.962 -20.140  0.00  0.00    +0.202 C 
ATOM     28  C   UNL     1      31.828  -8.192 -21.265  0.00  0.00    +0.143 C 
ENDBRANCH  23  26
ENDBRANCH  17  18
ENDBRANCH  16  17
ENDBRANCH  10  11
ENDBRANCH   1  10
BRANCH   2  29
ATOM     29  C   UNL     1      33.694 -22.951 -18.740  0.00  0.00    -0.050 C 
BRANCH  29  30
ATOM     30  C   UNL     1      33.335 -23.160 -17.293  0.00  0.00    -0.043 C 
ATOM     31  C   UNL     1      34.337 -23.411 -16.355  0.00  0.00    -0.006 C 
ATOM     32  C   UNL     1      32.000 -23.104 -16.890  0.00  0.00    -0.006 C 
ATOM     33  C   UNL     1      34.003 -23.605 -15.015  0.00  0.00    +0.006 C 
ATOM     34  C   UNL     1      31.667 -23.299 -15.550  0.00  0.00    +0.006 C 
ATOM     35  C   UNL     1      32.669 -23.549 -14.611  0.00  0.00    +0.075 C 
BRANCH  35  37
ATOM     36  O   UNL     1      31.211 -24.087 -12.793  0.00  0.00    -0.245 OA
ATOM     37  C   UNL     1      32.323 -23.751 -13.214  0.00  0.00    +0.338 C 
BRANCH  37  38
ATOM     38  O   UNL     1      33.375 -23.530 -12.380  0.00  0.00    -0.477 OA
ATOM     39  H   UNL     1      34.101 -23.011 -12.668  0.00  0.00    +0.295 HD
ENDBRANCH  37  38
ENDBRANCH  35  37
ENDBRANCH  29  30
ENDBRANCH   2  29
TORSDOF 9
ENDMDL
MODEL 5
REMARK VINA RESULT:     -11.6      5.504     15.383
REMARK  Name = 68488178
REMARK  9 active torsions:
REMARK  status: ('A' for Active; 'I' for Inactive)
REMARK    1  A    between atoms: N_1  and  C_10
REMARK    2  A    between atoms: N_2  and  C_29
REMARK    3  A    between atoms: C_10  and  C_11
REMARK    4  A    between atoms: C_16  and  O_17
REMARK    5  A    between atoms: O_17  and  C_18
REMARK    6  A    between atoms: C_23  and  C_26
REMARK    7  A    between atoms: C_29  and  C_30
REMARK    8  A    between atoms: C_35  and  C_37
REMARK    9  A    between atoms: C_37  and  O_38
REMARK                            x       y       z     vdW  Elec       q    Type
REMARK                         _______ _______ _______ _____ _____    ______ ____
ROOT
ATOM      1  N   UNL     1      32.634 -10.789 -22.321  0.00  0.00    +0.388 N 
ATOM      2  N   UNL     1      33.273  -8.083 -21.972  0.00  0.00    +0.388 N 
ATOM      3  C   UNL     1      32.482  -9.788 -23.404  0.00  0.00    -0.081 C 
ATOM      4  C   UNL     1      31.944  -8.642 -21.620  0.00  0.00    -0.081 C 
ATOM      5  C   UNL     1      31.302  -8.941 -22.964  0.00  0.00    -0.046 C 
ATOM      6  C   UNL     1      32.198 -10.068 -21.099  0.00  0.00    -0.098 C 
ATOM      7  C   UNL     1      33.637  -8.784 -23.229  0.00  0.00    -0.098 C 
ATOM      8  H   UNL     1      33.593 -11.133 -22.250  0.00  0.00    -0.079 HD
ATOM      9  H   UNL     1      33.958  -8.233 -21.230  0.00  0.00    -0.079 HD
ENDROOT
BRANCH   1  10
ATOM     10  C   UNL     1      31.848 -11.994 -22.557  0.00  0.00    -0.050 C 
BRANCH  10  11
ATOM     11  C   UNL     1      32.720 -13.180 -22.875  0.00  0.00    -0.043 C 
ATOM     12  C   UNL     1      32.779 -13.671 -24.179  0.00  0.00    -0.003 C 
ATOM     13  C   UNL     1      33.468 -13.787 -21.865  0.00  0.00    -0.003 C 
ATOM     14  C   UNL     1      33.587 -14.770 -24.474  0.00  0.00    +0.037 C 
ATOM     15  C   UNL     1      34.275 -14.885 -22.160  0.00  0.00    +0.037 C 
ATOM     16  C   UNL     1      34.335 -15.377 -23.465  0.00  0.00    +0.145 C 
BRANCH  16  17
ATOM     17  O   UNL     1      35.122 -16.449 -23.752  0.00  0.00    -0.453 OA
BRANCH  17  18
ATOM     18  C   UNL     1      35.100 -17.519 -22.873  0.00  0.00    +0.145 C 
ATOM     19  C   UNL     1      34.408 -18.682 -23.208  0.00  0.00    +0.038 C 
ATOM     20  C   UNL     1      35.768 -17.432 -21.651  0.00  0.00    +0.038 C 
ATOM     21  C   UNL     1      34.382 -19.758 -22.321  0.00  0.00    +0.008 C 
ATOM     22  C   UNL     1      35.742 -18.507 -20.764  0.00  0.00    +0.008 C 
ATOM     23  C   UNL     1      35.050 -19.672 -21.099  0.00  0.00    +0.054 C 
BRANCH  23  26
ATOM     24  O   UNL     1      33.782 -21.257 -19.881  0.00  0.00    -0.431 OA
ATOM     25  N   UNL     1      36.021 -21.406 -19.595  0.00  0.00    -0.206 NA
ATOM     26  C   UNL     1      35.023 -20.784 -20.182  0.00  0.00    +0.230 C 
ATOM     27  C   UNL     1      34.032 -22.280 -19.016  0.00  0.00    +0.202 C 
ATOM     28  C   UNL     1      35.392 -22.366 -18.847  0.00  0.00    +0.143 C 
ENDBRANCH  23  26
ENDBRANCH  17  18
ENDBRANCH  16  17
ENDBRANCH  10  11
ENDBRANCH   1  10
BRANCH   2  29
ATOM     29  C   UNL     1      33.247  -6.635 -22.138  0.00  0.00    -0.050 C 
BRANCH  29  30
ATOM     30  C   UNL     1      33.626  -6.225 -23.536  0.00  0.00    -0.043 C 
ATOM     31  C   UNL     1      32.639  -5.816 -24.434  0.00  0.00    -0.006 C 
ATOM     32  C   UNL     1      34.963  -6.254 -23.934  0.00  0.00    -0.006 C 
ATOM     33  C   UNL     1      32.990  -5.437 -25.729  0.00  0.00    +0.006 C 
ATOM     34  C   UNL     1      35.313  -5.876 -25.230  0.00  0.00    +0.006 C 
ATOM     35  C   UNL     1      34.327  -5.465 -26.128  0.00  0.00    +0.075 C 
BRANCH  35  37
ATOM     36  O   UNL     1      35.843  -5.016 -27.922  0.00  0.00    -0.245 OA
ATOM     37  C   UNL     1      34.692  -5.070 -27.478  0.00  0.00    +0.338 C 
BRANCH  37  38
ATOM     38  O   UNL     1      33.608  -4.752 -28.238  0.00  0.00    -0.477 OA
ATOM     39  H   UNL     1      33.011  -4.090 -27.950  0.00  0.00    +0.295 HD
ENDBRANCH  37  38
ENDBRANCH  35  37
ENDBRANCH  29  30
ENDBRANCH   2  29
TORSDOF 9
ENDMDL
MODEL 6
REMARK VINA RESULT:     -11.4      4.632      8.379
REMARK  Name = 68488178
REMARK  9 active torsions:
REMARK  status: ('A' for Active; 'I' for Inactive)
REMARK    1  A    between atoms: N_1  and  C_10
REMARK    2  A    between atoms: N_2  and  C_29
REMARK    3  A    between atoms: C_10  and  C_11
REMARK    4  A    between atoms: C_16  and  O_17
REMARK    5  A    between atoms: O_17  and  C_18
REMARK    6  A    between atoms: C_23  and  C_26
REMARK    7  A    between atoms: C_29  and  C_30
REMARK    8  A    between atoms: C_35  and  C_37
REMARK    9  A    between atoms: C_37  and  O_38
REMARK                            x       y       z     vdW  Elec       q    Type
REMARK                         _______ _______ _______ _____ _____    ______ ____
ROOT
ATOM      1  N   UNL     1      34.889 -17.402 -21.921  0.00  0.00    +0.388 N 
ATOM      2  N   UNL     1      35.354 -19.861 -20.661  0.00  0.00    +0.388 N 
ATOM      3  C   UNL     1      35.346 -18.603 -22.660  0.00  0.00    -0.081 C 
ATOM      4  C   UNL     1      36.387 -18.800 -20.747  0.00  0.00    -0.081 C 
ATOM      5  C   UNL     1      36.784 -18.789 -22.212  0.00  0.00    -0.046 C 
ATOM      6  C   UNL     1      35.639 -17.458 -20.641  0.00  0.00    -0.098 C 
ATOM      7  C   UNL     1      34.675 -19.810 -21.980  0.00  0.00    -0.098 C 
ATOM      8  H   UNL     1      33.877 -17.402 -21.780  0.00  0.00    -0.079 HD
ATOM      9  H   UNL     1      34.709 -19.704 -19.884  0.00  0.00    -0.079 HD
ENDROOT
BRANCH   1  10
ATOM     10  C   UNL     1      35.139 -16.164 -22.650  0.00  0.00    -0.050 C 
BRANCH  10  11
ATOM     11  C   UNL     1      34.168 -15.080 -22.266  0.00  0.00    -0.043 C 
ATOM     12  C   UNL     1      34.026 -14.714 -20.927  0.00  0.00    -0.003 C 
ATOM     13  C   UNL     1      33.411 -14.441 -23.248  0.00  0.00    -0.003 C 
ATOM     14  C   UNL     1      33.126 -13.710 -20.570  0.00  0.00    +0.037 C 
ATOM     15  C   UNL     1      32.511 -13.437 -22.891  0.00  0.00    +0.037 C 
ATOM     16  C   UNL     1      32.368 -13.071 -21.553  0.00  0.00    +0.145 C 
BRANCH  16  17
ATOM     17  O   UNL     1      31.490 -12.091 -21.205  0.00  0.00    -0.453 OA
BRANCH  17  18
ATOM     18  C   UNL     1      31.710 -10.820 -21.709  0.00  0.00    +0.145 C 
ATOM     19  C   UNL     1      31.418  -9.701 -20.930  0.00  0.00    +0.038 C 
ATOM     20  C   UNL     1      32.222 -10.660 -22.997  0.00  0.00    +0.038 C 
ATOM     21  C   UNL     1      31.636  -8.421 -21.439  0.00  0.00    +0.008 C 
ATOM     22  C   UNL     1      32.441  -9.380 -23.506  0.00  0.00    +0.008 C 
ATOM     23  C   UNL     1      32.148  -8.259 -22.726  0.00  0.00    +0.054 C 
BRANCH  23  26
ATOM     24  O   UNL     1      32.191  -5.921 -22.365  0.00  0.00    -0.431 OA
ATOM     25  N   UNL     1      32.730  -6.570 -24.463  0.00  0.00    -0.206 NA
ATOM     26  C   UNL     1      32.374  -6.936 -23.253  0.00  0.00    +0.230 C 
ATOM     27  C   UNL     1      32.460  -4.804 -23.098  0.00  0.00    +0.202 C 
ATOM     28  C   UNL     1      32.787  -5.203 -24.370  0.00  0.00    +0.143 C 
ENDBRANCH  23  26
ENDBRANCH  17  18
ENDBRANCH  16  17
ENDBRANCH  10  11
ENDBRANCH   1  10
BRANCH   2  29
ATOM     29  C   UNL     1      35.920 -21.176 -20.385  0.00  0.00    -0.050 C 
BRANCH  29  30
ATOM     30  C   UNL     1      35.288 -21.817 -19.179  0.00  0.00    -0.043 C 
ATOM     31  C   UNL     1      33.931 -22.143 -19.193  0.00  0.00    -0.006 C 
ATOM     32  C   UNL     1      36.058 -22.084 -18.046  0.00  0.00    -0.006 C 
ATOM     33  C   UNL     1      33.346 -22.736 -18.076  0.00  0.00    +0.006 C 
ATOM     34  C   UNL     1      35.472 -22.677 -16.929  0.00  0.00    +0.006 C 
ATOM     35  C   UNL     1      34.115 -23.005 -16.943  0.00  0.00    +0.075 C 
BRANCH  35  37
ATOM     36  O   UNL     1      34.078 -24.372 -14.981  0.00  0.00    -0.245 OA
ATOM     37  C   UNL     1      33.504 -23.624 -15.779  0.00  0.00    +0.338 C 
BRANCH  37  38
ATOM     38  O   UNL     1      32.192 -23.291 -15.641  0.00  0.00    -0.477 OA
ATOM     39  H   UNL     1      31.933 -22.657 -15.000  0.00  0.00    +0.295 HD
ENDBRANCH  37  38
ENDBRANCH  35  37
ENDBRANCH  29  30
ENDBRANCH   2  29
TORSDOF 9
ENDMDL
MODEL 7
REMARK VINA RESULT:     -11.3      4.707     13.727
REMARK  Name = 68488178
REMARK  9 active torsions:
REMARK  status: ('A' for Active; 'I' for Inactive)
REMARK    1  A    between atoms: N_1  and  C_10
REMARK    2  A    between atoms: N_2  and  C_29
REMARK    3  A    between atoms: C_10  and  C_11
REMARK    4  A    between atoms: C_16  and  O_17
REMARK    5  A    between atoms: O_17  and  C_18
REMARK    6  A    between atoms: C_23  and  C_26
REMARK    7  A    between atoms: C_29  and  C_30
REMARK    8  A    between atoms: C_35  and  C_37
REMARK    9  A    between atoms: C_37  and  O_38
REMARK                            x       y       z     vdW  Elec       q    Type
REMARK                         _______ _______ _______ _____ _____    ______ ____
ROOT
ATOM      1  N   UNL     1      33.381 -13.222 -22.558  0.00  0.00    +0.388 N 
ATOM      2  N   UNL     1      32.425 -11.483 -20.580  0.00  0.00    +0.388 N 
ATOM      3  C   UNL     1      32.603 -12.001 -22.878  0.00  0.00    -0.081 C 
ATOM      4  C   UNL     1      31.672 -12.683 -21.020  0.00  0.00    -0.081 C 
ATOM      5  C   UNL     1      31.194 -12.328 -22.416  0.00  0.00    -0.046 C 
ATOM      6  C   UNL     1      32.725 -13.761 -21.341  0.00  0.00    -0.098 C 
ATOM      7  C   UNL     1      33.008 -10.944 -21.834  0.00  0.00    -0.098 C 
ATOM      8  H   UNL     1      34.370 -13.015 -22.409  0.00  0.00    -0.079 HD
ATOM      9  H   UNL     1      33.138 -11.712 -19.886  0.00  0.00    -0.079 HD
ENDROOT
BRANCH   1  10
ATOM     10  C   UNL     1      33.387 -14.186 -23.652  0.00  0.00    -0.050 C 
BRANCH  10  11
ATOM     11  C   UNL     1      34.098 -15.458 -23.274  0.00  0.00    -0.043 C 
ATOM     12  C   UNL     1      34.668 -15.588 -22.008  0.00  0.00    -0.003 C 
ATOM     13  C   UNL     1      34.186 -16.507 -24.190  0.00  0.00    -0.003 C 
ATOM     14  C   UNL     1      35.327 -16.767 -21.657  0.00  0.00    +0.037 C 
ATOM     15  C   UNL     1      34.845 -17.686 -23.840  0.00  0.00    +0.037 C 
ATOM     16  C   UNL     1      35.416 -17.815 -22.573  0.00  0.00    +0.145 C 
BRANCH  16  17
ATOM     17  O   UNL     1      36.059 -18.965 -22.232  0.00  0.00    -0.453 OA
BRANCH  17  18
ATOM     18  C   UNL     1      35.465 -19.778 -21.281  0.00  0.00    +0.145 C 
ATOM     19  C   UNL     1      34.076 -19.889 -21.229  0.00  0.00    +0.038 C 
ATOM     20  C   UNL     1      36.256 -20.484 -20.374  0.00  0.00    +0.038 C 
ATOM     21  C   UNL     1      33.477 -20.704 -20.269  0.00  0.00    +0.008 C 
ATOM     22  C   UNL     1      35.657 -21.299 -19.414  0.00  0.00    +0.008 C 
ATOM     23  C   UNL     1      34.267 -21.411 -19.361  0.00  0.00    +0.054 C 
BRANCH  23  26
ATOM     24  O   UNL     1      34.510 -22.993 -17.618  0.00  0.00    -0.431 OA
ATOM     25  N   UNL     1      32.375 -22.411 -18.085  0.00  0.00    -0.206 NA
ATOM     26  C   UNL     1      33.648 -22.254 -18.369  0.00  0.00    +0.230 C 
ATOM     27  C   UNL     1      33.689 -23.684 -16.778  0.00  0.00    +0.202 C 
ATOM     28  C   UNL     1      32.395 -23.327 -17.065  0.00  0.00    +0.143 C 
ENDBRANCH  23  26
ENDBRANCH  17  18
ENDBRANCH  16  17
ENDBRANCH  10  11
ENDBRANCH   1  10
BRANCH   2  29
ATOM     29  C   UNL     1      31.580 -10.506 -19.904  0.00  0.00    -0.050 C 
BRANCH  29  30
ATOM     30  C   UNL     1      31.767  -9.121 -20.462  0.00  0.00    -0.043 C 
ATOM     31  C   UNL     1      31.177  -8.773 -21.677  0.00  0.00    -0.006 C 
ATOM     32  C   UNL     1      32.533  -8.185 -19.765  0.00  0.00    -0.006 C 
ATOM     33  C   UNL     1      31.351  -7.490 -22.194  0.00  0.00    +0.006 C 
ATOM     34  C   UNL     1      32.707  -6.903 -20.283  0.00  0.00    +0.006 C 
ATOM     35  C   UNL     1      32.116  -6.553 -21.497  0.00  0.00    +0.075 C 
BRANCH  35  37
ATOM     36  O   UNL     1      31.947  -4.168 -21.485  0.00  0.00    -0.245 OA
ATOM     37  C   UNL     1      32.297  -5.216 -22.037  0.00  0.00    +0.338 C 
BRANCH  37  38
ATOM     38  O   UNL     1      32.912  -5.224 -23.251  0.00  0.00    -0.477 OA
ATOM     39  H   UNL     1      33.516  -4.543 -23.475  0.00  0.00    +0.295 HD
ENDBRANCH  37  38
ENDBRANCH  35  37
ENDBRANCH  29  30
ENDBRANCH   2  29
TORSDOF 9
ENDMDL
MODEL 8
REMARK VINA RESULT:     -11.3      5.499     10.617
REMARK  Name = 68488178
REMARK  9 active torsions:
REMARK  status: ('A' for Active; 'I' for Inactive)
REMARK    1  A    between atoms: N_1  and  C_10
REMARK    2  A    between atoms: N_2  and  C_29
REMARK    3  A    between atoms: C_10  and  C_11
REMARK    4  A    between atoms: C_16  and  O_17
REMARK    5  A    between atoms: O_17  and  C_18
REMARK    6  A    between atoms: C_23  and  C_26
REMARK    7  A    between atoms: C_29  and  C_30
REMARK    8  A    between atoms: C_35  and  C_37
REMARK    9  A    between atoms: C_37  and  O_38
REMARK                            x       y       z     vdW  Elec       q    Type
REMARK                         _______ _______ _______ _____ _____    ______ ____
ROOT
ATOM      1  N   UNL     1      33.444 -15.386 -23.801  0.00  0.00    +0.388 N 
ATOM      2  N   UNL     1      34.670 -17.625 -22.645  0.00  0.00    +0.388 N 
ATOM      3  C   UNL     1      34.264 -16.339 -24.586  0.00  0.00    -0.081 C 
ATOM      4  C   UNL     1      35.308 -16.286 -22.664  0.00  0.00    -0.081 C 
ATOM      5  C   UNL     1      35.685 -16.076 -24.120  0.00  0.00    -0.046 C 
ATOM      6  C   UNL     1      34.169 -15.261 -22.511  0.00  0.00    -0.098 C 
ATOM      7  C   UNL     1      34.014 -17.730 -23.974  0.00  0.00    -0.098 C 
ATOM      8  H   UNL     1      32.486 -15.717 -23.679  0.00  0.00    -0.079 HD
ATOM      9  H   UNL     1      34.006 -17.721 -21.875  0.00  0.00    -0.079 HD
ENDROOT
BRANCH   1  10
ATOM     10  C   UNL     1      33.286 -14.099 -24.468  0.00  0.00    -0.050 C 
BRANCH  10  11
ATOM     11  C   UNL     1      32.929 -13.004 -23.499  0.00  0.00    -0.043 C 
ATOM     12  C   UNL     1      31.955 -13.226 -22.524  0.00  0.00    -0.003 C 
ATOM     13  C   UNL     1      33.571 -11.768 -23.575  0.00  0.00    -0.003 C 
ATOM     14  C   UNL     1      31.624 -12.212 -21.626  0.00  0.00    +0.037 C 
ATOM     15  C   UNL     1      33.239 -10.753 -22.677  0.00  0.00    +0.037 C 
ATOM     16  C   UNL     1      32.266 -10.975 -21.702  0.00  0.00    +0.145 C 
BRANCH  16  17
ATOM     17  O   UNL     1      31.942  -9.985 -20.826  0.00  0.00    -0.453 OA
BRANCH  17  18
ATOM     18  C   UNL     1      31.813  -8.700 -21.326  0.00  0.00    +0.145 C 
ATOM     19  C   UNL     1      31.259  -8.496 -22.590  0.00  0.00    +0.038 C 
ATOM     20  C   UNL     1      32.237  -7.610 -20.567  0.00  0.00    +0.038 C 
ATOM     21  C   UNL     1      31.131  -7.203 -23.095  0.00  0.00    +0.008 C 
ATOM     22  C   UNL     1      32.110  -6.316 -21.072  0.00  0.00    +0.008 C 
ATOM     23  C   UNL     1      31.556  -6.112 -22.336  0.00  0.00    +0.054 C 
BRANCH  23  26
ATOM     24  O   UNL     1      32.063  -3.808 -22.143  0.00  0.00    -0.431 OA
ATOM     25  N   UNL     1      30.780  -4.354 -23.924  0.00  0.00    -0.206 NA
ATOM     26  C   UNL     1      31.425  -4.774 -22.859  0.00  0.00    +0.230 C 
ATOM     27  C   UNL     1      31.787  -2.666 -22.833  0.00  0.00    +0.202 C 
ATOM     28  C   UNL     1      31.009  -3.003 -23.912  0.00  0.00    +0.143 C 
ENDBRANCH  23  26
ENDBRANCH  17  18
ENDBRANCH  16  17
ENDBRANCH  10  11
ENDBRANCH   1  10
BRANCH   2  29
ATOM     29  C   UNL     1      35.627 -18.701 -22.419  0.00  0.00    -0.050 C 
BRANCH  29  30
ATOM     30  C   UNL     1      35.144 -19.672 -21.375  0.00  0.00    -0.043 C 
ATOM     31  C   UNL     1      33.776 -19.845 -21.165  0.00  0.00    -0.006 C 
ATOM     32  C   UNL     1      36.064 -20.397 -20.617  0.00  0.00    -0.006 C 
ATOM     33  C   UNL     1      33.328 -20.744 -20.197  0.00  0.00    +0.006 C 
ATOM     34  C   UNL     1      35.616 -21.295 -19.649  0.00  0.00    +0.006 C 
ATOM     35  C   UNL     1      34.248 -21.470 -19.439  0.00  0.00    +0.075 C 
BRANCH  35  37
ATOM     36  O   UNL     1      32.605 -22.744 -18.256  0.00  0.00    -0.245 OA
ATOM     37  C   UNL     1      33.781 -22.407 -18.431  0.00  0.00    +0.338 C 
BRANCH  37  38
ATOM     38  O   UNL     1      34.795 -22.899 -17.669  0.00  0.00    -0.477 OA
ATOM     39  H   UNL     1      34.796 -23.802 -17.417  0.00  0.00    +0.295 HD
ENDBRANCH  37  38
ENDBRANCH  35  37
ENDBRANCH  29  30
ENDBRANCH   2  29
TORSDOF 9
ENDMDL
MODEL 9
REMARK VINA RESULT:     -11.1      6.178     15.861
REMARK  Name = 68488178
REMARK  9 active torsions:
REMARK  status: ('A' for Active; 'I' for Inactive)
REMARK    1  A    between atoms: N_1  and  C_10
REMARK    2  A    between atoms: N_2  and  C_29
REMARK    3  A    between atoms: C_10  and  C_11
REMARK    4  A    between atoms: C_16  and  O_17
REMARK    5  A    between atoms: O_17  and  C_18
REMARK    6  A    between atoms: C_23  and  C_26
REMARK    7  A    between atoms: C_29  and  C_30
REMARK    8  A    between atoms: C_35  and  C_37
REMARK    9  A    between atoms: C_37  and  O_38
REMARK                            x       y       z     vdW  Elec       q    Type
REMARK                         _______ _______ _______ _____ _____    ______ ____
ROOT
ATOM      1  N   UNL     1      32.766 -10.583 -22.288  0.00  0.00    +0.388 N 
ATOM      2  N   UNL     1      33.777  -8.010 -22.749  0.00  0.00    +0.388 N 
ATOM      3  C   UNL     1      33.362 -10.181 -23.585  0.00  0.00    -0.081 C 
ATOM      4  C   UNL     1      32.347  -8.353 -22.943  0.00  0.00    -0.081 C 
ATOM      5  C   UNL     1      32.342  -9.230 -24.183  0.00  0.00    -0.046 C 
ATOM      6  C   UNL     1      31.998  -9.387 -21.858  0.00  0.00    -0.098 C 
ATOM      7  C   UNL     1      34.504  -9.204 -23.251  0.00  0.00    -0.098 C 
ATOM      8  H   UNL     1      33.478 -10.854 -21.608  0.00  0.00    -0.079 HD
ATOM      9  H   UNL     1      33.991  -7.805 -21.772  0.00  0.00    -0.079 HD
ENDROOT
BRANCH   1  10
ATOM     10  C   UNL     1      31.922 -11.766 -22.400  0.00  0.00    -0.050 C 
BRANCH  10  11
ATOM     11  C   UNL     1      32.711 -12.981 -22.808  0.00  0.00    -0.043 C 
ATOM     12  C   UNL     1      32.697 -13.408 -24.136  0.00  0.00    -0.003 C 
ATOM     13  C   UNL     1      33.455 -13.681 -21.858  0.00  0.00    -0.003 C 
ATOM     14  C   UNL     1      33.428 -14.534 -24.514  0.00  0.00    +0.037 C 
ATOM     15  C   UNL     1      34.186 -14.807 -22.236  0.00  0.00    +0.037 C 
ATOM     16  C   UNL     1      34.173 -15.234 -23.564  0.00  0.00    +0.145 C 
BRANCH  16  17
ATOM     17  O   UNL     1      34.885 -16.334 -23.933  0.00  0.00    -0.453 OA
BRANCH  17  18
ATOM     18  C   UNL     1      34.976 -17.376 -23.025  0.00  0.00    +0.145 C 
ATOM     19  C   UNL     1      35.585 -17.172 -21.788  0.00  0.00    +0.038 C 
ATOM     20  C   UNL     1      34.459 -18.630 -23.350  0.00  0.00    +0.038 C 
ATOM     21  C   UNL     1      35.679 -18.222 -20.875  0.00  0.00    +0.008 C 
ATOM     22  C   UNL     1      34.553 -19.681 -22.437  0.00  0.00    +0.008 C 
ATOM     23  C   UNL     1      35.163 -19.477 -21.199  0.00  0.00    +0.054 C 
BRANCH  23  26
ATOM     24  O   UNL     1      34.103 -21.245 -20.035  0.00  0.00    -0.431 OA
ATOM     25  N   UNL     1      36.304 -20.989 -19.579  0.00  0.00    -0.206 NA
ATOM     26  C   UNL     1      35.261 -20.563 -20.255  0.00  0.00    +0.230 C 
ATOM     27  C   UNL     1      34.461 -22.194 -19.126  0.00  0.00    +0.202 C 
ATOM     28  C   UNL     1      35.796 -22.036 -18.853  0.00  0.00    +0.143 C 
ENDBRANCH  23  26
ENDBRANCH  17  18
ENDBRANCH  16  17
ENDBRANCH  10  11
ENDBRANCH   1  10
BRANCH   2  29
ATOM     29  C   UNL     1      34.165  -6.795 -23.455  0.00  0.00    -0.050 C 
BRANCH  29  30
ATOM     30  C   UNL     1      33.175  -5.681 -23.238  0.00  0.00    -0.043 C 
ATOM     31  C   UNL     1      32.744  -4.911 -24.319  0.00  0.00    -0.006 C 
ATOM     32  C   UNL     1      32.690  -5.418 -21.957  0.00  0.00    -0.006 C 
ATOM     33  C   UNL     1      31.829  -3.879 -24.118  0.00  0.00    +0.006 C 
ATOM     34  C   UNL     1      31.775  -4.385 -21.756  0.00  0.00    +0.006 C 
ATOM     35  C   UNL     1      31.343  -3.616 -22.837  0.00  0.00    +0.075 C 
BRANCH  35  37
ATOM     36  O   UNL     1      30.205  -1.941 -21.563  0.00  0.00    -0.245 OA
ATOM     37  C   UNL     1      30.388  -2.541 -22.628  0.00  0.00    +0.338 C 
BRANCH  37  38
ATOM     38  O   UNL     1      29.686  -2.241 -23.755  0.00  0.00    -0.477 OA
ATOM     39  H   UNL     1      28.774  -2.453 -23.810  0.00  0.00    +0.295 HD
ENDBRANCH  37  38
ENDBRANCH  35  37
ENDBRANCH  29  30
ENDBRANCH   2  29
TORSDOF 9
ENDMDL
