MODEL 1
REMARK VINA RESULT:     -11.3      0.000      0.000
REMARK  Name = 447734
REMARK  5 active torsions:
REMARK  status: ('A' for Active; 'I' for Inactive)
REMARK    1  A    between atoms: C_3  and  C_19
REMARK    2  A    between atoms: C_9  and  C_13
REMARK    3  A    between atoms: N_18  and  C_24
REMARK    4  A    between atoms: C_21  and  O_27
REMARK    5  A    between atoms: O_27  and  C_28
REMARK                            x       y       z     vdW  Elec       q    Type
REMARK                         _______ _______ _______ _____ _____    ______ ____
ROOT
ATOM      1  C   UNL     1      35.101 -20.613 -20.176  0.00  0.00    +0.000 C 
ATOM      2  C   UNL     1      33.888 -20.153 -20.742  0.00  0.00    +0.000 C 
ATOM      3  C   UNL     1      33.847 -22.141 -18.759  0.00  0.00    +0.054 C 
ATOM      4  C   UNL     1      35.062 -21.608 -19.186  0.00  0.00    +0.005 C 
ATOM      5  C   UNL     1      32.672 -20.701 -20.300  0.00  0.00    +0.000 C 
ATOM      6  C   UNL     1      32.654 -21.689 -19.315  0.00  0.00    +0.005 C 
ATOM      7  C   UNL     1      33.926 -19.158 -21.733  0.00  0.00    +0.003 C 
ATOM      8  C   UNL     1      36.316 -20.064 -20.618  0.00  0.00    +0.000 C 
ATOM      9  C   UNL     1      35.142 -18.625 -22.160  0.00  0.00    +0.031 C 
ATOM     10  C   UNL     1      36.335 -19.077 -21.604  0.00  0.00    +0.003 C 
ENDROOT
BRANCH   9  13
ATOM     11  N   UNL     1      34.639 -17.827 -24.457  0.00  0.00    -0.343 N 
ATOM     12  N   UNL     1      35.695 -16.415 -22.924  0.00  0.00    -0.285 NA
ATOM     13  C   UNL     1      35.164 -17.595 -23.187  0.00  0.00    +0.117 C 
ATOM     14  H   UNL     1      34.664 -17.115 -25.137  0.00  0.00    +0.144 HD
ATOM     15  H   UNL     1      34.242 -18.702 -24.674  0.00  0.00    +0.144 HD
ATOM     16  H   UNL     1      35.711 -15.716 -23.618  0.00  0.00    +0.188 HD
ENDBRANCH   9  13
BRANCH   3  19
ATOM     17  O   UNL     1      33.724 -24.360 -18.071  0.00  0.00    -0.270 OA
ATOM     18  N   UNL     1      33.945 -22.718 -16.410  0.00  0.00    -0.280 N 
ATOM     19  C   UNL     1      33.824 -23.170 -17.731  0.00  0.00    +0.249 C 
ATOM     20  H   UNL     1      34.015 -21.743 -16.296  0.00  0.00    +0.155 HD
BRANCH  18  24
ATOM     21  C   UNL     1      35.228 -24.460 -13.420  0.00  0.00    +0.140 C 
ATOM     22  C   UNL     1      35.194 -23.708 -14.593  0.00  0.00    +0.052 C 
ATOM     23  C   UNL     1      34.045 -24.974 -12.887  0.00  0.00    +0.037 C 
ATOM     24  C   UNL     1      33.979 -23.481 -15.217  0.00  0.00    +0.054 C 
ATOM     25  C   UNL     1      32.830 -24.736 -13.529  0.00  0.00    +0.004 C 
ATOM     26  C   UNL     1      32.796 -23.984 -14.702  0.00  0.00    +0.015 C 
BRANCH  21  27
ATOM     27  O   UNL     1      36.413 -24.693 -12.793  0.00  0.00    -0.479 OA
BRANCH  27  28
ATOM     28  C   UNL     1      36.838 -26.047 -12.696  0.00  0.00    +0.166 C 
ATOM     29  C   UNL     1      38.222 -26.098 -12.066  0.00  0.00    +0.044 C 
ATOM     30  C   UNL     1      37.070 -26.631 -14.080  0.00  0.00    +0.044 C 
ATOM     31  C   UNL     1      39.176 -25.755 -13.209  0.00  0.00    +0.004 C 
ATOM     32  C   UNL     1      38.425 -26.068 -14.503  0.00  0.00    +0.004 C 
ENDBRANCH  27  28
ENDBRANCH  21  27
ENDBRANCH  18  24
ENDBRANCH   3  19
TORSDOF 5
ENDMDL
MODEL 2
REMARK VINA RESULT:     -11.2      7.844     12.196
REMARK  Name = 447734
REMARK  5 active torsions:
REMARK  status: ('A' for Active; 'I' for Inactive)
REMARK    1  A    between atoms: C_3  and  C_19
REMARK    2  A    between atoms: C_9  and  C_13
REMARK    3  A    between atoms: N_18  and  C_24
REMARK    4  A    between atoms: C_21  and  O_27
REMARK    5  A    between atoms: O_27  and  C_28
REMARK                            x       y       z     vdW  Elec       q    Type
REMARK                         _______ _______ _______ _____ _____    ______ ____
ROOT
ATOM      1  C   UNL     1      32.173  -9.116 -22.892  0.00  0.00    +0.000 C 
ATOM      2  C   UNL     1      31.733  -8.574 -21.662  0.00  0.00    +0.000 C 
ATOM      3  C   UNL     1      32.213 -11.332 -21.890  0.00  0.00    +0.054 C 
ATOM      4  C   UNL     1      32.409 -10.497 -22.990  0.00  0.00    +0.005 C 
ATOM      5  C   UNL     1      31.540  -9.429 -20.564  0.00  0.00    +0.000 C 
ATOM      6  C   UNL     1      31.779 -10.798 -20.679  0.00  0.00    +0.005 C 
ATOM      7  C   UNL     1      31.497  -7.192 -21.564  0.00  0.00    +0.003 C 
ATOM      8  C   UNL     1      32.365  -8.260 -23.990  0.00  0.00    +0.000 C 
ATOM      9  C   UNL     1      31.692  -6.357 -22.665  0.00  0.00    +0.031 C 
ATOM     10  C   UNL     1      32.125  -6.890 -23.875  0.00  0.00    +0.003 C 
ENDROOT
BRANCH   9  13
ATOM     11  N   UNL     1      31.870  -4.209 -21.433  0.00  0.00    -0.343 N 
ATOM     12  N   UNL     1      30.796  -4.293 -23.506  0.00  0.00    -0.285 NA
ATOM     13  C   UNL     1      31.443  -4.929 -22.547  0.00  0.00    +0.117 C 
ATOM     14  H   UNL     1      31.692  -3.242 -21.374  0.00  0.00    +0.144 HD
ATOM     15  H   UNL     1      32.352  -4.666 -20.706  0.00  0.00    +0.144 HD
ATOM     16  H   UNL     1      30.627  -3.326 -23.429  0.00  0.00    +0.188 HD
ENDBRANCH   9  13
BRANCH   3  19
ATOM     17  O   UNL     1      31.891 -13.538 -21.225  0.00  0.00    -0.270 OA
ATOM     18  N   UNL     1      33.331 -13.146 -23.037  0.00  0.00    -0.280 N 
ATOM     19  C   UNL     1      32.462 -12.759 -22.007  0.00  0.00    +0.249 C 
ATOM     20  H   UNL     1      33.708 -12.415 -23.575  0.00  0.00    +0.155 HD
BRANCH  18  24
ATOM     21  C   UNL     1      34.862 -16.500 -22.861  0.00  0.00    +0.140 C 
ATOM     22  C   UNL     1      34.461 -15.215 -22.500  0.00  0.00    +0.052 C 
ATOM     23  C   UNL     1      34.533 -17.006 -24.119  0.00  0.00    +0.037 C 
ATOM     24  C   UNL     1      33.737 -14.453 -23.403  0.00  0.00    +0.054 C 
ATOM     25  C   UNL     1      33.804 -16.225 -25.016  0.00  0.00    +0.004 C 
ATOM     26  C   UNL     1      33.403 -14.940 -24.655  0.00  0.00    +0.015 C 
BRANCH  21  27
ATOM     27  O   UNL     1      35.574 -17.262 -21.987  0.00  0.00    -0.479 OA
BRANCH  27  28
ATOM     28  C   UNL     1      36.046 -18.518 -22.459  0.00  0.00    +0.166 C 
ATOM     29  C   UNL     1      35.052 -19.606 -22.083  0.00  0.00    +0.044 C 
ATOM     30  C   UNL     1      37.304 -18.927 -21.708  0.00  0.00    +0.044 C 
ATOM     31  C   UNL     1      35.353 -19.909 -20.615  0.00  0.00    +0.004 C 
ATOM     32  C   UNL     1      36.788 -19.444 -20.367  0.00  0.00    +0.004 C 
ENDBRANCH  27  28
ENDBRANCH  21  27
ENDBRANCH  18  24
ENDBRANCH   3  19
TORSDOF 5
ENDMDL
MODEL 3
REMARK VINA RESULT:     -11.1      3.325     10.722
REMARK  Name = 447734
REMARK  5 active torsions:
REMARK  status: ('A' for Active; 'I' for Inactive)
REMARK    1  A    between atoms: C_3  and  C_19
REMARK    2  A    between atoms: C_9  and  C_13
REMARK    3  A    between atoms: N_18  and  C_24
REMARK    4  A    between atoms: C_21  and  O_27
REMARK    5  A    between atoms: O_27  and  C_28
REMARK                            x       y       z     vdW  Elec       q    Type
REMARK                         _______ _______ _______ _____ _____    ______ ____
ROOT
ATOM      1  C   UNL     1      34.603 -22.784 -17.165  0.00  0.00    +0.000 C 
ATOM      2  C   UNL     1      35.983 -22.675 -16.871  0.00  0.00    +0.000 C 
ATOM      3  C   UNL     1      34.921 -21.374 -19.122  0.00  0.00    +0.054 C 
ATOM      4  C   UNL     1      34.088 -22.127 -18.295  0.00  0.00    +0.005 C 
ATOM      5  C   UNL     1      36.807 -21.913 -17.714  0.00  0.00    +0.000 C 
ATOM      6  C   UNL     1      36.279 -21.267 -18.832  0.00  0.00    +0.005 C 
ATOM      7  C   UNL     1      36.498 -23.332 -15.741  0.00  0.00    +0.003 C 
ATOM      8  C   UNL     1      33.779 -23.547 -16.322  0.00  0.00    +0.000 C 
ATOM      9  C   UNL     1      35.665 -24.087 -14.914  0.00  0.00    +0.031 C 
ATOM     10  C   UNL     1      34.308 -24.194 -15.204  0.00  0.00    +0.003 C 
ENDROOT
BRANCH   9  13
ATOM     11  N   UNL     1      37.583 -24.762 -13.491  0.00  0.00    -0.343 N 
ATOM     12  N   UNL     1      35.408 -25.392 -12.913  0.00  0.00    -0.285 NA
ATOM     13  C   UNL     1      36.214 -24.761 -13.748  0.00  0.00    +0.117 C 
ATOM     14  H   UNL     1      37.934 -25.225 -12.695  0.00  0.00    +0.144 HD
ATOM     15  H   UNL     1      38.201 -24.300 -14.103  0.00  0.00    +0.144 HD
ATOM     16  H   UNL     1      35.778 -25.849 -12.123  0.00  0.00    +0.188 HD
ENDBRANCH   9  13
BRANCH   3  19
ATOM     17  O   UNL     1      33.181 -20.884 -20.586  0.00  0.00    -0.270 OA
ATOM     18  N   UNL     1      35.254 -19.855 -20.977  0.00  0.00    -0.280 N 
ATOM     19  C   UNL     1      34.372 -20.699 -20.287  0.00  0.00    +0.249 C 
ATOM     20  H   UNL     1      36.170 -19.811 -20.621  0.00  0.00    +0.155 HD
BRANCH  18  24
ATOM     21  C   UNL     1      34.832 -16.896 -23.143  0.00  0.00    +0.140 C 
ATOM     22  C   UNL     1      35.086 -17.680 -22.018  0.00  0.00    +0.052 C 
ATOM     23  C   UNL     1      34.496 -17.502 -24.353  0.00  0.00    +0.037 C 
ATOM     24  C   UNL     1      34.998 -19.059 -22.120  0.00  0.00    +0.054 C 
ATOM     25  C   UNL     1      34.411 -18.892 -24.439  0.00  0.00    +0.004 C 
ATOM     26  C   UNL     1      34.665 -19.676 -23.314  0.00  0.00    +0.015 C 
BRANCH  21  27
ATOM     27  O   UNL     1      34.914 -15.541 -23.060  0.00  0.00    -0.479 OA
BRANCH  27  28
ATOM     28  C   UNL     1      33.717 -14.838 -22.746  0.00  0.00    +0.166 C 
ATOM     29  C   UNL     1      32.956 -14.537 -24.028  0.00  0.00    +0.044 C 
ATOM     30  C   UNL     1      34.042 -13.455 -22.205  0.00  0.00    +0.044 C 
ATOM     31  C   UNL     1      33.663 -13.314 -24.614  0.00  0.00    +0.004 C 
ATOM     32  C   UNL     1      34.385 -12.638 -23.449  0.00  0.00    +0.004 C 
ENDBRANCH  27  28
ENDBRANCH  21  27
ENDBRANCH  18  24
ENDBRANCH   3  19
TORSDOF 5
ENDMDL
MODEL 4
REMARK VINA RESULT:     -10.9      5.110     12.089
REMARK  Name = 447734
REMARK  5 active torsions:
REMARK  status: ('A' for Active; 'I' for Inactive)
REMARK    1  A    between atoms: C_3  and  C_19
REMARK    2  A    between atoms: C_9  and  C_13
REMARK    3  A    between atoms: N_18  and  C_24
REMARK    4  A    between atoms: C_21  and  O_27
REMARK    5  A    between atoms: O_27  and  C_28
REMARK                            x       y       z     vdW  Elec       q    Type
REMARK                         _______ _______ _______ _____ _____    ______ ____
ROOT
ATOM      1  C   UNL     1      34.242 -20.155 -20.571  0.00  0.00    +0.000 C 
ATOM      2  C   UNL     1      35.558 -20.356 -20.090  0.00  0.00    +0.000 C 
ATOM      3  C   UNL     1      35.081 -18.495 -22.139  0.00  0.00    +0.054 C 
ATOM      4  C   UNL     1      34.021 -19.220 -21.596  0.00  0.00    +0.005 C 
ATOM      5  C   UNL     1      36.614 -19.617 -20.648  0.00  0.00    +0.000 C 
ATOM      6  C   UNL     1      36.375 -18.693 -21.666  0.00  0.00    +0.005 C 
ATOM      7  C   UNL     1      35.779 -21.291 -19.065  0.00  0.00    +0.003 C 
ATOM      8  C   UNL     1      33.186 -20.894 -20.013  0.00  0.00    +0.000 C 
ATOM      9  C   UNL     1      34.718 -22.017 -18.522  0.00  0.00    +0.031 C 
ATOM     10  C   UNL     1      33.424 -21.819 -18.996  0.00  0.00    +0.003 C 
ENDROOT
BRANCH   9  13
ATOM     11  N   UNL     1      36.118 -22.921 -16.682  0.00  0.00    -0.343 N 
ATOM     12  N   UNL     1      34.086 -23.939 -17.227  0.00  0.00    -0.285 NA
ATOM     13  C   UNL     1      34.964 -22.981 -17.462  0.00  0.00    +0.117 C 
ATOM     14  H   UNL     1      36.264 -23.584 -15.968  0.00  0.00    +0.144 HD
ATOM     15  H   UNL     1      36.786 -22.216 -16.844  0.00  0.00    +0.144 HD
ATOM     16  H   UNL     1      34.250 -24.592 -16.509  0.00  0.00    +0.188 HD
ENDBRANCH   9  13
BRANCH   3  19
ATOM     17  O   UNL     1      34.983 -17.882 -24.381  0.00  0.00    -0.270 OA
ATOM     18  N   UNL     1      34.418 -16.258 -22.784  0.00  0.00    -0.280 N 
ATOM     19  C   UNL     1      34.836 -17.530 -23.199  0.00  0.00    +0.249 C 
ATOM     20  H   UNL     1      34.348 -16.127 -21.812  0.00  0.00    +0.155 HD
BRANCH  18  24
ATOM     21  C   UNL     1      33.684 -12.780 -23.778  0.00  0.00    +0.140 C 
ATOM     22  C   UNL     1      34.013 -13.885 -22.993  0.00  0.00    +0.052 C 
ATOM     23  C   UNL     1      33.433 -12.943 -25.141  0.00  0.00    +0.037 C 
ATOM     24  C   UNL     1      34.086 -15.136 -23.582  0.00  0.00    +0.054 C 
ATOM     25  C   UNL     1      33.510 -14.211 -25.718  0.00  0.00    +0.004 C 
ATOM     26  C   UNL     1      33.839 -15.315 -24.933  0.00  0.00    +0.015 C 
BRANCH  21  27
ATOM     27  O   UNL     1      33.607 -11.544 -23.216  0.00  0.00    -0.479 OA
BRANCH  27  28
ATOM     28  C   UNL     1      32.394 -10.824 -23.397  0.00  0.00    +0.166 C 
ATOM     29  C   UNL     1      32.678  -9.331 -23.341  0.00  0.00    +0.044 C 
ATOM     30  C   UNL     1      31.467 -11.042 -22.212  0.00  0.00    +0.044 C 
ATOM     31  C   UNL     1      32.782  -9.017 -21.849  0.00  0.00    +0.004 C 
ATOM     32  C   UNL     1      32.031 -10.132 -21.123  0.00  0.00    +0.004 C 
ENDBRANCH  27  28
ENDBRANCH  21  27
ENDBRANCH  18  24
ENDBRANCH   3  19
TORSDOF 5
ENDMDL
MODEL 5
REMARK VINA RESULT:     -10.6      1.528      3.503
REMARK  Name = 447734
REMARK  5 active torsions:
REMARK  status: ('A' for Active; 'I' for Inactive)
REMARK    1  A    between atoms: C_3  and  C_19
REMARK    2  A    between atoms: C_9  and  C_13
REMARK    3  A    between atoms: N_18  and  C_24
REMARK    4  A    between atoms: C_21  and  O_27
REMARK    5  A    between atoms: O_27  and  C_28
REMARK                            x       y       z     vdW  Elec       q    Type
REMARK                         _______ _______ _______ _____ _____    ______ ____
ROOT
ATOM      1  C   UNL     1      35.280 -20.271 -20.606  0.00  0.00    +0.000 C 
ATOM      2  C   UNL     1      34.036 -19.890 -21.161  0.00  0.00    +0.000 C 
ATOM      3  C   UNL     1      34.141 -21.899 -19.203  0.00  0.00    +0.054 C 
ATOM      4  C   UNL     1      35.315 -21.277 -19.627  0.00  0.00    +0.005 C 
ATOM      5  C   UNL     1      32.863 -20.526 -20.723  0.00  0.00    +0.000 C 
ATOM      6  C   UNL     1      32.917 -21.524 -19.749  0.00  0.00    +0.005 C 
ATOM      7  C   UNL     1      34.000 -18.882 -22.141  0.00  0.00    +0.003 C 
ATOM      8  C   UNL     1      36.452 -19.634 -21.045  0.00  0.00    +0.000 C 
ATOM      9  C   UNL     1      35.175 -18.261 -22.566  0.00  0.00    +0.031 C 
ATOM     10  C   UNL     1      36.399 -18.636 -22.019  0.00  0.00    +0.003 C 
ENDROOT
BRANCH   9  13
ATOM     11  N   UNL     1      35.598 -15.936 -23.327  0.00  0.00    -0.343 N 
ATOM     12  N   UNL     1      34.606 -17.485 -24.767  0.00  0.00    -0.285 NA
ATOM     13  C   UNL     1      35.121 -17.220 -23.580  0.00  0.00    +0.117 C 
ATOM     14  H   UNL     1      35.553 -15.246 -24.028  0.00  0.00    +0.144 HD
ATOM     15  H   UNL     1      35.983 -15.718 -22.446  0.00  0.00    +0.144 HD
ATOM     16  H   UNL     1      34.569 -16.782 -25.456  0.00  0.00    +0.188 HD
ENDBRANCH   9  13
BRANCH   3  19
ATOM     17  O   UNL     1      33.847 -24.093 -18.487  0.00  0.00    -0.270 OA
ATOM     18  N   UNL     1      34.670 -22.543 -16.930  0.00  0.00    -0.280 N 
ATOM     19  C   UNL     1      34.195 -22.939 -18.188  0.00  0.00    +0.249 C 
ATOM     20  H   UNL     1      34.907 -21.592 -16.843  0.00  0.00    +0.155 HD
BRANCH  18  24
ATOM     21  C   UNL     1      33.930 -24.676 -14.010  0.00  0.00    +0.140 C 
ATOM     22  C   UNL     1      33.750 -23.901 -15.155  0.00  0.00    +0.052 C 
ATOM     23  C   UNL     1      35.212 -24.872 -13.496  0.00  0.00    +0.037 C 
ATOM     24  C   UNL     1      34.854 -23.332 -15.768  0.00  0.00    +0.054 C 
ATOM     25  C   UNL     1      36.313 -24.292 -14.126  0.00  0.00    +0.004 C 
ATOM     26  C   UNL     1      36.133 -23.516 -15.271  0.00  0.00    +0.015 C 
BRANCH  21  27
ATOM     27  O   UNL     1      32.857 -25.242 -13.395  0.00  0.00    -0.479 OA
BRANCH  27  28
ATOM     28  C   UNL     1      31.779 -24.380 -13.052  0.00  0.00    +0.166 C 
ATOM     29  C   UNL     1      30.568 -25.215 -12.663  0.00  0.00    +0.044 C 
ATOM     30  C   UNL     1      31.294 -23.624 -14.279  0.00  0.00    +0.044 C 
ATOM     31  C   UNL     1      29.957 -25.648 -13.995  0.00  0.00    +0.004 C 
ATOM     32  C   UNL     1      30.449 -24.644 -15.038  0.00  0.00    +0.004 C 
ENDBRANCH  27  28
ENDBRANCH  21  27
ENDBRANCH  18  24
ENDBRANCH   3  19
TORSDOF 5
ENDMDL
MODEL 6
REMARK VINA RESULT:     -10.5      3.349     10.664
REMARK  Name = 447734
REMARK  5 active torsions:
REMARK  status: ('A' for Active; 'I' for Inactive)
REMARK    1  A    between atoms: C_3  and  C_19
REMARK    2  A    between atoms: C_9  and  C_13
REMARK    3  A    between atoms: N_18  and  C_24
REMARK    4  A    between atoms: C_21  and  O_27
REMARK    5  A    between atoms: O_27  and  C_28
REMARK                            x       y       z     vdW  Elec       q    Type
REMARK                         _______ _______ _______ _____ _____    ______ ____
ROOT
ATOM      1  C   UNL     1      32.776 -22.660 -17.219  0.00  0.00    +0.000 C 
ATOM      2  C   UNL     1      34.090 -23.047 -16.865  0.00  0.00    +0.000 C 
ATOM      3  C   UNL     1      33.655 -21.502 -19.169  0.00  0.00    +0.054 C 
ATOM      4  C   UNL     1      32.576 -21.888 -18.374  0.00  0.00    +0.005 C 
ATOM      5  C   UNL     1      35.165 -22.651 -17.676  0.00  0.00    +0.000 C 
ATOM      6  C   UNL     1      34.948 -21.883 -18.820  0.00  0.00    +0.005 C 
ATOM      7  C   UNL     1      34.290 -23.821 -15.709  0.00  0.00    +0.003 C 
ATOM      8  C   UNL     1      31.700 -23.057 -16.407  0.00  0.00    +0.000 C 
ATOM      9  C   UNL     1      33.210 -24.207 -14.914  0.00  0.00    +0.031 C 
ATOM     10  C   UNL     1      31.917 -23.826 -15.263  0.00  0.00    +0.003 C 
ENDROOT
BRANCH   9  13
ATOM     11  N   UNL     1      34.695 -25.093 -13.133  0.00  0.00    -0.343 N 
ATOM     12  N   UNL     1      32.432 -25.675 -13.179  0.00  0.00    -0.285 NA
ATOM     13  C   UNL     1      33.434 -25.007 -13.721  0.00  0.00    +0.117 C 
ATOM     14  H   UNL     1      34.824 -25.641 -12.324  0.00  0.00    +0.144 HD
ATOM     15  H   UNL     1      35.455 -24.606 -13.524  0.00  0.00    +0.144 HD
ATOM     16  H   UNL     1      32.581 -26.217 -12.370  0.00  0.00    +0.188 HD
ENDBRANCH   9  13
BRANCH   3  19
ATOM     17  O   UNL     1      32.285 -20.631 -20.835  0.00  0.00    -0.270 OA
ATOM     18  N   UNL     1      34.556 -20.040 -20.875  0.00  0.00    -0.280 N 
ATOM     19  C   UNL     1      33.431 -20.701 -20.362  0.00  0.00    +0.249 C 
ATOM     20  H   UNL     1      35.399 -20.193 -20.392  0.00  0.00    +0.155 HD
BRANCH  18  24
ATOM     21  C   UNL     1      34.857 -16.972 -22.904  0.00  0.00    +0.140 C 
ATOM     22  C   UNL     1      34.779 -17.818 -21.799  0.00  0.00    +0.052 C 
ATOM     23  C   UNL     1      34.792 -17.502 -24.193  0.00  0.00    +0.037 C 
ATOM     24  C   UNL     1      34.637 -19.181 -21.998  0.00  0.00    +0.054 C 
ATOM     25  C   UNL     1      34.648 -18.877 -24.376  0.00  0.00    +0.004 C 
ATOM     26  C   UNL     1      34.570 -19.722 -23.271  0.00  0.00    +0.015 C 
BRANCH  21  27
ATOM     27  O   UNL     1      34.998 -15.630 -22.727  0.00  0.00    -0.479 OA
BRANCH  27  28
ATOM     28  C   UNL     1      33.824 -14.894 -22.406  0.00  0.00    +0.166 C 
ATOM     29  C   UNL     1      33.028 -14.634 -23.677  0.00  0.00    +0.044 C 
ATOM     30  C   UNL     1      34.188 -13.494 -21.937  0.00  0.00    +0.044 C 
ATOM     31  C   UNL     1      33.736 -13.450 -24.336  0.00  0.00    +0.004 C 
ATOM     32  C   UNL     1      34.505 -12.737 -23.224  0.00  0.00    +0.004 C 
ENDBRANCH  27  28
ENDBRANCH  21  27
ENDBRANCH  18  24
ENDBRANCH   3  19
TORSDOF 5
ENDMDL
MODEL 7
REMARK VINA RESULT:     -10.5      8.327     14.732
REMARK  Name = 447734
REMARK  5 active torsions:
REMARK  status: ('A' for Active; 'I' for Inactive)
REMARK    1  A    between atoms: C_3  and  C_19
REMARK    2  A    between atoms: C_9  and  C_13
REMARK    3  A    between atoms: N_18  and  C_24
REMARK    4  A    between atoms: C_21  and  O_27
REMARK    5  A    between atoms: O_27  and  C_28
REMARK                            x       y       z     vdW  Elec       q    Type
REMARK                         _______ _______ _______ _____ _____    ______ ____
ROOT
ATOM      1  C   UNL     1      34.701 -16.106 -22.691  0.00  0.00    +0.000 C 
ATOM      2  C   UNL     1      34.818 -16.112 -21.280  0.00  0.00    +0.000 C 
ATOM      3  C   UNL     1      33.865 -13.824 -22.600  0.00  0.00    +0.054 C 
ATOM      4  C   UNL     1      34.222 -14.954 -23.335  0.00  0.00    +0.005 C 
ATOM      5  C   UNL     1      34.454 -14.966 -20.556  0.00  0.00    +0.000 C 
ATOM      6  C   UNL     1      33.981 -13.830 -21.212  0.00  0.00    +0.005 C 
ATOM      7  C   UNL     1      35.296 -17.266 -20.636  0.00  0.00    +0.003 C 
ATOM      8  C   UNL     1      35.065 -17.253 -23.415  0.00  0.00    +0.000 C 
ATOM      9  C   UNL     1      35.654 -18.396 -21.371  0.00  0.00    +0.031 C 
ATOM     10  C   UNL     1      35.539 -18.390 -22.759  0.00  0.00    +0.003 C 
ENDROOT
BRANCH   9  13
ATOM     11  N   UNL     1      35.407 -20.762 -20.660  0.00  0.00    -0.343 N 
ATOM     12  N   UNL     1      37.317 -19.549 -20.076  0.00  0.00    -0.285 NA
ATOM     13  C   UNL     1      36.147 -19.582 -20.689  0.00  0.00    +0.117 C 
ATOM     14  H   UNL     1      35.761 -21.553 -20.193  0.00  0.00    +0.144 HD
ATOM     15  H   UNL     1      34.531 -20.805 -21.108  0.00  0.00    +0.144 HD
ATOM     16  H   UNL     1      37.653 -20.351 -19.614  0.00  0.00    +0.188 HD
ENDBRANCH   9  13
BRANCH   3  19
ATOM     17  O   UNL     1      33.363 -12.616 -24.523  0.00  0.00    -0.270 OA
ATOM     18  N   UNL     1      32.911 -11.604 -22.455  0.00  0.00    -0.280 N 
ATOM     19  C   UNL     1      33.371 -12.638 -23.282  0.00  0.00    +0.249 C 
ATOM     20  H   UNL     1      32.981 -11.767 -21.487  0.00  0.00    +0.155 HD
BRANCH  18  24
ATOM     21  C   UNL     1      32.574  -8.248 -23.955  0.00  0.00    +0.140 C 
ATOM     22  C   UNL     1      33.118  -9.478 -23.586  0.00  0.00    +0.052 C 
ATOM     23  C   UNL     1      31.278  -7.914 -23.563  0.00  0.00    +0.037 C 
ATOM     24  C   UNL     1      32.358 -10.355 -22.831  0.00  0.00    +0.054 C 
ATOM     25  C   UNL     1      30.526  -8.808 -22.801  0.00  0.00    +0.004 C 
ATOM     26  C   UNL     1      31.070 -10.038 -22.433  0.00  0.00    +0.015 C 
BRANCH  21  27
ATOM     27  O   UNL     1      33.307  -7.375 -24.697  0.00  0.00    -0.479 OA
BRANCH  27  28
ATOM     28  C   UNL     1      33.953  -6.317 -24.000  0.00  0.00    +0.166 C 
ATOM     29  C   UNL     1      33.435  -4.982 -24.515  0.00  0.00    +0.044 C 
ATOM     30  C   UNL     1      35.430  -6.273 -24.356  0.00  0.00    +0.044 C 
ATOM     31  C   UNL     1      34.201  -4.752 -25.818  0.00  0.00    +0.004 C 
ATOM     32  C   UNL     1      35.466  -5.605 -25.729  0.00  0.00    +0.004 C 
ENDBRANCH  27  28
ENDBRANCH  21  27
ENDBRANCH  18  24
ENDBRANCH   3  19
TORSDOF 5
ENDMDL
MODEL 8
REMARK VINA RESULT:     -10.4      9.084     15.596
REMARK  Name = 447734
REMARK  5 active torsions:
REMARK  status: ('A' for Active; 'I' for Inactive)
REMARK    1  A    between atoms: C_3  and  C_19
REMARK    2  A    between atoms: C_9  and  C_13
REMARK    3  A    between atoms: N_18  and  C_24
REMARK    4  A    between atoms: C_21  and  O_27
REMARK    5  A    between atoms: O_27  and  C_28
REMARK                            x       y       z     vdW  Elec       q    Type
REMARK                         _______ _______ _______ _____ _____    ______ ____
ROOT
ATOM      1  C   UNL     1      34.016 -14.579 -21.823  0.00  0.00    +0.000 C 
ATOM      2  C   UNL     1      34.179 -15.108 -23.125  0.00  0.00    +0.000 C 
ATOM      3  C   UNL     1      33.022 -12.573 -22.774  0.00  0.00    +0.054 C 
ATOM      4  C   UNL     1      33.436 -13.310 -21.665  0.00  0.00    +0.005 C 
ATOM      5  C   UNL     1      33.756 -14.353 -24.231  0.00  0.00    +0.000 C 
ATOM      6  C   UNL     1      33.181 -13.094 -24.056  0.00  0.00    +0.005 C 
ATOM      7  C   UNL     1      34.759 -16.378 -23.284  0.00  0.00    +0.003 C 
ATOM      8  C   UNL     1      34.439 -15.335 -20.717  0.00  0.00    +0.000 C 
ATOM      9  C   UNL     1      35.173 -17.115 -22.174  0.00  0.00    +0.031 C 
ATOM     10  C   UNL     1      35.013 -16.594 -20.893  0.00  0.00    +0.003 C 
ENDROOT
BRANCH   9  13
ATOM     11  N   UNL     1      35.051 -19.482 -22.912  0.00  0.00    -0.343 N 
ATOM     12  N   UNL     1      37.021 -18.638 -21.982  0.00  0.00    -0.285 NA
ATOM     13  C   UNL     1      35.772 -18.428 -22.355  0.00  0.00    +0.117 C 
ATOM     14  H   UNL     1      35.477 -20.363 -23.026  0.00  0.00    +0.144 HD
ATOM     15  H   UNL     1      34.117 -19.347 -23.192  0.00  0.00    +0.144 HD
ATOM     16  H   UNL     1      37.429 -19.525 -22.104  0.00  0.00    +0.188 HD
ENDBRANCH   9  13
BRANCH   3  19
ATOM     17  O   UNL     1      31.245 -11.182 -22.210  0.00  0.00    -0.270 OA
ATOM     18  N   UNL     1      33.261 -10.166 -22.853  0.00  0.00    -0.280 N 
ATOM     19  C   UNL     1      32.424 -11.260 -22.594  0.00  0.00    +0.249 C 
ATOM     20  H   UNL     1      34.172 -10.386 -23.152  0.00  0.00    +0.155 HD
BRANCH  18  24
ATOM     21  C   UNL     1      32.575  -6.659 -23.780  0.00  0.00    +0.140 C 
ATOM     22  C   UNL     1      32.864  -8.019 -23.890  0.00  0.00    +0.052 C 
ATOM     23  C   UNL     1      32.392  -6.086 -22.522  0.00  0.00    +0.037 C 
ATOM     24  C   UNL     1      32.966  -8.785 -22.741  0.00  0.00    +0.054 C 
ATOM     25  C   UNL     1      32.498  -6.871 -21.375  0.00  0.00    +0.004 C 
ATOM     26  C   UNL     1      32.787  -8.231 -21.485  0.00  0.00    +0.015 C 
BRANCH  21  27
ATOM     27  O   UNL     1      32.472  -5.892 -24.899  0.00  0.00    -0.479 OA
BRANCH  27  28
ATOM     28  C   UNL     1      33.488  -4.921 -25.114  0.00  0.00    +0.166 C 
ATOM     29  C   UNL     1      33.331  -4.324 -26.504  0.00  0.00    +0.044 C 
ATOM     30  C   UNL     1      34.853  -5.587 -25.178  0.00  0.00    +0.044 C 
ATOM     31  C   UNL     1      33.957  -5.360 -27.438  0.00  0.00    +0.004 C 
ATOM     32  C   UNL     1      34.910  -6.190 -26.580  0.00  0.00    +0.004 C 
ENDBRANCH  27  28
ENDBRANCH  21  27
ENDBRANCH  18  24
ENDBRANCH   3  19
TORSDOF 5
ENDMDL
MODEL 9
REMARK VINA RESULT:     -10.3      9.367     15.704
REMARK  Name = 447734
REMARK  5 active torsions:
REMARK  status: ('A' for Active; 'I' for Inactive)
REMARK    1  A    between atoms: C_3  and  C_19
REMARK    2  A    between atoms: C_9  and  C_13
REMARK    3  A    between atoms: N_18  and  C_24
REMARK    4  A    between atoms: C_21  and  O_27
REMARK    5  A    between atoms: O_27  and  C_28
REMARK                            x       y       z     vdW  Elec       q    Type
REMARK                         _______ _______ _______ _____ _____    ______ ____
ROOT
ATOM      1  C   UNL     1      33.632 -13.995 -22.587  0.00  0.00    +0.000 C 
ATOM      2  C   UNL     1      33.607 -14.568 -21.294  0.00  0.00    +0.000 C 
ATOM      3  C   UNL     1      32.324 -12.115 -21.767  0.00  0.00    +0.054 C 
ATOM      4  C   UNL     1      32.985 -12.768 -22.807  0.00  0.00    +0.005 C 
ATOM      5  C   UNL     1      32.936 -13.897 -20.258  0.00  0.00    +0.000 C 
ATOM      6  C   UNL     1      32.300 -12.679 -20.495  0.00  0.00    +0.005 C 
ATOM      7  C   UNL     1      34.254 -15.795 -21.074  0.00  0.00    +0.003 C 
ATOM      8  C   UNL     1      34.303 -14.666 -23.623  0.00  0.00    +0.000 C 
ATOM      9  C   UNL     1      34.917 -16.448 -22.113  0.00  0.00    +0.031 C 
ATOM     10  C   UNL     1      34.941 -15.884 -23.386  0.00  0.00    +0.003 C 
ENDROOT
BRANCH   9  13
ATOM     11  N   UNL     1      36.046 -18.507 -22.920  0.00  0.00    -0.343 N 
ATOM     12  N   UNL     1      35.749 -18.145 -20.630  0.00  0.00    -0.285 NA
ATOM     13  C   UNL     1      35.581 -17.718 -21.869  0.00  0.00    +0.117 C 
ATOM     14  H   UNL     1      36.494 -19.363 -22.731  0.00  0.00    +0.144 HD
ATOM     15  H   UNL     1      35.928 -18.207 -23.850  0.00  0.00    +0.144 HD
ATOM     16  H   UNL     1      36.199 -19.005 -20.462  0.00  0.00    +0.188 HD
ENDBRANCH   9  13
BRANCH   3  19
ATOM     17  O   UNL     1      30.419 -10.820 -22.094  0.00  0.00    -0.270 OA
ATOM     18  N   UNL     1      32.495  -9.725 -22.113  0.00  0.00    -0.280 N 
ATOM     19  C   UNL     1      31.658 -10.845 -22.012  0.00  0.00    +0.249 C 
ATOM     20  H   UNL     1      33.459  -9.903 -22.028  0.00  0.00    +0.155 HD
BRANCH  18  24
ATOM     21  C   UNL     1      31.931  -6.485 -23.788  0.00  0.00    +0.140 C 
ATOM     22  C   UNL     1      32.284  -7.818 -23.583  0.00  0.00    +0.052 C 
ATOM     23  C   UNL     1      31.432  -5.725 -22.730  0.00  0.00    +0.037 C 
ATOM     24  C   UNL     1      32.135  -8.372 -22.322  0.00  0.00    +0.054 C 
ATOM     25  C   UNL     1      31.288  -6.298 -21.467  0.00  0.00    +0.004 C 
ATOM     26  C   UNL     1      31.642  -7.631 -21.261  0.00  0.00    +0.015 C 
BRANCH  21  27
ATOM     27  O   UNL     1      32.071  -5.925 -25.020  0.00  0.00    -0.479 OA
BRANCH  27  28
ATOM     28  C   UNL     1      33.116  -4.975 -25.184  0.00  0.00    +0.166 C 
ATOM     29  C   UNL     1      33.265  -4.635 -26.659  0.00  0.00    +0.044 C 
ATOM     30  C   UNL     1      34.459  -5.599 -24.838  0.00  0.00    +0.044 C 
ATOM     31  C   UNL     1      34.069  -5.798 -27.240  0.00  0.00    +0.004 C 
ATOM     32  C   UNL     1      34.811  -6.436 -26.066  0.00  0.00    +0.004 C 
ENDBRANCH  27  28
ENDBRANCH  21  27
ENDBRANCH  18  24
ENDBRANCH   3  19
TORSDOF 5
ENDMDL
